MODEL 1
REMARK VINA RESULT:      -8.1      0.000      0.000
REMARK  2 active torsions:
REMARK  status: ('A' for Active; 'I' for Inactive)
REMARK    1  A    between atoms: O1_2  and  C2_3 
REMARK    2  A    between atoms: C16_22  and  C17_23 
ROOT
HETATM    1  C2  UNL     1      25.855   0.741  52.718  1.00  0.00     0.103 A 
HETATM    2  C3  UNL     1      25.504  -0.142  53.721  1.00  0.00     0.072 A 
HETATM    3  C4  UNL     1      24.183  -0.395  54.062  1.00  0.00     0.075 A 
HETATM    4  N1  UNL     1      23.915  -1.254  55.039  1.00  0.00    -0.241 NA
HETATM    5  C5  UNL     1      22.640  -1.506  55.384  1.00  0.00     0.236 A 
HETATM    6  N2  UNL     1      21.636  -0.885  54.739  1.00  0.00    -0.224 NA
HETATM    7  C6  UNL     1      21.878  -0.011  53.746  1.00  0.00     0.142 A 
HETATM    8  C7  UNL     1      23.161   0.244  53.395  1.00  0.00     0.042 A 
HETATM    9  C8  UNL     1      23.554   1.113  52.405  1.00  0.00     0.057 A 
HETATM   10  C9  UNL     1      24.854   1.391  52.037  1.00  0.00     0.103 A 
HETATM   11  O2  UNL     1      25.006   2.329  50.984  1.00  0.00    -0.348 OA
HETATM   12  C10 UNL     1      23.936   3.219  50.694  1.00  0.00     0.177 C 
HETATM   13  C11 UNL     1      23.597   4.106  51.860  1.00  0.00     0.057 C 
HETATM   14  C12 UNL     1      22.359   4.950  51.521  1.00  0.00     0.275 C 
HETATM   15  N3  UNL     1      21.237   4.122  51.246  1.00  0.00     0.096 N 
HETATM   16  C13 UNL     1      20.226   4.822  50.529  1.00  0.00     0.299 C 
HETATM   17  C14 UNL     1      18.852   4.171  50.726  1.00  0.00     0.205 C 
HETATM   18  O3  UNL     1      19.074   2.774  50.791  1.00  0.00    -0.350 OA
HETATM   19  C15 UNL     1      19.869   2.314  51.824  1.00  0.00     0.098 C 
HETATM   20  C16 UNL     1      19.872   1.040  52.175  1.00  0.00     0.056 C 
HETATM   21  N4  UNL     1      20.676   0.531  53.225  1.00  0.00    -0.341 N 
HETATM   22  C18 UNL     1      20.652   3.467  52.403  1.00  0.00     0.338 C 
HETATM   23  H19 UNL     1      19.842   0.702  53.864  1.00  0.00     0.167 HD
ENDROOT
BRANCH   1  24
HETATM   24  O1  UNL     1      27.149   1.047  52.319  1.00  0.00    -0.353 OA
HETATM   25  C1  UNL     1      28.059   1.819  53.053  1.00  0.00     0.210 C 
ENDBRANCH   1  24
BRANCH  20  26
HETATM   26  C17 UNL     1      18.996   0.106  51.427  1.00  0.00     0.174 C 
HETATM   27 CL1  UNL     1      18.136  -1.005  52.504  1.00  0.00    -0.124 Cl
ENDBRANCH  20  26
TORSDOF 2
ENDMDL
MODEL 2
REMARK VINA RESULT:      -7.8      2.951      4.828
REMARK  2 active torsions:
REMARK  status: ('A' for Active; 'I' for Inactive)
REMARK    1  A    between atoms: O1_2  and  C2_3 
REMARK    2  A    between atoms: C16_22  and  C17_23 
ROOT
HETATM    1  C2  UNL     1      25.800   0.801  52.462  1.00  0.00     0.103 A 
HETATM    2  C3  UNL     1      26.615   1.526  51.614  1.00  0.00     0.072 A 
HETATM    3  C4  UNL     1      26.143   2.589  50.857  1.00  0.00     0.075 A 
HETATM    4  N1  UNL     1      26.980   3.242  50.059  1.00  0.00    -0.241 NA
HETATM    5  C5  UNL     1      26.537   4.273  49.316  1.00  0.00     0.236 A 
HETATM    6  N2  UNL     1      25.245   4.640  49.382  1.00  0.00    -0.224 NA
HETATM    7  C6  UNL     1      24.376   3.997  50.182  1.00  0.00     0.142 A 
HETATM    8  C7  UNL     1      24.819   2.960  50.932  1.00  0.00     0.042 A 
HETATM    9  C8  UNL     1      24.044   2.214  51.788  1.00  0.00     0.057 A 
HETATM   10  C9  UNL     1      24.474   1.151  52.555  1.00  0.00     0.103 A 
HETATM   11  O2  UNL     1      23.482   0.535  53.361  1.00  0.00    -0.348 OA
HETATM   12  C10 UNL     1      22.112   0.714  53.025  1.00  0.00     0.177 C 
HETATM   13  C11 UNL     1      21.784   0.180  51.658  1.00  0.00     0.057 C 
HETATM   14  C12 UNL     1      20.326   0.516  51.312  1.00  0.00     0.275 C 
HETATM   15  N3  UNL     1      20.113   1.922  51.308  1.00  0.00     0.096 N 
HETATM   16  C13 UNL     1      18.732   2.248  51.420  1.00  0.00     0.299 C 
HETATM   17  C14 UNL     1      18.444   3.646  50.857  1.00  0.00     0.205 C 
HETATM   18  O3  UNL     1      19.564   4.448  51.180  1.00  0.00    -0.350 OA
HETATM   19  C15 UNL     1      20.783   4.065  50.651  1.00  0.00     0.098 C 
HETATM   20  C16 UNL     1      21.807   4.900  50.608  1.00  0.00     0.056 C 
HETATM   21  N4  UNL     1      23.071   4.542  50.078  1.00  0.00    -0.341 N 
HETATM   22  C18 UNL     1      20.696   2.634  50.183  1.00  0.00     0.338 C 
HETATM   23  H19 UNL     1      22.721   4.926  49.149  1.00  0.00     0.167 HD
ENDROOT
BRANCH   1  24
HETATM   24  O1  UNL     1      26.194  -0.272  53.249  1.00  0.00    -0.353 OA
HETATM   25  C1  UNL     1      26.740  -1.469  52.767  1.00  0.00     0.210 C 
ENDBRANCH   1  24
BRANCH  20  26
HETATM   26  C17 UNL     1      21.617   6.268  51.146  1.00  0.00     0.174 C 
HETATM   27 CL1  UNL     1      22.981   7.329  50.760  1.00  0.00    -0.124 Cl
ENDBRANCH  20  26
TORSDOF 2
ENDMDL
MODEL 3
REMARK VINA RESULT:      -7.8      3.607      5.194
REMARK  2 active torsions:
REMARK  status: ('A' for Active; 'I' for Inactive)
REMARK    1  A    between atoms: O1_2  and  C2_3 
REMARK    2  A    between atoms: C16_22  and  C17_23 
ROOT
HETATM    1  C2  UNL     1      23.275  -0.336  53.127  1.00  0.00     0.103 A 
HETATM    2  C3  UNL     1      24.637  -0.302  53.352  1.00  0.00     0.072 A 
HETATM    3  C4  UNL     1      25.454   0.688  52.825  1.00  0.00     0.075 A 
HETATM    4  N1  UNL     1      26.758   0.659  53.079  1.00  0.00    -0.241 NA
HETATM    5  C5  UNL     1      27.564   1.609  52.572  1.00  0.00     0.236 A 
HETATM    6  N2  UNL     1      27.048   2.588  51.808  1.00  0.00    -0.224 NA
HETATM    7  C6  UNL     1      25.732   2.642  51.536  1.00  0.00     0.142 A 
HETATM    8  C7  UNL     1      24.918   1.688  52.045  1.00  0.00     0.042 A 
HETATM    9  C8  UNL     1      23.559   1.617  51.847  1.00  0.00     0.057 A 
HETATM   10  C9  UNL     1      22.713   0.651  52.351  1.00  0.00     0.103 A 
HETATM   11  O2  UNL     1      21.345   0.792  52.005  1.00  0.00    -0.348 OA
HETATM   12  C10 UNL     1      20.999   1.577  50.871  1.00  0.00     0.177 C 
HETATM   13  C11 UNL     1      21.593   1.038  49.598  1.00  0.00     0.057 C 
HETATM   14  C12 UNL     1      21.283   1.997  48.440  1.00  0.00     0.275 C 
HETATM   15  N3  UNL     1      21.834   3.285  48.683  1.00  0.00     0.096 N 
HETATM   16  C13 UNL     1      21.222   4.284  47.875  1.00  0.00     0.299 C 
HETATM   17  C14 UNL     1      22.143   5.497  47.697  1.00  0.00     0.205 C 
HETATM   18  O3  UNL     1      22.832   5.661  48.923  1.00  0.00    -0.350 OA
HETATM   19  C15 UNL     1      23.644   4.619  49.329  1.00  0.00     0.098 C 
HETATM   20  C16 UNL     1      24.570   4.790  50.257  1.00  0.00     0.056 C 
HETATM   21  N4  UNL     1      25.417   3.745  50.702  1.00  0.00    -0.341 N 
HETATM   22  C18 UNL     1      23.280   3.373  48.561  1.00  0.00     0.338 C 
HETATM   23  H19 UNL     1      26.106   4.071  49.958  1.00  0.00     0.167 HD
ENDROOT
BRANCH   1  24
HETATM   24  O1  UNL     1      22.392  -1.289  53.615  1.00  0.00    -0.353 OA
HETATM   25  C1  UNL     1      21.667  -1.182  54.809  1.00  0.00     0.210 C 
ENDBRANCH   1  24
BRANCH  20  26
HETATM   26  C17 UNL     1      24.718   6.137  50.858  1.00  0.00     0.174 C 
HETATM   27 CL1  UNL     1      25.911   7.122  49.997  1.00  0.00    -0.124 Cl
ENDBRANCH  20  26
TORSDOF 2
ENDMDL
MODEL 4
REMARK VINA RESULT:      -7.6      2.520      5.188
REMARK  2 active torsions:
REMARK  status: ('A' for Active; 'I' for Inactive)
REMARK    1  A    between atoms: O1_2  and  C2_3 
REMARK    2  A    between atoms: C16_22  and  C17_23 
ROOT
HETATM    1  C2  UNL     1      25.013   3.764  50.010  1.00  0.00     0.103 A 
HETATM    2  C3  UNL     1      24.081   3.544  49.015  1.00  0.00     0.072 A 
HETATM    3  C4  UNL     1      23.020   2.663  49.171  1.00  0.00     0.075 A 
HETATM    4  N1  UNL     1      22.161   2.496  48.172  1.00  0.00    -0.241 NA
HETATM    5  C5  UNL     1      21.129   1.643  48.305  1.00  0.00     0.236 A 
HETATM    6  N2  UNL     1      20.971   0.958  49.452  1.00  0.00    -0.224 NA
HETATM    7  C6  UNL     1      21.825   1.108  50.480  1.00  0.00     0.142 A 
HETATM    8  C7  UNL     1      22.863   1.968  50.349  1.00  0.00     0.042 A 
HETATM    9  C8  UNL     1      23.812   2.217  51.312  1.00  0.00     0.057 A 
HETATM   10  C9  UNL     1      24.880   3.082  51.197  1.00  0.00     0.103 A 
HETATM   11  O2  UNL     1      25.726   3.168  52.331  1.00  0.00    -0.348 OA
HETATM   12  C10 UNL     1      25.717   2.108  53.279  1.00  0.00     0.177 C 
HETATM   13  C11 UNL     1      26.132   0.795  52.673  1.00  0.00     0.057 C 
HETATM   14  C12 UNL     1      25.981  -0.322  53.716  1.00  0.00     0.275 C 
HETATM   15  N3  UNL     1      24.632  -0.436  54.151  1.00  0.00     0.096 N 
HETATM   16  C13 UNL     1      24.532  -1.134  55.387  1.00  0.00     0.299 C 
HETATM   17  C14 UNL     1      23.138  -1.748  55.568  1.00  0.00     0.205 C 
HETATM   18  O3  UNL     1      22.219  -0.833  54.999  1.00  0.00    -0.350 OA
HETATM   19  C15 UNL     1      22.352  -0.570  53.649  1.00  0.00     0.098 C 
HETATM   20  C16 UNL     1      21.373  -0.010  52.958  1.00  0.00     0.056 C 
HETATM   21  N4  UNL     1      21.474   0.279  51.575  1.00  0.00    -0.341 N 
HETATM   22  C18 UNL     1      23.716  -1.016  53.184  1.00  0.00     0.338 C 
HETATM   23  H19 UNL     1      21.041  -0.679  51.406  1.00  0.00     0.167 HD
ENDROOT
BRANCH   1  24
HETATM   24  O1  UNL     1      26.099   4.625  49.933  1.00  0.00    -0.353 OA
HETATM   25  C1  UNL     1      27.072   4.608  48.925  1.00  0.00     0.210 C 
ENDBRANCH   1  24
BRANCH  20  26
HETATM   26  C17 UNL     1      20.120   0.333  53.673  1.00  0.00     0.174 C 
HETATM   27 CL1  UNL     1      18.721  -0.526  53.010  1.00  0.00    -0.124 Cl
ENDBRANCH  20  26
TORSDOF 2
ENDMDL
MODEL 5
REMARK VINA RESULT:      -7.0      2.435      5.253
REMARK  2 active torsions:
REMARK  status: ('A' for Active; 'I' for Inactive)
REMARK    1  A    between atoms: O1_2  and  C2_3 
REMARK    2  A    between atoms: C16_22  and  C17_23 
ROOT
HETATM    1  C2  UNL     1      24.256   4.718  50.084  1.00  0.00     0.103 A 
HETATM    2  C3  UNL     1      23.627   4.644  48.856  1.00  0.00     0.072 A 
HETATM    3  C4  UNL     1      22.572   3.777  48.611  1.00  0.00     0.075 A 
HETATM    4  N1  UNL     1      22.014   3.755  47.406  1.00  0.00    -0.241 NA
HETATM    5  C5  UNL     1      20.993   2.916  47.151  1.00  0.00     0.236 A 
HETATM    6  N2  UNL     1      20.540   2.100  48.118  1.00  0.00    -0.224 NA
HETATM    7  C6  UNL     1      21.085   2.102  49.348  1.00  0.00     0.142 A 
HETATM    8  C7  UNL     1      22.112   2.945  49.608  1.00  0.00     0.042 A 
HETATM    9  C8  UNL     1      22.765   3.051  50.813  1.00  0.00     0.057 A 
HETATM   10  C9  UNL     1      23.816   3.898  51.097  1.00  0.00     0.103 A 
HETATM   11  O2  UNL     1      24.325   3.823  52.418  1.00  0.00    -0.348 OA
HETATM   12  C10 UNL     1      24.073   2.655  53.188  1.00  0.00     0.177 C 
HETATM   13  C11 UNL     1      24.649   1.417  52.556  1.00  0.00     0.057 C 
HETATM   14  C12 UNL     1      24.234   0.184  53.373  1.00  0.00     0.275 C 
HETATM   15  N3  UNL     1      22.820   0.050  53.413  1.00  0.00     0.096 N 
HETATM   16  C13 UNL     1      22.398  -0.792  54.480  1.00  0.00     0.299 C 
HETATM   17  C14 UNL     1      21.013  -1.390  54.203  1.00  0.00     0.205 C 
HETATM   18  O3  UNL     1      20.271  -0.391  53.528  1.00  0.00    -0.350 OA
HETATM   19  C15 UNL     1      20.759   0.034  52.306  1.00  0.00     0.098 C 
HETATM   20  C16 UNL     1      19.996   0.698  51.455  1.00  0.00     0.056 C 
HETATM   21  N4  UNL     1      20.461   1.152  50.196  1.00  0.00    -0.341 N 
HETATM   22  C18 UNL     1      22.202  -0.384  52.172  1.00  0.00     0.338 C 
HETATM   23  H19 UNL     1      20.099   0.233  49.799  1.00  0.00     0.167 HD
ENDROOT
BRANCH   1  24
HETATM   24  O1  UNL     1      25.314   5.555  50.408  1.00  0.00    -0.353 OA
HETATM   25  C1  UNL     1      25.258   6.955  50.432  1.00  0.00     0.210 C 
ENDBRANCH   1  24
BRANCH  20  26
HETATM   26  C17 UNL     1      18.594   0.981  51.845  1.00  0.00     0.174 C 
HETATM   27 CL1  UNL     1      17.445  -0.071  51.003  1.00  0.00    -0.124 Cl
ENDBRANCH  20  26
TORSDOF 2
ENDMDL
MODEL 6
REMARK VINA RESULT:      -6.9      2.108      5.605
REMARK  2 active torsions:
REMARK  status: ('A' for Active; 'I' for Inactive)
REMARK    1  A    between atoms: O1_2  and  C2_3 
REMARK    2  A    between atoms: C16_22  and  C17_23 
ROOT
HETATM    1  C2  UNL     1      20.950   5.209  51.034  1.00  0.00     0.103 A 
HETATM    2  C3  UNL     1      19.940   4.544  50.366  1.00  0.00     0.072 A 
HETATM    3  C4  UNL     1      19.749   3.175  50.478  1.00  0.00     0.075 A 
HETATM    4  N1  UNL     1      18.761   2.598  49.805  1.00  0.00    -0.241 NA
HETATM    5  C5  UNL     1      18.565   1.270  49.899  1.00  0.00     0.236 A 
HETATM    6  N2  UNL     1      19.374   0.528  50.676  1.00  0.00    -0.224 NA
HETATM    7  C6  UNL     1      20.383   1.086  51.369  1.00  0.00     0.142 A 
HETATM    8  C7  UNL     1      20.581   2.422  51.277  1.00  0.00     0.042 A 
HETATM    9  C8  UNL     1      21.571   3.122  51.924  1.00  0.00     0.057 A 
HETATM   10  C9  UNL     1      21.795   4.481  51.839  1.00  0.00     0.103 A 
HETATM   11  O2  UNL     1      22.884   4.973  52.602  1.00  0.00    -0.348 OA
HETATM   12  C10 UNL     1      23.901   4.069  53.013  1.00  0.00     0.177 C 
HETATM   13  C11 UNL     1      24.598   3.422  51.847  1.00  0.00     0.057 C 
HETATM   14  C12 UNL     1      25.593   2.372  52.363  1.00  0.00     0.275 C 
HETATM   15  N3  UNL     1      24.927   1.359  53.105  1.00  0.00     0.096 N 
HETATM   16  C13 UNL     1      25.827   0.634  53.936  1.00  0.00     0.299 C 
HETATM   17  C14 UNL     1      25.275  -0.756  54.275  1.00  0.00     0.205 C 
HETATM   18  O3  UNL     1      23.874  -0.608  54.418  1.00  0.00    -0.350 OA
HETATM   19  C15 UNL     1      23.173  -0.176  53.307  1.00  0.00     0.098 C 
HETATM   20  C16 UNL     1      21.862  -0.319  53.223  1.00  0.00     0.056 C 
HETATM   21  N4  UNL     1      21.110   0.115  52.103  1.00  0.00    -0.341 N 
HETATM   22  C18 UNL     1      24.134   0.432  52.316  1.00  0.00     0.338 C 
HETATM   23  H19 UNL     1      21.240  -0.868  51.713  1.00  0.00     0.167 HD
ENDROOT
BRANCH   1  24
HETATM   24  O1  UNL     1      21.207   6.572  50.974  1.00  0.00    -0.353 OA
HETATM   25  C1  UNL     1      21.967   7.208  49.984  1.00  0.00     0.210 C 
ENDBRANCH   1  24
BRANCH  20  26
HETATM   26  C17 UNL     1      21.153  -0.959  54.357  1.00  0.00     0.174 C 
HETATM   27 CL1  UNL     1      19.573  -1.598  53.878  1.00  0.00    -0.124 Cl
ENDBRANCH  20  26
TORSDOF 2
ENDMDL
MODEL 7
REMARK VINA RESULT:      -6.8      8.651     10.663
REMARK  2 active torsions:
REMARK  status: ('A' for Active; 'I' for Inactive)
REMARK    1  A    between atoms: O1_2  and  C2_3 
REMARK    2  A    between atoms: C16_22  and  C17_23 
ROOT
HETATM    1  C2  UNL     1      31.177   6.306  47.445  1.00  0.00     0.103 A 
HETATM    2  C3  UNL     1      30.303   5.335  47.893  1.00  0.00     0.072 A 
HETATM    3  C4  UNL     1      28.974   5.607  48.185  1.00  0.00     0.075 A 
HETATM    4  N1  UNL     1      28.188   4.627  48.615  1.00  0.00    -0.241 NA
HETATM    5  C5  UNL     1      26.898   4.875  48.906  1.00  0.00     0.236 A 
HETATM    6  N2  UNL     1      26.407   6.118  48.761  1.00  0.00    -0.224 NA
HETATM    7  C6  UNL     1      27.180   7.130  48.326  1.00  0.00     0.142 A 
HETATM    8  C7  UNL     1      28.478   6.882  48.031  1.00  0.00     0.042 A 
HETATM    9  C8  UNL     1      29.380   7.817  47.583  1.00  0.00     0.057 A 
HETATM   10  C9  UNL     1      30.707   7.588  47.283  1.00  0.00     0.103 A 
HETATM   11  O2  UNL     1      31.440   8.717  46.838  1.00  0.00    -0.348 OA
HETATM   12  C10 UNL     1      30.952  10.018  47.139  1.00  0.00     0.177 C 
HETATM   13  C11 UNL     1      30.859  10.265  48.620  1.00  0.00     0.057 C 
HETATM   14  C12 UNL     1      30.212  11.635  48.872  1.00  0.00     0.275 C 
HETATM   15  N3  UNL     1      28.901  11.688  48.326  1.00  0.00     0.096 N 
HETATM   16  C13 UNL     1      28.451  13.028  48.159  1.00  0.00     0.299 C 
HETATM   17  C14 UNL     1      26.919  13.101  48.132  1.00  0.00     0.205 C 
HETATM   18  O3  UNL     1      26.473  11.937  47.462  1.00  0.00    -0.350 OA
HETATM   19  C15 UNL     1      26.790  10.722  48.041  1.00  0.00     0.098 C 
HETATM   20  C16 UNL     1      26.158   9.612  47.699  1.00  0.00     0.056 C 
HETATM   21  N4  UNL     1      26.458   8.348  48.267  1.00  0.00    -0.341 N 
HETATM   22  C18 UNL     1      27.898  10.920  49.045  1.00  0.00     0.338 C 
HETATM   23  H19 UNL     1      25.696   8.558  48.981  1.00  0.00     0.167 HD
ENDROOT
BRANCH   1  24
HETATM   24  O1  UNL     1      32.516   6.115  47.133  1.00  0.00    -0.353 OA
HETATM   25  C1  UNL     1      33.178   4.880  47.137  1.00  0.00     0.210 C 
ENDBRANCH   1  24
BRANCH  20  26
HETATM   26  C17 UNL     1      25.095   9.700  46.670  1.00  0.00     0.174 C 
HETATM   27 CL1  UNL     1      25.084   8.289  45.601  1.00  0.00    -0.124 Cl
ENDBRANCH  20  26
TORSDOF 2
ENDMDL
MODEL 8
REMARK VINA RESULT:      -6.6     10.406     13.012
REMARK  2 active torsions:
REMARK  status: ('A' for Active; 'I' for Inactive)
REMARK    1  A    between atoms: O1_2  and  C2_3 
REMARK    2  A    between atoms: C16_22  and  C17_23 
ROOT
HETATM    1  C2  UNL     1      32.753   3.794  46.672  1.00  0.00     0.103 A 
HETATM    2  C3  UNL     1      33.245   3.990  45.396  1.00  0.00     0.072 A 
HETATM    3  C4  UNL     1      33.125   5.201  44.729  1.00  0.00     0.075 A 
HETATM    4  N1  UNL     1      33.617   5.320  43.502  1.00  0.00    -0.241 NA
HETATM    5  C5  UNL     1      33.506   6.487  42.841  1.00  0.00     0.236 A 
HETATM    6  N2  UNL     1      32.893   7.531  43.425  1.00  0.00    -0.224 NA
HETATM    7  C6  UNL     1      32.385   7.439  44.668  1.00  0.00     0.142 A 
HETATM    8  C7  UNL     1      32.497   6.267  45.336  1.00  0.00     0.042 A 
HETATM    9  C8  UNL     1      32.024   6.029  46.604  1.00  0.00     0.057 A 
HETATM   10  C9  UNL     1      32.122   4.842  47.300  1.00  0.00     0.103 A 
HETATM   11  O2  UNL     1      31.553   4.842  48.598  1.00  0.00    -0.348 OA
HETATM   12  C10 UNL     1      30.578   5.825  48.923  1.00  0.00     0.177 C 
HETATM   13  C11 UNL     1      29.360   5.734  48.044  1.00  0.00     0.057 C 
HETATM   14  C12 UNL     1      28.408   6.895  48.366  1.00  0.00     0.275 C 
HETATM   15  N3  UNL     1      29.035   8.150  48.134  1.00  0.00     0.096 N 
HETATM   16  C13 UNL     1      28.366   9.209  48.809  1.00  0.00     0.299 C 
HETATM   17  C14 UNL     1      28.650  10.561  48.142  1.00  0.00     0.205 C 
HETATM   18  O3  UNL     1      29.992  10.514  47.696  1.00  0.00    -0.350 OA
HETATM   19  C15 UNL     1      30.308   9.549  46.758  1.00  0.00     0.098 C 
HETATM   20  C16 UNL     1      31.415   9.624  46.039  1.00  0.00     0.056 C 
HETATM   21  N4  UNL     1      31.773   8.652  45.072  1.00  0.00    -0.341 N 
HETATM   22  C18 UNL     1      29.224   8.500  46.737  1.00  0.00     0.338 C 
HETATM   23  H19 UNL     1      31.272   9.266  44.360  1.00  0.00     0.167 HD
ENDROOT
BRANCH   1  24
HETATM   24  O1  UNL     1      32.832   2.617  47.403  1.00  0.00    -0.353 OA
HETATM   25  C1  UNL     1      32.436   1.353  46.945  1.00  0.00     0.210 C 
ENDBRANCH   1  24
BRANCH  20  26
HETATM   26  C17 UNL     1      32.319  10.777  46.265  1.00  0.00     0.174 C 
HETATM   27 CL1  UNL     1      33.889  10.275  46.912  1.00  0.00    -0.124 Cl
ENDBRANCH  20  26
TORSDOF 2
ENDMDL
MODEL 9
REMARK VINA RESULT:      -6.6      3.249      4.386
REMARK  2 active torsions:
REMARK  status: ('A' for Active; 'I' for Inactive)
REMARK    1  A    between atoms: O1_2  and  C2_3 
REMARK    2  A    between atoms: C16_22  and  C17_23 
ROOT
HETATM    1  C2  UNL     1      26.495   5.197  49.017  1.00  0.00     0.103 A 
HETATM    2  C3  UNL     1      27.051   4.198  49.793  1.00  0.00     0.072 A 
HETATM    3  C4  UNL     1      26.279   3.265  50.471  1.00  0.00     0.075 A 
HETATM    4  N1  UNL     1      26.877   2.332  51.202  1.00  0.00    -0.241 NA
HETATM    5  C5  UNL     1      26.143   1.423  51.868  1.00  0.00     0.236 A 
HETATM    6  N2  UNL     1      24.801   1.461  51.793  1.00  0.00    -0.224 NA
HETATM    7  C6  UNL     1      24.168   2.395  51.059  1.00  0.00     0.142 A 
HETATM    8  C7  UNL     1      24.905   3.310  50.387  1.00  0.00     0.042 A 
HETATM    9  C8  UNL     1      24.394   4.318  49.605  1.00  0.00     0.057 A 
HETATM   10  C9  UNL     1      25.125   5.264  48.917  1.00  0.00     0.103 A 
HETATM   11  O2  UNL     1      24.368   6.207  48.177  1.00  0.00    -0.348 OA
HETATM   12  C10 UNL     1      23.004   6.415  48.518  1.00  0.00     0.177 C 
HETATM   13  C11 UNL     1      22.836   6.912  49.928  1.00  0.00     0.057 C 
HETATM   14  C12 UNL     1      21.340   6.996  50.268  1.00  0.00     0.275 C 
HETATM   15  N3  UNL     1      20.721   5.720  50.165  1.00  0.00     0.096 N 
HETATM   16  C13 UNL     1      19.306   5.827  50.048  1.00  0.00     0.299 C 
HETATM   17  C14 UNL     1      18.612   4.537  50.503  1.00  0.00     0.205 C 
HETATM   18  O3  UNL     1      19.447   3.468  50.101  1.00  0.00    -0.350 OA
HETATM   19  C15 UNL     1      20.720   3.430  50.640  1.00  0.00     0.098 C 
HETATM   20  C16 UNL     1      21.451   2.329  50.602  1.00  0.00     0.056 C 
HETATM   21  N4  UNL     1      22.759   2.253  51.140  1.00  0.00    -0.341 N 
HETATM   22  C18 UNL     1      21.057   4.781  51.221  1.00  0.00     0.338 C 
HETATM   23  H19 UNL     1      22.303   1.916  52.041  1.00  0.00     0.167 HD
ENDROOT
BRANCH   1  24
HETATM   24  O1  UNL     1      27.196   6.165  48.312  1.00  0.00    -0.353 OA
HETATM   25  C1  UNL     1      27.502   7.447  48.786  1.00  0.00     0.210 C 
ENDBRANCH   1  24
BRANCH  20  26
HETATM   26  C17 UNL     1      20.869   1.125  49.961  1.00  0.00     0.174 C 
HETATM   27 CL1  UNL     1      21.653   0.749  48.419  1.00  0.00    -0.124 Cl
ENDBRANCH  20  26
TORSDOF 2
ENDMDL
