MODEL 1
REMARK VINA RESULT:      -7.2      0.000      0.000
REMARK  9 active torsions:
REMARK  status: ('A' for Active; 'I' for Inactive)
REMARK    1  A    between atoms: C2_2  and  C3_3 
REMARK    2  A    between atoms: C2_2  and  C17_20 
REMARK    3  A    between atoms: C3_3  and  O1_4 
REMARK    4  A    between atoms: O1_4  and  C4_5 
REMARK    5  A    between atoms: C6_7  and  O2_8 
REMARK    6  A    between atoms: C9_11  and  O3_12 
REMARK    7  A    between atoms: O3_12  and  C10_13 
REMARK    8  A    between atoms: C10_13  and  C11_14 
REMARK    9  A    between atoms: C17_20  and  N1_21 
ROOT
HETATM    1  C4  UNL     1      25.588   2.700  51.188  1.00  0.00     0.105 A 
HETATM    2  C5  UNL     1      26.730   3.198  50.601  1.00  0.00     0.076 A 
HETATM    3  C6  UNL     1      26.672   4.093  49.557  1.00  0.00     0.068 A 
HETATM    4  C7  UNL     1      25.443   4.514  49.069  1.00  0.00     0.039 A 
HETATM    5  C8  UNL     1      24.339   3.979  49.697  1.00  0.00     0.042 A 
HETATM    6  C9  UNL     1      24.321   3.087  50.739  1.00  0.00     0.102 A 
ENDROOT
BRANCH   1   7
HETATM    7  O1  UNL     1      25.695   1.814  52.223  1.00  0.00    -0.344 OA
BRANCH   7   8
HETATM    8  C3  UNL     1      26.144   1.960  53.513  1.00  0.00     0.211 C 
BRANCH   8   9
HETATM    9  C2  UNL     1      27.563   1.641  53.773  1.00  0.00    -0.037 C 
HETATM   10  C1  UNL     1      28.663   2.380  53.694  1.00  0.00     0.018 C 
BRANCH   9  11
HETATM   11  C17 UNL     1      27.628   0.242  54.177  1.00  0.00     0.307 C 
BRANCH  11  12
HETATM   12  N1  UNL     1      28.037  -0.673  53.159  1.00  0.00     0.083 N 
HETATM   13  C18 UNL     1      29.266  -1.365  53.404  1.00  0.00     0.309 C 
HETATM   14  C19 UNL     1      27.002  -1.589  52.753  1.00  0.00     0.309 C 
ENDBRANCH  11  12
ENDBRANCH   9  11
ENDBRANCH   8   9
ENDBRANCH   7   8
ENDBRANCH   1   7
BRANCH   6  15
HETATM   15  O3  UNL     1      23.305   2.523  51.402  1.00  0.00    -0.344 OA
BRANCH  15  16
HETATM   16  C10 UNL     1      22.533   1.402  51.244  1.00  0.00     0.214 C 
BRANCH  16  17
HETATM   17  C11 UNL     1      22.327   0.610  52.476  1.00  0.00    -0.034 A 
HETATM   18  C12 UNL     1      21.135   0.859  53.171  1.00  0.00     0.009 A 
HETATM   19  C13 UNL     1      20.731   0.267  54.341  1.00  0.00     0.001 A 
HETATM   20  C14 UNL     1      21.574  -0.674  54.906  1.00  0.00     0.000 A 
HETATM   21  C15 UNL     1      22.758  -0.953  54.261  1.00  0.00     0.001 A 
HETATM   22  C16 UNL     1      23.127  -0.336  53.089  1.00  0.00     0.009 A 
ENDBRANCH  16  17
ENDBRANCH  15  16
ENDBRANCH   6  15
BRANCH   3  23
HETATM   23  O2  UNL     1      27.795   4.636  48.920  1.00  0.00    -0.361 OA
HETATM   24  H6  UNL     1      28.108   5.571  49.106  1.00  0.00     0.217 HD
ENDBRANCH   3  23
TORSDOF 9
ENDMDL
MODEL 2
REMARK VINA RESULT:      -7.2      1.466      5.309
REMARK  9 active torsions:
REMARK  status: ('A' for Active; 'I' for Inactive)
REMARK    1  A    between atoms: C2_2  and  C3_3 
REMARK    2  A    between atoms: C2_2  and  C17_20 
REMARK    3  A    between atoms: C3_3  and  O1_4 
REMARK    4  A    between atoms: O1_4  and  C4_5 
REMARK    5  A    between atoms: C6_7  and  O2_8 
REMARK    6  A    between atoms: C9_11  and  O3_12 
REMARK    7  A    between atoms: O3_12  and  C10_13 
REMARK    8  A    between atoms: C10_13  and  C11_14 
REMARK    9  A    between atoms: C17_20  and  N1_21 
ROOT
HETATM    1  C4  UNL     1      23.865   0.422  52.990  1.00  0.00     0.105 A 
HETATM    2  C5  UNL     1      23.549  -0.471  53.990  1.00  0.00     0.076 A 
HETATM    3  C6  UNL     1      22.274  -0.970  54.134  1.00  0.00     0.068 A 
HETATM    4  C7  UNL     1      21.271  -0.577  53.261  1.00  0.00     0.039 A 
HETATM    5  C8  UNL     1      21.649   0.316  52.283  1.00  0.00     0.042 A 
HETATM    6  C9  UNL     1      22.895   0.854  52.080  1.00  0.00     0.102 A 
ENDROOT
BRANCH   1   7
HETATM    7  O1  UNL     1      25.144   0.890  52.886  1.00  0.00    -0.344 OA
BRANCH   7   8
HETATM    8  C3  UNL     1      25.894   1.700  53.702  1.00  0.00     0.211 C 
BRANCH   8   9
HETATM    9  C2  UNL     1      27.359   1.514  53.676  1.00  0.00    -0.037 C 
HETATM   10  C1  UNL     1      28.346   2.324  53.314  1.00  0.00     0.018 C 
BRANCH   9  11
HETATM   11  C17 UNL     1      27.636   0.164  54.152  1.00  0.00     0.307 C 
BRANCH  11  12
HETATM   12  N1  UNL     1      28.172  -0.733  53.178  1.00  0.00     0.083 N 
HETATM   13  C18 UNL     1      29.466  -1.269  53.476  1.00  0.00     0.309 C 
HETATM   14  C19 UNL     1      27.260  -1.775  52.785  1.00  0.00     0.309 C 
ENDBRANCH  11  12
ENDBRANCH   9  11
ENDBRANCH   8   9
ENDBRANCH   7   8
ENDBRANCH   1   7
BRANCH   6  15
HETATM   15  O3  UNL     1      23.345   1.719  51.164  1.00  0.00    -0.344 OA
BRANCH  15  16
HETATM   16  C10 UNL     1      23.391   3.084  51.042  1.00  0.00     0.214 C 
BRANCH  16  17
HETATM   17  C11 UNL     1      24.601   3.607  50.370  1.00  0.00    -0.034 A 
HETATM   18  C12 UNL     1      24.482   4.885  49.806  1.00  0.00     0.009 A 
HETATM   19  C13 UNL     1      25.453   5.570  49.120  1.00  0.00     0.001 A 
HETATM   20  C14 UNL     1      26.681   4.951  48.961  1.00  0.00     0.000 A 
HETATM   21  C15 UNL     1      26.847   3.693  49.496  1.00  0.00     0.001 A 
HETATM   22  C16 UNL     1      25.846   3.040  50.177  1.00  0.00     0.009 A 
ENDBRANCH  16  17
ENDBRANCH  15  16
ENDBRANCH   6  15
BRANCH   3  23
HETATM   23  O2  UNL     1      21.891  -1.879  55.129  1.00  0.00    -0.361 OA
HETATM   24  H6  UNL     1      21.667  -2.834  54.915  1.00  0.00     0.217 HD
ENDBRANCH   3  23
TORSDOF 9
ENDMDL
MODEL 3
REMARK VINA RESULT:      -7.2      1.585      5.599
REMARK  9 active torsions:
REMARK  status: ('A' for Active; 'I' for Inactive)
REMARK    1  A    between atoms: C2_2  and  C3_3 
REMARK    2  A    between atoms: C2_2  and  C17_20 
REMARK    3  A    between atoms: C3_3  and  O1_4 
REMARK    4  A    between atoms: O1_4  and  C4_5 
REMARK    5  A    between atoms: C6_7  and  O2_8 
REMARK    6  A    between atoms: C9_11  and  O3_12 
REMARK    7  A    between atoms: O3_12  and  C10_13 
REMARK    8  A    between atoms: C10_13  and  C11_14 
REMARK    9  A    between atoms: C17_20  and  N1_21 
ROOT
HETATM    1  C4  UNL     1      23.555   0.671  53.148  1.00  0.00     0.105 A 
HETATM    2  C5  UNL     1      23.062  -0.290  54.003  1.00  0.00     0.076 A 
HETATM    3  C6  UNL     1      21.709  -0.490  54.160  1.00  0.00     0.068 A 
HETATM    4  C7  UNL     1      20.805   0.285  53.449  1.00  0.00     0.039 A 
HETATM    5  C8  UNL     1      21.359   1.228  52.611  1.00  0.00     0.042 A 
HETATM    6  C9  UNL     1      22.691   1.482  52.405  1.00  0.00     0.102 A 
ENDROOT
BRANCH   1   7
HETATM    7  O1  UNL     1      24.906   0.832  53.025  1.00  0.00    -0.344 OA
BRANCH   7   8
HETATM    8  C3  UNL     1      25.829   0.241  52.197  1.00  0.00     0.211 C 
BRANCH   8   9
HETATM    9  C2  UNL     1      26.739  -0.752  52.803  1.00  0.00    -0.037 C 
HETATM   10  C1  UNL     1      26.920  -2.045  52.565  1.00  0.00     0.018 C 
BRANCH   9  11
HETATM   11  C17 UNL     1      27.517  -0.063  53.826  1.00  0.00     0.307 C 
BRANCH  11  12
HETATM   12  N1  UNL     1      28.660   0.652  53.351  1.00  0.00     0.083 N 
HETATM   13  C18 UNL     1      28.725   2.033  53.722  1.00  0.00     0.309 C 
HETATM   14  C19 UNL     1      29.910  -0.012  53.615  1.00  0.00     0.309 C 
ENDBRANCH  11  12
ENDBRANCH   9  11
ENDBRANCH   8   9
ENDBRANCH   7   8
ENDBRANCH   1   7
BRANCH   6  15
HETATM   15  O3  UNL     1      23.310   2.370  51.617  1.00  0.00    -0.344 OA
BRANCH  15  16
HETATM   16  C10 UNL     1      23.419   2.572  50.266  1.00  0.00     0.214 C 
BRANCH  16  17
HETATM   17  C11 UNL     1      24.576   3.397  49.854  1.00  0.00    -0.034 A 
HETATM   18  C12 UNL     1      24.271   4.667  49.345  1.00  0.00     0.009 A 
HETATM   19  C13 UNL     1      25.164   5.601  48.884  1.00  0.00     0.001 A 
HETATM   20  C14 UNL     1      26.508   5.272  48.920  1.00  0.00     0.000 A 
HETATM   21  C15 UNL     1      26.859   4.035  49.411  1.00  0.00     0.001 A 
HETATM   22  C16 UNL     1      25.931   3.126  49.863  1.00  0.00     0.009 A 
ENDBRANCH  16  17
ENDBRANCH  15  16
ENDBRANCH   6  15
BRANCH   3  23
HETATM   23  O2  UNL     1      21.148  -1.449  55.012  1.00  0.00    -0.361 OA
HETATM   24  H6  UNL     1      20.161  -1.634  55.023  1.00  0.00     0.217 HD
ENDBRANCH   3  23
TORSDOF 9
ENDMDL
MODEL 4
REMARK VINA RESULT:      -7.1      2.144      4.947
REMARK  9 active torsions:
REMARK  status: ('A' for Active; 'I' for Inactive)
REMARK    1  A    between atoms: C2_2  and  C3_3 
REMARK    2  A    between atoms: C2_2  and  C17_20 
REMARK    3  A    between atoms: C3_3  and  O1_4 
REMARK    4  A    between atoms: O1_4  and  C4_5 
REMARK    5  A    between atoms: C6_7  and  O2_8 
REMARK    6  A    between atoms: C9_11  and  O3_12 
REMARK    7  A    between atoms: O3_12  and  C10_13 
REMARK    8  A    between atoms: C10_13  and  C11_14 
REMARK    9  A    between atoms: C17_20  and  N1_21 
ROOT
HETATM    1  C4  UNL     1      27.149   1.791  52.926  1.00  0.00     0.105 A 
HETATM    2  C5  UNL     1      28.244   2.463  53.421  1.00  0.00     0.076 A 
HETATM    3  C6  UNL     1      29.078   1.892  54.356  1.00  0.00     0.068 A 
HETATM    4  C7  UNL     1      28.825   0.611  54.823  1.00  0.00     0.039 A 
HETATM    5  C8  UNL     1      27.715  -0.008  54.290  1.00  0.00     0.042 A 
HETATM    6  C9  UNL     1      26.843   0.498  53.359  1.00  0.00     0.102 A 
ENDROOT
BRANCH   1   7
HETATM    7  O1  UNL     1      26.351   2.399  51.999  1.00  0.00    -0.344 OA
BRANCH   7   8
HETATM    8  C3  UNL     1      26.582   2.788  50.702  1.00  0.00     0.211 C 
BRANCH   8   9
HETATM    9  C2  UNL     1      25.591   3.690  50.081  1.00  0.00    -0.037 C 
HETATM   10  C1  UNL     1      25.733   4.784  49.343  1.00  0.00     0.018 C 
BRANCH   9  11
HETATM   11  C17 UNL     1      24.267   3.181  50.417  1.00  0.00     0.307 C 
BRANCH  11  12
HETATM   12  N1  UNL     1      23.343   4.151  50.914  1.00  0.00     0.083 N 
HETATM   13  C18 UNL     1      21.974   3.948  50.547  1.00  0.00     0.309 C 
HETATM   14  C19 UNL     1      23.467   4.399  52.327  1.00  0.00     0.309 C 
ENDBRANCH  11  12
ENDBRANCH   9  11
ENDBRANCH   8   9
ENDBRANCH   7   8
ENDBRANCH   1   7
BRANCH   6  15
HETATM   15  O3  UNL     1      25.751  -0.030  52.792  1.00  0.00    -0.344 OA
BRANCH  15  16
HETATM   16  C10 UNL     1      24.782  -0.921  53.173  1.00  0.00     0.214 C 
BRANCH  16  17
HETATM   17  C11 UNL     1      23.440  -0.332  53.369  1.00  0.00    -0.034 A 
HETATM   18  C12 UNL     1      22.667  -0.896  54.393  1.00  0.00     0.009 A 
HETATM   19  C13 UNL     1      21.393  -0.534  54.751  1.00  0.00     0.001 A 
HETATM   20  C14 UNL     1      20.795   0.491  54.040  1.00  0.00     0.000 A 
HETATM   21  C15 UNL     1      21.514   1.078  53.022  1.00  0.00     0.001 A 
HETATM   22  C16 UNL     1      22.790   0.685  52.694  1.00  0.00     0.009 A 
ENDBRANCH  16  17
ENDBRANCH  15  16
ENDBRANCH   6  15
BRANCH   3  23
HETATM   23  O2  UNL     1      30.206   2.522  54.897  1.00  0.00    -0.361 OA
HETATM   24  H6  UNL     1      30.794   2.067  55.571  1.00  0.00     0.217 HD
ENDBRANCH   3  23
TORSDOF 9
ENDMDL
MODEL 5
REMARK VINA RESULT:      -7.0      2.104      4.864
REMARK  9 active torsions:
REMARK  status: ('A' for Active; 'I' for Inactive)
REMARK    1  A    between atoms: C2_2  and  C3_3 
REMARK    2  A    between atoms: C2_2  and  C17_20 
REMARK    3  A    between atoms: C3_3  and  O1_4 
REMARK    4  A    between atoms: O1_4  and  C4_5 
REMARK    5  A    between atoms: C6_7  and  O2_8 
REMARK    6  A    between atoms: C9_11  and  O3_12 
REMARK    7  A    between atoms: O3_12  and  C10_13 
REMARK    8  A    between atoms: C10_13  and  C11_14 
REMARK    9  A    between atoms: C17_20  and  N1_21 
ROOT
HETATM    1  C4  UNL     1      26.380   1.438  53.406  1.00  0.00     0.105 A 
HETATM    2  C5  UNL     1      27.495   2.241  53.501  1.00  0.00     0.076 A 
HETATM    3  C6  UNL     1      28.651   1.800  54.103  1.00  0.00     0.068 A 
HETATM    4  C7  UNL     1      28.714   0.519  54.634  1.00  0.00     0.039 A 
HETATM    5  C8  UNL     1      27.568  -0.234  54.508  1.00  0.00     0.042 A 
HETATM    6  C9  UNL     1      26.384   0.139  53.923  1.00  0.00     0.102 A 
ENDROOT
BRANCH   1   7
HETATM    7  O1  UNL     1      25.255   1.920  52.799  1.00  0.00    -0.344 OA
BRANCH   7   8
HETATM    8  C3  UNL     1      24.417   2.962  53.112  1.00  0.00     0.211 C 
BRANCH   8   9
HETATM    9  C2  UNL     1      23.426   3.360  52.092  1.00  0.00    -0.037 C 
HETATM   10  C1  UNL     1      22.169   3.775  52.196  1.00  0.00     0.018 C 
BRANCH   9  11
HETATM   11  C17 UNL     1      24.064   3.228  50.788  1.00  0.00     0.307 C 
BRANCH  11  12
HETATM   12  N1  UNL     1      25.015   4.245  50.464  1.00  0.00     0.083 N 
HETATM   13  C18 UNL     1      26.271   3.781  49.957  1.00  0.00     0.309 C 
HETATM   14  C19 UNL     1      24.482   5.296  49.637  1.00  0.00     0.309 C 
ENDBRANCH  11  12
ENDBRANCH   9  11
ENDBRANCH   8   9
ENDBRANCH   7   8
ENDBRANCH   1   7
BRANCH   6  15
HETATM   15  O3  UNL     1      25.232  -0.524  53.758  1.00  0.00    -0.344 OA
BRANCH  15  16
HETATM   16  C10 UNL     1      24.187  -0.890  54.566  1.00  0.00     0.214 C 
BRANCH  16  17
HETATM   17  C11 UNL     1      22.851  -0.499  54.067  1.00  0.00    -0.034 A 
HETATM   18  C12 UNL     1      22.744  -0.321  52.681  1.00  0.00     0.009 A 
HETATM   19  C13 UNL     1      21.620   0.055  51.988  1.00  0.00     0.001 A 
HETATM   20  C14 UNL     1      20.467   0.285  52.717  1.00  0.00     0.000 A 
HETATM   21  C15 UNL     1      20.521   0.125  54.084  1.00  0.00     0.001 A 
HETATM   22  C16 UNL     1      21.669  -0.253  54.740  1.00  0.00     0.009 A 
ENDBRANCH  16  17
ENDBRANCH  15  16
ENDBRANCH   6  15
BRANCH   3  23
HETATM   23  O2  UNL     1      29.816   2.566  54.231  1.00  0.00    -0.361 OA
HETATM   24  H6  UNL     1      30.730   2.159  54.145  1.00  0.00     0.217 HD
ENDBRANCH   3  23
TORSDOF 9
ENDMDL
MODEL 6
REMARK VINA RESULT:      -6.8      2.247      6.493
REMARK  9 active torsions:
REMARK  status: ('A' for Active; 'I' for Inactive)
REMARK    1  A    between atoms: C2_2  and  C3_3 
REMARK    2  A    between atoms: C2_2  and  C17_20 
REMARK    3  A    between atoms: C3_3  and  O1_4 
REMARK    4  A    between atoms: O1_4  and  C4_5 
REMARK    5  A    between atoms: C6_7  and  O2_8 
REMARK    6  A    between atoms: C9_11  and  O3_12 
REMARK    7  A    between atoms: O3_12  and  C10_13 
REMARK    8  A    between atoms: C10_13  and  C11_14 
REMARK    9  A    between atoms: C17_20  and  N1_21 
ROOT
HETATM    1  C4  UNL     1      25.549   0.955  53.387  1.00  0.00     0.105 A 
HETATM    2  C5  UNL     1      26.407   0.129  54.078  1.00  0.00     0.076 A 
HETATM    3  C6  UNL     1      27.763   0.360  54.106  1.00  0.00     0.068 A 
HETATM    4  C7  UNL     1      28.298   1.444  53.426  1.00  0.00     0.039 A 
HETATM    5  C8  UNL     1      27.389   2.232  52.754  1.00  0.00     0.042 A 
HETATM    6  C9  UNL     1      26.030   2.063  52.683  1.00  0.00     0.102 A 
ENDROOT
BRANCH   1   7
HETATM    7  O1  UNL     1      24.209   0.686  53.389  1.00  0.00    -0.344 OA
BRANCH   7   8
HETATM    8  C3  UNL     1      23.509  -0.489  53.516  1.00  0.00     0.211 C 
BRANCH   8   9
HETATM    9  C2  UNL     1      22.035  -0.405  53.459  1.00  0.00    -0.037 C 
HETATM   10  C1  UNL     1      21.098  -0.728  54.341  1.00  0.00     0.018 C 
BRANCH   9  11
HETATM   11  C17 UNL     1      21.679   0.143  52.156  1.00  0.00     0.307 C 
BRANCH  11  12
HETATM   12  N1  UNL     1      20.658   1.143  52.168  1.00  0.00     0.083 N 
HETATM   13  C18 UNL     1      21.108   2.486  52.377  1.00  0.00     0.309 C 
HETATM   14  C19 UNL     1      19.760   1.069  51.046  1.00  0.00     0.309 C 
ENDBRANCH  11  12
ENDBRANCH   9  11
ENDBRANCH   8   9
ENDBRANCH   7   8
ENDBRANCH   1   7
BRANCH   6  15
HETATM   15  O3  UNL     1      25.082   2.774  52.060  1.00  0.00    -0.344 OA
BRANCH  15  16
HETATM   16  C10 UNL     1      24.718   2.992  50.757  1.00  0.00     0.214 C 
BRANCH  16  17
HETATM   17  C11 UNL     1      25.609   3.904  50.007  1.00  0.00    -0.034 A 
HETATM   18  C12 UNL     1      25.155   5.222  49.863  1.00  0.00     0.009 A 
HETATM   19  C13 UNL     1      25.792   6.240  49.199  1.00  0.00     0.001 A 
HETATM   20  C14 UNL     1      27.009   5.952  48.605  1.00  0.00     0.000 A 
HETATM   21  C15 UNL     1      27.498   4.670  48.718  1.00  0.00     0.001 A 
HETATM   22  C16 UNL     1      26.826   3.677  49.392  1.00  0.00     0.009 A 
ENDBRANCH  16  17
ENDBRANCH  15  16
ENDBRANCH   6  15
BRANCH   3  23
HETATM   23  O2  UNL     1      28.686  -0.442  54.789  1.00  0.00    -0.361 OA
HETATM   24  H6  UNL     1      28.571  -1.437  54.862  1.00  0.00     0.217 HD
ENDBRANCH   3  23
TORSDOF 9
ENDMDL
MODEL 7
REMARK VINA RESULT:      -6.7      2.356      6.659
REMARK  9 active torsions:
REMARK  status: ('A' for Active; 'I' for Inactive)
REMARK    1  A    between atoms: C2_2  and  C3_3 
REMARK    2  A    between atoms: C2_2  and  C17_20 
REMARK    3  A    between atoms: C3_3  and  O1_4 
REMARK    4  A    between atoms: O1_4  and  C4_5 
REMARK    5  A    between atoms: C6_7  and  O2_8 
REMARK    6  A    between atoms: C9_11  and  O3_12 
REMARK    7  A    between atoms: O3_12  and  C10_13 
REMARK    8  A    between atoms: C10_13  and  C11_14 
REMARK    9  A    between atoms: C17_20  and  N1_21 
ROOT
HETATM    1  C4  UNL     1      22.215   1.031  53.098  1.00  0.00     0.105 A 
HETATM    2  C5  UNL     1      20.922   0.594  53.281  1.00  0.00     0.076 A 
HETATM    3  C6  UNL     1      20.648  -0.625  53.859  1.00  0.00     0.068 A 
HETATM    4  C7  UNL     1      21.686  -1.447  54.272  1.00  0.00     0.039 A 
HETATM    5  C8  UNL     1      22.955  -0.955  54.062  1.00  0.00     0.042 A 
HETATM    6  C9  UNL     1      23.302   0.246  53.494  1.00  0.00     0.102 A 
ENDROOT
BRANCH   1   7
HETATM    7  O1  UNL     1      22.438   2.249  52.521  1.00  0.00    -0.344 OA
BRANCH   7   8
HETATM    8  C3  UNL     1      21.774   2.930  51.529  1.00  0.00     0.211 C 
BRANCH   8   9
HETATM    9  C2  UNL     1      22.163   2.637  50.134  1.00  0.00    -0.037 C 
HETATM   10  C1  UNL     1      21.967   1.571  49.368  1.00  0.00     0.018 C 
BRANCH   9  11
HETATM   11  C17 UNL     1      22.882   3.799  49.629  1.00  0.00     0.307 C 
BRANCH  11  12
HETATM   12  N1  UNL     1      24.132   4.074  50.266  1.00  0.00     0.083 N 
HETATM   13  C18 UNL     1      25.282   3.471  49.662  1.00  0.00     0.309 C 
HETATM   14  C19 UNL     1      24.357   5.473  50.521  1.00  0.00     0.309 C 
ENDBRANCH  11  12
ENDBRANCH   9  11
ENDBRANCH   8   9
ENDBRANCH   7   8
ENDBRANCH   1   7
BRANCH   6  15
HETATM   15  O3  UNL     1      24.498   0.798  53.255  1.00  0.00    -0.344 OA
BRANCH  15  16
HETATM   16  C10 UNL     1      25.436   0.711  52.260  1.00  0.00     0.214 C 
BRANCH  16  17
HETATM   17  C11 UNL     1      26.671  -0.014  52.633  1.00  0.00    -0.034 A 
HETATM   18  C12 UNL     1      26.634  -1.406  52.476  1.00  0.00     0.009 A 
HETATM   19  C13 UNL     1      27.642  -2.290  52.768  1.00  0.00     0.001 A 
HETATM   20  C14 UNL     1      28.823  -1.770  53.270  1.00  0.00     0.000 A 
HETATM   21  C15 UNL     1      28.908  -0.407  53.443  1.00  0.00     0.001 A 
HETATM   22  C16 UNL     1      27.873   0.445  53.138  1.00  0.00     0.009 A 
ENDBRANCH  16  17
ENDBRANCH  15  16
ENDBRANCH   6  15
BRANCH   3  23
HETATM   23  O2  UNL     1      19.357  -1.124  54.072  1.00  0.00    -0.361 OA
HETATM   24  H6  UNL     1      19.193  -2.090  54.291  1.00  0.00     0.217 HD
ENDBRANCH   3  23
TORSDOF 9
ENDMDL
MODEL 8
REMARK VINA RESULT:      -6.6      1.521      2.537
REMARK  9 active torsions:
REMARK  status: ('A' for Active; 'I' for Inactive)
REMARK    1  A    between atoms: C2_2  and  C3_3 
REMARK    2  A    between atoms: C2_2  and  C17_20 
REMARK    3  A    between atoms: C3_3  and  O1_4 
REMARK    4  A    between atoms: O1_4  and  C4_5 
REMARK    5  A    between atoms: C6_7  and  O2_8 
REMARK    6  A    between atoms: C9_11  and  O3_12 
REMARK    7  A    between atoms: O3_12  and  C10_13 
REMARK    8  A    between atoms: C10_13  and  C11_14 
REMARK    9  A    between atoms: C17_20  and  N1_21 
ROOT
HETATM    1  C4  UNL     1      25.394   3.653  50.786  1.00  0.00     0.105 A 
HETATM    2  C5  UNL     1      26.583   3.583  50.094  1.00  0.00     0.076 A 
HETATM    3  C6  UNL     1      26.949   4.555  49.190  1.00  0.00     0.068 A 
HETATM    4  C7  UNL     1      26.113   5.636  48.956  1.00  0.00     0.039 A 
HETATM    5  C8  UNL     1      24.940   5.649  49.677  1.00  0.00     0.042 A 
HETATM    6  C9  UNL     1      24.511   4.719  50.591  1.00  0.00     0.102 A 
ENDROOT
BRANCH   1   7
HETATM    7  O1  UNL     1      25.074   2.665  51.674  1.00  0.00    -0.344 OA
BRANCH   7   8
HETATM    8  C3  UNL     1      25.091   1.296  51.569  1.00  0.00     0.211 C 
BRANCH   8   9
HETATM    9  C2  UNL     1      25.464   0.532  52.776  1.00  0.00    -0.037 C 
HETATM   10  C1  UNL     1      24.731  -0.002  53.745  1.00  0.00     0.018 C 
BRANCH   9  11
HETATM   11  C17 UNL     1      26.917   0.416  52.787  1.00  0.00     0.307 C 
BRANCH  11  12
HETATM   12  N1  UNL     1      27.579   1.093  53.859  1.00  0.00     0.083 N 
HETATM   13  C18 UNL     1      28.423   0.278  54.679  1.00  0.00     0.309 C 
HETATM   14  C19 UNL     1      28.260   2.295  53.453  1.00  0.00     0.309 C 
ENDBRANCH  11  12
ENDBRANCH   9  11
ENDBRANCH   8   9
ENDBRANCH   7   8
ENDBRANCH   1   7
BRANCH   6  15
HETATM   15  O3  UNL     1      23.397   4.655  51.330  1.00  0.00    -0.344 OA
BRANCH  15  16
HETATM   16  C10 UNL     1      22.084   4.338  51.098  1.00  0.00     0.214 C 
BRANCH  16  17
HETATM   17  C11 UNL     1      21.781   2.891  51.125  1.00  0.00    -0.034 A 
HETATM   18  C12 UNL     1      21.576   2.332  52.394  1.00  0.00     0.009 A 
HETATM   19  C13 UNL     1      21.301   1.018  52.675  1.00  0.00     0.001 A 
HETATM   20  C14 UNL     1      21.211   0.141  51.608  1.00  0.00     0.000 A 
HETATM   21  C15 UNL     1      21.405   0.642  50.340  1.00  0.00     0.001 A 
HETATM   22  C16 UNL     1      21.680   1.967  50.101  1.00  0.00     0.009 A 
ENDBRANCH  16  17
ENDBRANCH  15  16
ENDBRANCH   6  15
BRANCH   3  23
HETATM   23  O2  UNL     1      28.143   4.541  48.458  1.00  0.00    -0.361 OA
HETATM   24  H6  UNL     1      28.444   5.334  47.921  1.00  0.00     0.217 HD
ENDBRANCH   3  23
TORSDOF 9
ENDMDL
MODEL 9
REMARK VINA RESULT:      -6.6      2.417      5.137
REMARK  9 active torsions:
REMARK  status: ('A' for Active; 'I' for Inactive)
REMARK    1  A    between atoms: C2_2  and  C3_3 
REMARK    2  A    between atoms: C2_2  and  C17_20 
REMARK    3  A    between atoms: C3_3  and  O1_4 
REMARK    4  A    between atoms: O1_4  and  C4_5 
REMARK    5  A    between atoms: C6_7  and  O2_8 
REMARK    6  A    between atoms: C9_11  and  O3_12 
REMARK    7  A    between atoms: O3_12  and  C10_13 
REMARK    8  A    between atoms: C10_13  and  C11_14 
REMARK    9  A    between atoms: C17_20  and  N1_21 
ROOT
HETATM    1  C4  UNL     1      26.680   1.779  52.351  1.00  0.00     0.105 A 
HETATM    2  C5  UNL     1      27.996   1.833  52.753  1.00  0.00     0.076 A 
HETATM    3  C6  UNL     1      28.579   0.802  53.455  1.00  0.00     0.068 A 
HETATM    4  C7  UNL     1      27.837  -0.326  53.776  1.00  0.00     0.039 A 
HETATM    5  C8  UNL     1      26.528  -0.320  53.347  1.00  0.00     0.042 A 
HETATM    6  C9  UNL     1      25.884   0.668  52.646  1.00  0.00     0.102 A 
ENDROOT
BRANCH   1   7
HETATM    7  O1  UNL     1      26.147   2.827  51.655  1.00  0.00    -0.344 OA
BRANCH   7   8
HETATM    8  C3  UNL     1      26.418   3.333  50.408  1.00  0.00     0.211 C 
BRANCH   8   9
HETATM    9  C2  UNL     1      25.272   3.824  49.615  1.00  0.00    -0.037 C 
HETATM   10  C1  UNL     1      24.073   3.305  49.380  1.00  0.00     0.018 C 
BRANCH   9  11
HETATM   11  C17 UNL     1      25.655   5.110  49.045  1.00  0.00     0.307 C 
BRANCH  11  12
HETATM   12  N1  UNL     1      24.759   6.191  49.310  1.00  0.00     0.083 N 
HETATM   13  C18 UNL     1      25.075   6.993  50.453  1.00  0.00     0.309 C 
HETATM   14  C19 UNL     1      24.489   7.015  48.161  1.00  0.00     0.309 C 
ENDBRANCH  11  12
ENDBRANCH   9  11
ENDBRANCH   8   9
ENDBRANCH   7   8
ENDBRANCH   1   7
BRANCH   6  15
HETATM   15  O3  UNL     1      24.627   0.754  52.192  1.00  0.00    -0.344 OA
BRANCH  15  16
HETATM   16  C10 UNL     1      23.440   1.233  52.681  1.00  0.00     0.214 C 
BRANCH  16  17
HETATM   17  C11 UNL     1      22.550   0.207  53.266  1.00  0.00    -0.034 A 
HETATM   18  C12 UNL     1      21.194   0.305  52.923  1.00  0.00     0.009 A 
HETATM   19  C13 UNL     1      20.180  -0.514  53.351  1.00  0.00     0.001 A 
HETATM   20  C14 UNL     1      20.513  -1.548  54.208  1.00  0.00     0.000 A 
HETATM   21  C15 UNL     1      21.832  -1.687  54.575  1.00  0.00     0.001 A 
HETATM   22  C16 UNL     1      22.820  -0.843  54.124  1.00  0.00     0.009 A 
ENDBRANCH  16  17
ENDBRANCH  15  16
ENDBRANCH   6  15
BRANCH   3  23
HETATM   23  O2  UNL     1      29.909   0.797  53.891  1.00  0.00    -0.361 OA
HETATM   24  H6  UNL     1      30.310   1.579  54.376  1.00  0.00     0.217 HD
ENDBRANCH   3  23
TORSDOF 9
ENDMDL
