MODEL 1
REMARK VINA RESULT:      -8.8      0.000      0.000
REMARK  4 active torsions:
REMARK  status: ('A' for Active; 'I' for Inactive)
REMARK    1  A    between atoms: C3_3  and  C4_4 
REMARK    2  A    between atoms: C4_4  and  C5_5 
REMARK    3  A    between atoms: C7_8  and  C8_9 
REMARK    4  A    between atoms: C20_25  and  S1_26 
ROOT
HETATM    1  C8  UNL     1      24.246   1.200  51.689  1.00  0.00     0.180 C 
HETATM    2  N1  UNL     1      25.661   1.149  51.889  1.00  0.00    -0.269 NA
HETATM    3  C9  UNL     1      26.448   1.983  51.336  1.00  0.00     0.223 C 
HETATM    4  N2  UNL     1      25.950   2.972  50.525  1.00  0.00    -0.265 NA
HETATM    5  C10 UNL     1      26.424   3.878  49.787  1.00  0.00     0.110 C 
HETATM    6  C11 UNL     1      26.772   5.010  48.865  1.00  0.00     0.045 C 
HETATM    7  C12 UNL     1      26.164   6.171  49.667  1.00  0.00     0.039 C 
HETATM    8  C13 UNL     1      24.920   5.516  50.265  1.00  0.00    -0.057 C 
HETATM    9  C14 UNL     1      24.968   4.291  49.642  1.00  0.00    -0.040 C 
HETATM   10  C15 UNL     1      23.879   3.455  48.978  1.00  0.00     0.065 C 
HETATM   11  C16 UNL     1      23.233   2.721  50.145  1.00  0.00    -0.007 C 
HETATM   12  C17 UNL     1      23.804   2.566  51.384  1.00  0.00     0.035 C 
HETATM   13  C18 UNL     1      24.021   3.618  52.367  1.00  0.00     0.250 C 
HETATM   14  O2  UNL     1      24.519   2.985  53.362  1.00  0.00    -0.268 OA
HETATM   15  N3  UNL     1      23.812   5.053  52.432  1.00  0.00    -0.353 N 
HETATM   16  C19 UNL     1      23.869   5.967  51.263  1.00  0.00     0.157 C 
HETATM   17  H18 UNL     1      23.644   5.250  53.438  1.00  0.00     0.163 HD
ENDROOT
BRANCH   1  18
HETATM   18  C7  UNL     1      23.429   0.463  52.680  1.00  0.00    -0.007 A 
HETATM   19  C6  UNL     1      23.681  -0.040  54.041  1.00  0.00     0.214 A 
HETATM   20  O1  UNL     1      22.528  -0.679  54.510  1.00  0.00    -0.345 OA
HETATM   21  C5  UNL     1      21.560  -0.625  53.563  1.00  0.00     0.086 A 
HETATM   22  C20 UNL     1      22.150   0.085  52.451  1.00  0.00     0.038 A 
BRANCH  21  23
HETATM   23  C4  UNL     1      20.384  -1.169  53.799  1.00  0.00     0.038 C 
BRANCH  23  24
HETATM   24  C3  UNL     1      19.068  -0.740  53.353  1.00  0.00    -0.002 C 
HETATM   25  C2  UNL     1      17.982  -1.491  53.296  1.00  0.00    -0.031 C 
HETATM   26  C1  UNL     1      17.729  -2.914  53.635  1.00  0.00     0.036 C 
ENDBRANCH  23  24
ENDBRANCH  21  23
BRANCH  22  27
HETATM   27  S1  UNL     1      21.188   0.386  50.944  1.00  0.00    -0.140 SA
HETATM   28  H21 UNL     1      20.318  -0.672  50.673  1.00  0.00     0.107 HD
ENDBRANCH  22  27
ENDBRANCH   1  18
TORSDOF 4
ENDMDL
MODEL 2
REMARK VINA RESULT:      -8.3      3.214      6.348
REMARK  4 active torsions:
REMARK  status: ('A' for Active; 'I' for Inactive)
REMARK    1  A    between atoms: C3_3  and  C4_4 
REMARK    2  A    between atoms: C4_4  and  C5_5 
REMARK    3  A    between atoms: C7_8  and  C8_9 
REMARK    4  A    between atoms: C20_25  and  S1_26 
ROOT
HETATM    1  C8  UNL     1      23.137   1.438  51.920  1.00  0.00     0.180 C 
HETATM    2  N1  UNL     1      22.924   2.687  52.582  1.00  0.00    -0.269 NA
HETATM    3  C9  UNL     1      21.850   3.354  52.428  1.00  0.00     0.223 C 
HETATM    4  N2  UNL     1      20.851   2.879  51.616  1.00  0.00    -0.265 NA
HETATM    5  C10 UNL     1      19.738   3.295  51.191  1.00  0.00     0.110 C 
HETATM    6  C11 UNL     1      18.400   3.590  50.579  1.00  0.00     0.045 C 
HETATM    7  C12 UNL     1      17.575   2.484  51.255  1.00  0.00     0.039 C 
HETATM    8  C13 UNL     1      18.584   1.338  51.316  1.00  0.00    -0.057 C 
HETATM    9  C14 UNL     1      19.625   1.895  50.609  1.00  0.00    -0.040 C 
HETATM   10  C15 UNL     1      20.528   1.318  49.524  1.00  0.00     0.065 C 
HETATM   11  C16 UNL     1      21.595   0.570  50.310  1.00  0.00    -0.007 C 
HETATM   12  C17 UNL     1      21.864   0.762  51.643  1.00  0.00     0.035 C 
HETATM   13  C18 UNL     1      21.003   0.387  52.754  1.00  0.00     0.250 C 
HETATM   14  O2  UNL     1      21.698   0.712  53.781  1.00  0.00    -0.268 OA
HETATM   15  N3  UNL     1      19.686  -0.205  52.910  1.00  0.00    -0.353 N 
HETATM   16  C19 UNL     1      18.571  -0.044  51.942  1.00  0.00     0.157 C 
HETATM   17  H18 UNL     1      19.730  -0.713  53.814  1.00  0.00     0.163 HD
ENDROOT
BRANCH   1  18
HETATM   18  C7  UNL     1      24.210   0.587  52.483  1.00  0.00    -0.007 A 
HETATM   19  C6  UNL     1      24.225  -0.573  53.392  1.00  0.00     0.214 A 
HETATM   20  O1  UNL     1      25.549  -0.979  53.589  1.00  0.00    -0.345 OA
HETATM   21  C5  UNL     1      26.382  -0.176  52.882  1.00  0.00     0.086 A 
HETATM   22  C20 UNL     1      25.523   0.775  52.215  1.00  0.00     0.038 A 
BRANCH  21  23
HETATM   23  C4  UNL     1      27.682  -0.384  52.926  1.00  0.00     0.038 C 
BRANCH  23  24
HETATM   24  C3  UNL     1      28.624  -0.084  53.993  1.00  0.00    -0.002 C 
HETATM   25  C2  UNL     1      29.082   1.113  54.315  1.00  0.00    -0.031 C 
HETATM   26  C1  UNL     1      28.827   2.465  53.758  1.00  0.00     0.036 C 
ENDBRANCH  23  24
ENDBRANCH  21  23
BRANCH  22  27
HETATM   27  S1  UNL     1      26.233   2.056  51.146  1.00  0.00    -0.140 SA
HETATM   28  H21 UNL     1      27.562   2.323  51.481  1.00  0.00     0.107 HD
ENDBRANCH  22  27
ENDBRANCH   1  18
TORSDOF 4
ENDMDL
MODEL 3
REMARK VINA RESULT:      -8.3      2.218      7.416
REMARK  4 active torsions:
REMARK  status: ('A' for Active; 'I' for Inactive)
REMARK    1  A    between atoms: C3_3  and  C4_4 
REMARK    2  A    between atoms: C4_4  and  C5_5 
REMARK    3  A    between atoms: C7_8  and  C8_9 
REMARK    4  A    between atoms: C20_25  and  S1_26 
ROOT
HETATM    1  C8  UNL     1      22.208   3.734  51.069  1.00  0.00     0.180 C 
HETATM    2  N1  UNL     1      21.282   4.144  52.079  1.00  0.00    -0.269 NA
HETATM    3  C9  UNL     1      20.604   3.300  52.750  1.00  0.00     0.223 C 
HETATM    4  N2  UNL     1      20.750   1.956  52.520  1.00  0.00    -0.265 NA
HETATM    5  C10 UNL     1      20.206   0.892  52.925  1.00  0.00     0.110 C 
HETATM    6  C11 UNL     1      19.706  -0.481  53.270  1.00  0.00     0.045 C 
HETATM    7  C12 UNL     1      20.980  -1.047  53.916  1.00  0.00     0.039 C 
HETATM    8  C13 UNL     1      22.072  -0.402  53.064  1.00  0.00    -0.057 C 
HETATM    9  C14 UNL     1      21.300   0.219  52.111  1.00  0.00    -0.040 C 
HETATM   10  C15 UNL     1      21.445   0.305  50.596  1.00  0.00     0.065 C 
HETATM   11  C16 UNL     1      22.430   1.449  50.397  1.00  0.00    -0.007 C 
HETATM   12  C17 UNL     1      22.734   2.392  51.347  1.00  0.00     0.035 C 
HETATM   13  C18 UNL     1      23.485   2.165  52.573  1.00  0.00     0.250 C 
HETATM   14  O2  UNL     1      23.555   3.334  53.090  1.00  0.00    -0.268 OA
HETATM   15  N3  UNL     1      24.090   1.024  53.238  1.00  0.00    -0.353 N 
HETATM   16  C19 UNL     1      23.587  -0.370  53.143  1.00  0.00     0.157 C 
HETATM   17  H18 UNL     1      24.892   1.420  53.765  1.00  0.00     0.163 HD
ENDROOT
BRANCH   1  18
HETATM   18  C7  UNL     1      23.207   4.748  50.663  1.00  0.00    -0.007 A 
HETATM   19  C6  UNL     1      24.106   5.652  51.403  1.00  0.00     0.214 A 
HETATM   20  O1  UNL     1      24.841   6.411  50.487  1.00  0.00    -0.345 OA
HETATM   21  C5  UNL     1      24.489   6.068  49.223  1.00  0.00     0.086 A 
HETATM   22  C20 UNL     1      23.482   5.042  49.371  1.00  0.00     0.038 A 
BRANCH  21  23
HETATM   23  C4  UNL     1      25.065   6.665  48.200  1.00  0.00     0.038 C 
BRANCH  23  24
HETATM   24  C3  UNL     1      26.440   7.118  48.057  1.00  0.00    -0.002 C 
HETATM   25  C2  UNL     1      27.525   6.384  48.231  1.00  0.00    -0.031 C 
HETATM   26  C1  UNL     1      27.720   4.959  48.600  1.00  0.00     0.036 C 
ENDBRANCH  23  24
ENDBRANCH  21  23
BRANCH  22  27
HETATM   27  S1  UNL     1      22.723   4.288  47.908  1.00  0.00    -0.140 SA
HETATM   28  H21 UNL     1      22.031   5.233  47.146  1.00  0.00     0.107 HD
ENDBRANCH  22  27
ENDBRANCH   1  18
TORSDOF 4
ENDMDL
MODEL 4
REMARK VINA RESULT:      -8.2      2.980      5.146
REMARK  4 active torsions:
REMARK  status: ('A' for Active; 'I' for Inactive)
REMARK    1  A    between atoms: C3_3  and  C4_4 
REMARK    2  A    between atoms: C4_4  and  C5_5 
REMARK    3  A    between atoms: C7_8  and  C8_9 
REMARK    4  A    between atoms: C20_25  and  S1_26 
ROOT
HETATM    1  C8  UNL     1      23.764   2.812  51.805  1.00  0.00     0.180 C 
HETATM    2  N1  UNL     1      22.657   3.523  52.366  1.00  0.00    -0.269 NA
HETATM    3  C9  UNL     1      22.043   4.430  51.716  1.00  0.00     0.223 C 
HETATM    4  N2  UNL     1      22.430   4.749  50.440  1.00  0.00    -0.265 NA
HETATM    5  C10 UNL     1      22.113   5.609  49.573  1.00  0.00     0.110 C 
HETATM    6  C11 UNL     1      21.892   6.532  48.410  1.00  0.00     0.045 C 
HETATM    7  C12 UNL     1      21.397   5.508  47.378  1.00  0.00     0.039 C 
HETATM    8  C13 UNL     1      22.239   4.283  47.729  1.00  0.00    -0.057 C 
HETATM    9  C14 UNL     1      23.066   4.823  48.685  1.00  0.00    -0.040 C 
HETATM   10  C15 UNL     1      24.568   4.691  48.910  1.00  0.00     0.065 C 
HETATM   11  C16 UNL     1      24.699   3.385  49.680  1.00  0.00    -0.007 C 
HETATM   12  C17 UNL     1      23.672   2.760  50.341  1.00  0.00     0.035 C 
HETATM   13  C18 UNL     1      22.529   2.102  49.725  1.00  0.00     0.250 C 
HETATM   14  O2  UNL     1      21.890   1.631  50.730  1.00  0.00    -0.268 OA
HETATM   15  N3  UNL     1      22.036   1.899  48.374  1.00  0.00    -0.353 N 
HETATM   16  C19 UNL     1      22.254   2.843  47.248  1.00  0.00     0.157 C 
HETATM   17  H18 UNL     1      21.520   0.999  48.413  1.00  0.00     0.163 HD
ENDROOT
BRANCH   1  18
HETATM   18  C7  UNL     1      24.116   1.539  52.475  1.00  0.00    -0.007 A 
HETATM   19  C6  UNL     1      23.330   0.435  53.051  1.00  0.00     0.214 A 
HETATM   20  O1  UNL     1      24.206  -0.526  53.567  1.00  0.00    -0.345 OA
HETATM   21  C5  UNL     1      25.487  -0.129  53.368  1.00  0.00     0.086 A 
HETATM   22  C20 UNL     1      25.393   1.146  52.694  1.00  0.00     0.038 A 
BRANCH  21  23
HETATM   23  C4  UNL     1      26.479  -0.892  53.779  1.00  0.00     0.038 C 
BRANCH  23  24
HETATM   24  C3  UNL     1      27.423  -1.672  52.994  1.00  0.00    -0.002 C 
HETATM   25  C2  UNL     1      28.739  -1.558  53.019  1.00  0.00    -0.031 C 
HETATM   26  C1  UNL     1      29.652  -0.674  53.787  1.00  0.00     0.036 C 
ENDBRANCH  23  24
ENDBRANCH  21  23
BRANCH  22  27
HETATM   27  S1  UNL     1      26.895   2.049  52.230  1.00  0.00    -0.140 SA
HETATM   28  H21 UNL     1      26.661   3.424  52.151  1.00  0.00     0.107 HD
ENDBRANCH  22  27
ENDBRANCH   1  18
TORSDOF 4
ENDMDL
MODEL 5
REMARK VINA RESULT:      -8.2      2.040      2.741
REMARK  4 active torsions:
REMARK  status: ('A' for Active; 'I' for Inactive)
REMARK    1  A    between atoms: C3_3  and  C4_4 
REMARK    2  A    between atoms: C4_4  and  C5_5 
REMARK    3  A    between atoms: C7_8  and  C8_9 
REMARK    4  A    between atoms: C20_25  and  S1_26 
ROOT
HETATM    1  C8  UNL     1      23.150   3.480  50.700  1.00  0.00     0.180 C 
HETATM    2  N1  UNL     1      24.444   2.963  51.025  1.00  0.00    -0.269 NA
HETATM    3  C9  UNL     1      25.512   3.515  50.605  1.00  0.00     0.223 C 
HETATM    4  N2  UNL     1      25.447   4.641  49.824  1.00  0.00    -0.265 NA
HETATM    5  C10 UNL     1      26.264   5.370  49.196  1.00  0.00     0.110 C 
HETATM    6  C11 UNL     1      27.054   6.360  48.392  1.00  0.00     0.045 C 
HETATM    7  C12 UNL     1      26.767   7.625  49.214  1.00  0.00     0.039 C 
HETATM    8  C13 UNL     1      25.321   7.390  49.650  1.00  0.00    -0.057 C 
HETATM    9  C14 UNL     1      25.042   6.240  48.949  1.00  0.00    -0.040 C 
HETATM   10  C15 UNL     1      23.822   5.829  48.132  1.00  0.00     0.065 C 
HETATM   11  C16 UNL     1      22.852   5.303  49.182  1.00  0.00    -0.007 C 
HETATM   12  C17 UNL     1      23.205   4.925  50.453  1.00  0.00     0.035 C 
HETATM   13  C18 UNL     1      23.639   5.812  51.523  1.00  0.00     0.250 C 
HETATM   14  O2  UNL     1      23.797   5.015  52.513  1.00  0.00    -0.268 OA
HETATM   15  N3  UNL     1      23.895   7.234  51.669  1.00  0.00    -0.353 N 
HETATM   16  C19 UNL     1      24.368   8.122  50.576  1.00  0.00     0.157 C 
HETATM   17  H18 UNL     1      23.691   7.438  52.667  1.00  0.00     0.163 HD
ENDROOT
BRANCH   1  18
HETATM   18  C7  UNL     1      22.038   3.013  51.559  1.00  0.00    -0.007 A 
HETATM   19  C6  UNL     1      20.673   3.502  51.820  1.00  0.00     0.214 A 
HETATM   20  O1  UNL     1      20.055   2.654  52.745  1.00  0.00    -0.345 OA
HETATM   21  C5  UNL     1      20.911   1.663  53.097  1.00  0.00     0.086 A 
HETATM   22  C20 UNL     1      22.120   1.916  52.348  1.00  0.00     0.038 A 
BRANCH  21  23
HETATM   23  C4  UNL     1      20.529   0.747  53.963  1.00  0.00     0.038 C 
BRANCH  23  24
HETATM   24  C3  UNL     1      20.389  -0.689  53.778  1.00  0.00    -0.002 C 
HETATM   25  C2  UNL     1      21.180  -1.620  54.281  1.00  0.00    -0.031 C 
HETATM   26  C1  UNL     1      22.389  -1.549  55.140  1.00  0.00     0.036 C 
ENDBRANCH  23  24
ENDBRANCH  21  23
BRANCH  22  27
HETATM   27  S1  UNL     1      23.550   0.815  52.519  1.00  0.00    -0.140 SA
HETATM   28  H21 UNL     1      23.324  -0.171  53.481  1.00  0.00     0.107 HD
ENDBRANCH  22  27
ENDBRANCH   1  18
TORSDOF 4
ENDMDL
MODEL 6
REMARK VINA RESULT:      -8.0      3.601      5.162
REMARK  4 active torsions:
REMARK  status: ('A' for Active; 'I' for Inactive)
REMARK    1  A    between atoms: C3_3  and  C4_4 
REMARK    2  A    between atoms: C4_4  and  C5_5 
REMARK    3  A    between atoms: C7_8  and  C8_9 
REMARK    4  A    between atoms: C20_25  and  S1_26 
ROOT
HETATM    1  C8  UNL     1      23.950   3.284  50.530  1.00  0.00     0.180 C 
HETATM    2  N1  UNL     1      23.798   3.260  49.108  1.00  0.00    -0.269 NA
HETATM    3  C9  UNL     1      23.174   4.177  48.484  1.00  0.00     0.223 C 
HETATM    4  N2  UNL     1      22.626   5.232  49.170  1.00  0.00    -0.265 NA
HETATM    5  C10 UNL     1      21.906   6.230  48.895  1.00  0.00     0.110 C 
HETATM    6  C11 UNL     1      21.066   7.470  48.788  1.00  0.00     0.045 C 
HETATM    7  C12 UNL     1      22.120   8.512  49.192  1.00  0.00     0.039 C 
HETATM    8  C13 UNL     1      22.918   7.752  50.250  1.00  0.00    -0.057 C 
HETATM    9  C14 UNL     1      22.163   6.606  50.346  1.00  0.00    -0.040 C 
HETATM   10  C15 UNL     1      21.687   5.812  51.557  1.00  0.00     0.065 C 
HETATM   11  C16 UNL     1      22.881   4.931  51.896  1.00  0.00    -0.007 C 
HETATM   12  C17 UNL     1      23.921   4.659  51.042  1.00  0.00     0.035 C 
HETATM   13  C18 UNL     1      24.938   5.602  50.601  1.00  0.00     0.250 C 
HETATM   14  O2  UNL     1      25.705   4.880  49.873  1.00  0.00    -0.268 OA
HETATM   15  N3  UNL     1      25.218   7.013  50.797  1.00  0.00    -0.353 N 
HETATM   16  C19 UNL     1      24.183   8.053  51.032  1.00  0.00     0.157 C 
HETATM   17  H18 UNL     1      26.251   7.091  50.719  1.00  0.00     0.163 HD
ENDROOT
BRANCH   1  18
HETATM   18  C7  UNL     1      25.015   2.414  51.078  1.00  0.00    -0.007 A 
HETATM   19  C6  UNL     1      26.481   2.379  50.936  1.00  0.00     0.214 A 
HETATM   20  O1  UNL     1      26.985   1.315  51.691  1.00  0.00    -0.345 OA
HETATM   21  C5  UNL     1      25.964   0.666  52.304  1.00  0.00     0.086 A 
HETATM   22  C20 UNL     1      24.768   1.370  51.904  1.00  0.00     0.038 A 
BRANCH  21  23
HETATM   23  C4  UNL     1      26.219  -0.375  53.070  1.00  0.00     0.038 C 
BRANCH  23  24
HETATM   24  C3  UNL     1      27.124  -1.488  52.834  1.00  0.00    -0.002 C 
HETATM   25  C2  UNL     1      28.413  -1.520  53.125  1.00  0.00    -0.031 C 
HETATM   26  C1  UNL     1      29.324  -0.524  53.744  1.00  0.00     0.036 C 
ENDBRANCH  23  24
ENDBRANCH  21  23
BRANCH  22  27
HETATM   27  S1  UNL     1      23.145   0.829  52.503  1.00  0.00    -0.140 SA
HETATM   28  H21 UNL     1      22.897  -0.506  52.174  1.00  0.00     0.107 HD
ENDBRANCH  22  27
ENDBRANCH   1  18
TORSDOF 4
ENDMDL
MODEL 7
REMARK VINA RESULT:      -7.9      2.098      3.559
REMARK  4 active torsions:
REMARK  status: ('A' for Active; 'I' for Inactive)
REMARK    1  A    between atoms: C3_3  and  C4_4 
REMARK    2  A    between atoms: C4_4  and  C5_5 
REMARK    3  A    between atoms: C7_8  and  C8_9 
REMARK    4  A    between atoms: C20_25  and  S1_26 
ROOT
HETATM    1  C8  UNL     1      23.510   3.802  50.757  1.00  0.00     0.180 C 
HETATM    2  N1  UNL     1      22.964   3.362  49.511  1.00  0.00    -0.269 NA
HETATM    3  C9  UNL     1      22.918   4.123  48.492  1.00  0.00     0.223 C 
HETATM    4  N2  UNL     1      23.404   5.404  48.563  1.00  0.00    -0.265 NA
HETATM    5  C10 UNL     1      23.446   6.413  47.806  1.00  0.00     0.110 C 
HETATM    6  C11 UNL     1      23.606   7.715  47.076  1.00  0.00     0.045 C 
HETATM    7  C12 UNL     1      25.139   7.761  46.996  1.00  0.00     0.039 C 
HETATM    8  C13 UNL     1      25.538   7.136  48.332  1.00  0.00    -0.057 C 
HETATM    9  C14 UNL     1      24.300   7.004  48.916  1.00  0.00    -0.040 C 
HETATM   10  C15 UNL     1      23.815   7.308  50.330  1.00  0.00     0.065 C 
HETATM   11  C16 UNL     1      24.206   6.063  51.114  1.00  0.00    -0.007 C 
HETATM   12  C17 UNL     1      24.518   4.850  50.552  1.00  0.00     0.035 C 
HETATM   13  C18 UNL     1      25.710   4.545  49.776  1.00  0.00     0.250 C 
HETATM   14  O2  UNL     1      25.579   3.296  49.523  1.00  0.00    -0.268 OA
HETATM   15  N3  UNL     1      26.867   5.280  49.295  1.00  0.00    -0.353 N 
HETATM   16  C19 UNL     1      26.862   6.725  48.948  1.00  0.00     0.157 C 
HETATM   17  H18 UNL     1      27.627   4.575  49.248  1.00  0.00     0.163 HD
ENDROOT
BRANCH   1  18
HETATM   18  C7  UNL     1      23.877   2.732  51.712  1.00  0.00    -0.007 A 
HETATM   19  C6  UNL     1      24.921   2.594  52.743  1.00  0.00     0.214 A 
HETATM   20  O1  UNL     1      24.798   1.340  53.350  1.00  0.00    -0.345 OA
HETATM   21  C5  UNL     1      23.761   0.664  52.795  1.00  0.00     0.086 A 
HETATM   22  C20 UNL     1      23.219   1.552  51.791  1.00  0.00     0.038 A 
BRANCH  21  23
HETATM   23  C4  UNL     1      23.467  -0.546  53.222  1.00  0.00     0.038 C 
BRANCH  23  24
HETATM   24  C3  UNL     1      22.829  -0.950  54.465  1.00  0.00    -0.002 C 
HETATM   25  C2  UNL     1      21.628  -0.585  54.879  1.00  0.00    -0.031 C 
HETATM   26  C1  UNL     1      20.586   0.288  54.282  1.00  0.00     0.036 C 
ENDBRANCH  23  24
ENDBRANCH  21  23
BRANCH  22  27
HETATM   27  S1  UNL     1      21.797   1.040  50.790  1.00  0.00    -0.140 SA
HETATM   28  H21 UNL     1      22.171   0.131  49.798  1.00  0.00     0.107 HD
ENDBRANCH  22  27
ENDBRANCH   1  18
TORSDOF 4
ENDMDL
MODEL 8
REMARK VINA RESULT:      -7.9      3.031      5.225
REMARK  4 active torsions:
REMARK  status: ('A' for Active; 'I' for Inactive)
REMARK    1  A    between atoms: C3_3  and  C4_4 
REMARK    2  A    between atoms: C4_4  and  C5_5 
REMARK    3  A    between atoms: C7_8  and  C8_9 
REMARK    4  A    between atoms: C20_25  and  S1_26 
ROOT
HETATM    1  C8  UNL     1      24.106   1.506  51.301  1.00  0.00     0.180 C 
HETATM    2  N1  UNL     1      24.816   2.659  50.844  1.00  0.00    -0.269 NA
HETATM    3  C9  UNL     1      24.285   3.506  50.055  1.00  0.00     0.223 C 
HETATM    4  N2  UNL     1      22.995   3.333  49.621  1.00  0.00    -0.265 NA
HETATM    5  C10 UNL     1      22.215   3.905  48.811  1.00  0.00     0.110 C 
HETATM    6  C11 UNL     1      21.135   4.429  47.910  1.00  0.00     0.045 C 
HETATM    7  C12 UNL     1      20.104   4.829  48.975  1.00  0.00     0.039 C 
HETATM    8  C13 UNL     1      20.297   3.732  50.021  1.00  0.00    -0.057 C 
HETATM    9  C14 UNL     1      21.192   2.924  49.361  1.00  0.00    -0.040 C 
HETATM   10  C15 UNL     1      21.253   1.409  49.200  1.00  0.00     0.065 C 
HETATM   11  C16 UNL     1      21.931   0.942  50.480  1.00  0.00    -0.007 C 
HETATM   12  C17 UNL     1      22.658   1.749  51.319  1.00  0.00     0.035 C 
HETATM   13  C18 UNL     1      22.127   2.804  52.169  1.00  0.00     0.250 C 
HETATM   14  O2  UNL     1      23.164   3.224  52.792  1.00  0.00    -0.268 OA
HETATM   15  N3  UNL     1      20.824   3.397  52.418  1.00  0.00    -0.353 N 
HETATM   16  C19 UNL     1      19.737   3.493  51.411  1.00  0.00     0.157 C 
HETATM   17  H18 UNL     1      20.866   3.722  53.403  1.00  0.00     0.163 HD
ENDROOT
BRANCH   1  18
HETATM   18  C7  UNL     1      24.663   0.841  52.501  1.00  0.00    -0.007 A 
HETATM   19  C6  UNL     1      24.129  -0.126  53.476  1.00  0.00     0.214 A 
HETATM   20  O1  UNL     1      25.118  -0.407  54.425  1.00  0.00    -0.345 OA
HETATM   21  C5  UNL     1      26.240   0.298  54.138  1.00  0.00     0.086 A 
HETATM   22  C20 UNL     1      25.923   1.055  52.948  1.00  0.00     0.038 A 
BRANCH  21  23
HETATM   23  C4  UNL     1      27.300   0.181  54.910  1.00  0.00     0.038 C 
BRANCH  23  24
HETATM   24  C3  UNL     1      28.707   0.305  54.562  1.00  0.00    -0.002 C 
HETATM   25  C2  UNL     1      29.418  -0.568  53.870  1.00  0.00    -0.031 C 
HETATM   26  C1  UNL     1      29.075  -1.873  53.252  1.00  0.00     0.036 C 
ENDBRANCH  23  24
ENDBRANCH  21  23
BRANCH  22  27
HETATM   27  S1  UNL     1      27.159   2.154  52.207  1.00  0.00    -0.140 SA
HETATM   28  H21 UNL     1      26.650   3.440  52.015  1.00  0.00     0.107 HD
ENDBRANCH  22  27
ENDBRANCH   1  18
TORSDOF 4
ENDMDL
MODEL 9
REMARK VINA RESULT:      -7.9      4.710      9.553
REMARK  4 active torsions:
REMARK  status: ('A' for Active; 'I' for Inactive)
REMARK    1  A    between atoms: C3_3  and  C4_4 
REMARK    2  A    between atoms: C4_4  and  C5_5 
REMARK    3  A    between atoms: C7_8  and  C8_9 
REMARK    4  A    between atoms: C20_25  and  S1_26 
ROOT
HETATM    1  C8  UNL     1      25.960   6.933  48.689  1.00  0.00     0.180 C 
HETATM    2  N1  UNL     1      24.827   7.361  47.928  1.00  0.00    -0.269 NA
HETATM    3  C9  UNL     1      23.763   6.664  47.859  1.00  0.00     0.223 C 
HETATM    4  N2  UNL     1      23.674   5.469  48.528  1.00  0.00    -0.265 NA
HETATM    5  C10 UNL     1      22.841   4.525  48.614  1.00  0.00     0.110 C 
HETATM    6  C11 UNL     1      21.996   3.309  48.861  1.00  0.00     0.045 C 
HETATM    7  C12 UNL     1      21.731   3.500  50.362  1.00  0.00     0.039 C 
HETATM    8  C13 UNL     1      23.054   4.097  50.837  1.00  0.00    -0.057 C 
HETATM    9  C14 UNL     1      23.791   4.004  49.680  1.00  0.00    -0.040 C 
HETATM   10  C15 UNL     1      25.224   3.546  49.432  1.00  0.00     0.065 C 
HETATM   11  C16 UNL     1      26.052   4.786  49.739  1.00  0.00    -0.007 C 
HETATM   12  C17 UNL     1      25.554   6.064  49.800  1.00  0.00     0.035 C 
HETATM   13  C18 UNL     1      24.667   6.592  50.826  1.00  0.00     0.250 C 
HETATM   14  O2  UNL     1      24.530   7.819  50.487  1.00  0.00    -0.268 OA
HETATM   15  N3  UNL     1      23.994   6.070  52.003  1.00  0.00    -0.353 N 
HETATM   16  C19 UNL     1      23.538   4.665  52.159  1.00  0.00     0.157 C 
HETATM   17  H18 UNL     1      23.913   6.884  52.643  1.00  0.00     0.163 HD
ENDROOT
BRANCH   1  18
HETATM   18  C7  UNL     1      26.946   7.987  49.021  1.00  0.00    -0.007 A 
HETATM   19  C6  UNL     1      26.843   9.337  49.603  1.00  0.00     0.214 A 
HETATM   20  O1  UNL     1      28.124   9.894  49.685  1.00  0.00    -0.345 OA
HETATM   21  C5  UNL     1      29.036   9.014  49.205  1.00  0.00     0.086 A 
HETATM   22  C20 UNL     1      28.275   7.852  48.806  1.00  0.00     0.038 A 
BRANCH  21  23
HETATM   23  C4  UNL     1      30.312   9.339  49.190  1.00  0.00     0.038 C 
BRANCH  23  24
HETATM   24  C3  UNL     1      31.042  10.145  48.225  1.00  0.00    -0.002 C 
HETATM   25  C2  UNL     1      31.160  11.462  48.239  1.00  0.00    -0.031 C 
HETATM   26  C1  UNL     1      30.640  12.503  49.160  1.00  0.00     0.036 C 
ENDBRANCH  23  24
ENDBRANCH  21  23
BRANCH  22  27
HETATM   27  S1  UNL     1      29.112   6.409  48.096  1.00  0.00    -0.140 SA
HETATM   28  H21 UNL     1      28.970   6.367  46.708  1.00  0.00     0.107 HD
ENDBRANCH  22  27
ENDBRANCH   1  18
TORSDOF 4
ENDMDL
