MODEL 1
REMARK VINA RESULT:      -7.3      0.000      0.000
REMARK  4 active torsions:
REMARK  status: ('A' for Active; 'I' for Inactive)
REMARK    1  A    between atoms: C2_3  and  C4_6 
REMARK    2  A    between atoms: C4_6  and  O2_7 
REMARK    3  A    between atoms: C4_6  and  C6_9 
REMARK       I    between atoms: N3_16  and  C12_17 
REMARK       I    between atoms: C12_17  and  N4_19 
REMARK    4  A    between atoms: N4_19  and  C13_20 
ROOT
HETATM    1  C6  UNL     1      22.821   1.027  52.216  1.00  0.00     0.111 C 
HETATM    2  C7  UNL     1      22.055   0.197  51.205  1.00  0.00     0.128 C 
HETATM    3  N2  UNL     1      21.858   1.232  50.421  1.00  0.00    -0.267 NA
HETATM    4  C8  UNL     1      21.613   2.394  51.244  1.00  0.00     0.034 C 
HETATM    5  C9  UNL     1      21.678   1.974  52.526  1.00  0.00     0.039 C 
HETATM    6  C10 UNL     1      21.338   3.824  50.932  1.00  0.00     0.079 C 
HETATM    7  C11 UNL     1      21.971   4.736  51.910  1.00  0.00     0.134 C 
HETATM    8  N3  UNL     1      23.418   4.697  51.930  1.00  0.00    -0.332 N 
HETATM    9  C12 UNL     1      23.967   5.668  51.046  1.00  0.00     0.323 C 
HETATM   10  O3  UNL     1      23.013   6.261  50.524  1.00  0.00    -0.247 OA
HETATM   11  N4  UNL     1      25.319   5.922  50.798  1.00  0.00    -0.308 N 
HETATM   12  C17 UNL     1      24.215   3.834  52.756  1.00  0.00     0.147 C 
HETATM   13  C18 UNL     1      24.704   2.583  52.140  1.00  0.00     0.135 C 
HETATM   14  N5  UNL     1      23.816   1.717  51.517  1.00  0.00    -0.401 N 
HETATM   15  H17 UNL     1      25.903   5.278  51.371  1.00  0.00     0.170 HD
HETATM   16  H25 UNL     1      24.256   1.222  50.714  1.00  0.00     0.154 HD
ENDROOT
BRANCH   1  17
HETATM   17  C4  UNL     1      23.168   0.163  53.350  1.00  0.00     0.193 C 
BRANCH  17  18
HETATM   18  C2  UNL     1      24.532  -0.427  53.320  1.00  0.00     0.009 A 
HETATM   19  O1  UNL     1      25.732  -1.049  52.999  1.00  0.00     0.000 OA
HETATM   20  C1  UNL     1      26.496  -0.359  51.997  1.00  0.00     0.000 C 
HETATM   21  N1  UNL     1      26.529  -0.929  54.295  1.00  0.00     0.103 N 
HETATM   22  C3  UNL     1      25.253  -0.331  54.453  1.00  0.00     0.242 A 
HETATM   23  H5  UNL     1      27.288  -1.522  54.718  1.00  0.00     0.319 HD
HETATM   24  H6  UNL     1      27.407  -1.444  54.414  1.00  0.00     0.319 HD
ENDBRANCH  17  18
BRANCH  17  25
HETATM   25  O2  UNL     1      22.195  -0.773  53.607  1.00  0.00    -0.383 OA
HETATM   26  C5  UNL     1      21.783  -0.817  54.937  1.00  0.00     0.202 C 
ENDBRANCH  17  25
ENDBRANCH   1  17
BRANCH  11  27
HETATM   27  C13 UNL     1      25.737   6.922  49.891  1.00  0.00     0.043 A 
HETATM   28  C14 UNL     1      26.009   6.502  48.625  1.00  0.00     0.037 A 
HETATM   29  C15 UNL     1      26.426   7.476  47.698  1.00  0.00     0.052 A 
HETATM   30  S1  UNL     1      26.447   9.013  48.579  1.00  0.00    -0.111 SA
HETATM   31  C16 UNL     1      25.874   8.228  50.198  1.00  0.00     0.079 A 
ENDBRANCH  11  27
TORSDOF 4
ENDMDL
MODEL 2
REMARK VINA RESULT:      -7.2      2.759      3.728
REMARK  4 active torsions:
REMARK  status: ('A' for Active; 'I' for Inactive)
REMARK    1  A    between atoms: C2_3  and  C4_6 
REMARK    2  A    between atoms: C4_6  and  O2_7 
REMARK    3  A    between atoms: C4_6  and  C6_9 
REMARK       I    between atoms: N3_16  and  C12_17 
REMARK       I    between atoms: C12_17  and  N4_19 
REMARK    4  A    between atoms: N4_19  and  C13_20 
ROOT
HETATM    1  C6  UNL     1      25.587   1.469  52.624  1.00  0.00     0.111 C 
HETATM    2  C7  UNL     1      24.728   0.367  53.210  1.00  0.00     0.128 C 
HETATM    3  N2  UNL     1      23.617   0.948  52.820  1.00  0.00    -0.267 NA
HETATM    4  C8  UNL     1      23.764   2.377  52.978  1.00  0.00     0.034 C 
HETATM    5  C9  UNL     1      25.004   2.580  53.475  1.00  0.00     0.039 C 
HETATM    6  C10 UNL     1      22.864   3.531  52.701  1.00  0.00     0.079 C 
HETATM    7  C11 UNL     1      23.609   4.706  52.199  1.00  0.00     0.134 C 
HETATM    8  N3  UNL     1      24.262   4.512  50.922  1.00  0.00    -0.332 N 
HETATM    9  C12 UNL     1      23.414   4.904  49.849  1.00  0.00     0.323 C 
HETATM   10  O3  UNL     1      22.355   5.303  50.354  1.00  0.00    -0.247 OA
HETATM   11  N4  UNL     1      23.698   4.859  48.481  1.00  0.00    -0.308 N 
HETATM   12  C17 UNL     1      25.604   4.031  50.739  1.00  0.00     0.147 C 
HETATM   13  C18 UNL     1      25.765   2.590  50.459  1.00  0.00     0.135 C 
HETATM   14  N5  UNL     1      25.186   1.645  51.296  1.00  0.00    -0.401 N 
HETATM   15  H17 UNL     1      24.659   4.481  48.340  1.00  0.00     0.170 HD
HETATM   16  H25 UNL     1      24.894   0.792  50.775  1.00  0.00     0.154 HD
ENDROOT
BRANCH   1  17
HETATM   17  C4  UNL     1      26.988   1.179  52.947  1.00  0.00     0.193 C 
BRANCH  17  18
HETATM   18  C2  UNL     1      27.316  -0.252  53.179  1.00  0.00     0.009 A 
HETATM   19  O1  UNL     1      27.314  -1.626  53.383  1.00  0.00     0.000 OA
HETATM   20  C1  UNL     1      26.846  -2.381  52.255  1.00  0.00     0.000 C 
HETATM   21  N1  UNL     1      28.801  -1.947  53.518  1.00  0.00     0.103 N 
HETATM   22  C3  UNL     1      28.622  -0.556  53.300  1.00  0.00     0.242 A 
HETATM   23  H5  UNL     1      29.318  -2.703  54.034  1.00  0.00     0.319 HD
HETATM   24  H6  UNL     1      29.105  -2.872  53.837  1.00  0.00     0.319 HD
ENDBRANCH  17  18
BRANCH  17  25
HETATM   25  O2  UNL     1      27.473   1.999  53.939  1.00  0.00    -0.383 OA
HETATM   26  C5  UNL     1      28.691   2.602  53.636  1.00  0.00     0.202 C 
ENDBRANCH  17  25
ENDBRANCH   1  17
BRANCH  11  27
HETATM   27  C13 UNL     1      22.763   5.281  47.509  1.00  0.00     0.043 A 
HETATM   28  C14 UNL     1      21.976   4.308  46.976  1.00  0.00     0.037 A 
HETATM   29  C15 UNL     1      21.033   4.698  46.006  1.00  0.00     0.052 A 
HETATM   30  S1  UNL     1      21.226   6.450  45.816  1.00  0.00    -0.111 SA
HETATM   31  C16 UNL     1      22.611   6.556  47.095  1.00  0.00     0.079 A 
ENDBRANCH  11  27
TORSDOF 4
ENDMDL
MODEL 3
REMARK VINA RESULT:      -7.1      3.421      7.896
REMARK  4 active torsions:
REMARK  status: ('A' for Active; 'I' for Inactive)
REMARK    1  A    between atoms: C2_3  and  C4_6 
REMARK    2  A    between atoms: C4_6  and  O2_7 
REMARK    3  A    between atoms: C4_6  and  C6_9 
REMARK       I    between atoms: N3_16  and  C12_17 
REMARK       I    between atoms: C12_17  and  N4_19 
REMARK    4  A    between atoms: N4_19  and  C13_20 
ROOT
HETATM    1  C6  UNL     1      24.641   6.838  49.537  1.00  0.00     0.111 C 
HETATM    2  C7  UNL     1      24.339   8.022  50.435  1.00  0.00     0.128 C 
HETATM    3  N2  UNL     1      24.275   7.266  51.506  1.00  0.00    -0.267 NA
HETATM    4  C8  UNL     1      23.644   6.015  51.151  1.00  0.00     0.034 C 
HETATM    5  C9  UNL     1      23.353   6.096  49.834  1.00  0.00     0.039 C 
HETATM    6  C10 UNL     1      23.311   4.786  51.923  1.00  0.00     0.079 C 
HETATM    7  C11 UNL     1      23.489   3.559  51.116  1.00  0.00     0.134 C 
HETATM    8  N3  UNL     1      24.849   3.299  50.696  1.00  0.00    -0.332 N 
HETATM    9  C12 UNL     1      25.527   2.477  51.638  1.00  0.00     0.323 C 
HETATM   10  O3  UNL     1      24.721   2.230  52.547  1.00  0.00    -0.247 OA
HETATM   11  N4  UNL     1      26.847   2.022  51.574  1.00  0.00    -0.308 N 
HETATM   12  C17 UNL     1      25.444   3.761  49.472  1.00  0.00     0.147 C 
HETATM   13  C18 UNL     1      26.249   4.998  49.546  1.00  0.00     0.135 C 
HETATM   14  N5  UNL     1      25.714   6.149  50.109  1.00  0.00    -0.401 N 
HETATM   15  H17 UNL     1      27.295   2.380  50.704  1.00  0.00     0.170 HD
HETATM   16  H25 UNL     1      26.441   6.722  50.586  1.00  0.00     0.154 HD
ENDROOT
BRANCH   1  17
HETATM   17  C4  UNL     1      24.716   7.319  48.154  1.00  0.00     0.193 C 
BRANCH  17  18
HETATM   18  C2  UNL     1      25.752   8.350  47.882  1.00  0.00     0.009 A 
HETATM   19  O1  UNL     1      26.524   9.500  47.781  1.00  0.00     0.000 OA
HETATM   20  C1  UNL     1      27.017   9.982  49.041  1.00  0.00     0.000 C 
HETATM   21  N1  UNL     1      27.747   9.016  47.006  1.00  0.00     0.103 N 
HETATM   22  C3  UNL     1      26.839   7.943  47.200  1.00  0.00     0.242 A 
HETATM   23  H5  UNL     1      28.414   9.506  46.357  1.00  0.00     0.319 HD
HETATM   24  H6  UNL     1      28.428   9.688  46.638  1.00  0.00     0.319 HD
ENDBRANCH  17  18
BRANCH  17  25
HETATM   25  O2  UNL     1      23.482   7.667  47.657  1.00  0.00    -0.383 OA
HETATM   26  C5  UNL     1      23.298   7.352  46.313  1.00  0.00     0.202 C 
ENDBRANCH  17  25
ENDBRANCH   1  17
BRANCH  11  27
HETATM   27  C13 UNL     1      27.405   1.203  52.583  1.00  0.00     0.043 A 
HETATM   28  C14 UNL     1      27.185  -0.133  52.455  1.00  0.00     0.037 A 
HETATM   29  C15 UNL     1      27.729  -0.975  53.444  1.00  0.00     0.052 A 
HETATM   30  S1  UNL     1      28.569   0.092  54.584  1.00  0.00    -0.111 SA
HETATM   31  C16 UNL     1      28.121   1.659  53.630  1.00  0.00     0.079 A 
ENDBRANCH  11  27
TORSDOF 4
ENDMDL
MODEL 4
REMARK VINA RESULT:      -6.9      3.594      6.406
REMARK  4 active torsions:
REMARK  status: ('A' for Active; 'I' for Inactive)
REMARK    1  A    between atoms: C2_3  and  C4_6 
REMARK    2  A    between atoms: C4_6  and  O2_7 
REMARK    3  A    between atoms: C4_6  and  C6_9 
REMARK       I    between atoms: N3_16  and  C12_17 
REMARK       I    between atoms: C12_17  and  N4_19 
REMARK    4  A    between atoms: N4_19  and  C13_20 
ROOT
HETATM    1  C6  UNL     1      21.227   2.218  49.815  1.00  0.00     0.111 C 
HETATM    2  C7  UNL     1      21.215   1.963  48.321  1.00  0.00     0.128 C 
HETATM    3  N2  UNL     1      22.525   1.909  48.262  1.00  0.00    -0.267 NA
HETATM    4  C8  UNL     1      23.068   2.897  49.166  1.00  0.00     0.034 C 
HETATM    5  C9  UNL     1      22.011   3.513  49.738  1.00  0.00     0.039 C 
HETATM    6  C10 UNL     1      24.458   3.291  49.531  1.00  0.00     0.079 C 
HETATM    7  C11 UNL     1      24.576   3.646  50.961  1.00  0.00     0.134 C 
HETATM    8  N3  UNL     1      24.312   2.561  51.882  1.00  0.00    -0.332 N 
HETATM    9  C12 UNL     1      25.511   1.869  52.213  1.00  0.00     0.323 C 
HETATM   10  O3  UNL     1      26.431   2.426  51.597  1.00  0.00    -0.247 OA
HETATM   11  N4  UNL     1      25.649   0.770  53.065  1.00  0.00    -0.308 N 
HETATM   12  C17 UNL     1      23.028   2.235  52.437  1.00  0.00     0.147 C 
HETATM   13  C18 UNL     1      22.261   1.166  51.764  1.00  0.00     0.135 C 
HETATM   14  N5  UNL     1      22.025   1.228  50.397  1.00  0.00    -0.401 N 
HETATM   15  H17 UNL     1      24.716   0.508  53.446  1.00  0.00     0.170 HD
HETATM   16  H25 UNL     1      21.990   0.281  49.966  1.00  0.00     0.154 HD
ENDROOT
BRANCH   1  17
HETATM   17  C4  UNL     1      19.842   2.415  50.258  1.00  0.00     0.193 C 
BRANCH  17  18
HETATM   18  C2  UNL     1      19.024   1.182  50.395  1.00  0.00     0.009 A 
HETATM   19  O1  UNL     1      18.500  -0.069  50.696  1.00  0.00     0.000 OA
HETATM   20  C1  UNL     1      18.204  -0.257  52.089  1.00  0.00     0.000 C 
HETATM   21  N1  UNL     1      17.153  -0.049  49.977  1.00  0.00     0.103 N 
HETATM   22  C3  UNL     1      17.832   1.179  49.770  1.00  0.00     0.242 A 
HETATM   23  H5  UNL     1      16.558  -0.812  49.565  1.00  0.00     0.319 HD
HETATM   24  H6  UNL     1      16.601  -0.907  49.884  1.00  0.00     0.319 HD
ENDBRANCH  17  18
BRANCH  17  25
HETATM   25  O2  UNL     1      19.201   3.396  49.539  1.00  0.00    -0.383 OA
HETATM   26  C5  UNL     1      18.726   4.452  50.312  1.00  0.00     0.202 C 
ENDBRANCH  17  25
ENDBRANCH   1  17
BRANCH  11  27
HETATM   27  C13 UNL     1      26.905   0.170  53.312  1.00  0.00     0.043 A 
HETATM   28  C14 UNL     1      27.645   0.727  54.309  1.00  0.00     0.037 A 
HETATM   29  C15 UNL     1      28.901   0.150  54.579  1.00  0.00     0.052 A 
HETATM   30  S1  UNL     1      29.077  -1.195  53.439  1.00  0.00    -0.111 SA
HETATM   31  C16 UNL     1      27.394  -0.891  52.638  1.00  0.00     0.079 A 
ENDBRANCH  11  27
TORSDOF 4
ENDMDL
MODEL 5
REMARK VINA RESULT:      -6.8      1.514      2.601
REMARK  4 active torsions:
REMARK  status: ('A' for Active; 'I' for Inactive)
REMARK    1  A    between atoms: C2_3  and  C4_6 
REMARK    2  A    between atoms: C4_6  and  O2_7 
REMARK    3  A    between atoms: C4_6  and  C6_9 
REMARK       I    between atoms: N3_16  and  C12_17 
REMARK       I    between atoms: C12_17  and  N4_19 
REMARK    4  A    between atoms: N4_19  and  C13_20 
ROOT
HETATM    1  C6  UNL     1      22.597   1.459  51.553  1.00  0.00     0.111 C 
HETATM    2  C7  UNL     1      21.700   0.819  50.512  1.00  0.00     0.128 C 
HETATM    3  N2  UNL     1      21.589   1.940  49.836  1.00  0.00    -0.267 NA
HETATM    4  C8  UNL     1      21.512   3.037  50.773  1.00  0.00     0.034 C 
HETATM    5  C9  UNL     1      21.582   2.491  52.007  1.00  0.00     0.039 C 
HETATM    6  C10 UNL     1      21.389   4.512  50.607  1.00  0.00     0.079 C 
HETATM    7  C11 UNL     1      22.162   5.251  51.629  1.00  0.00     0.134 C 
HETATM    8  N3  UNL     1      23.594   5.053  51.570  1.00  0.00    -0.332 N 
HETATM    9  C12 UNL     1      24.213   6.038  50.751  1.00  0.00     0.323 C 
HETATM   10  O3  UNL     1      23.312   6.779  50.336  1.00  0.00    -0.247 OA
HETATM   11  N4  UNL     1      25.574   6.166  50.457  1.00  0.00    -0.308 N 
HETATM   12  C17 UNL     1      24.322   4.033  52.273  1.00  0.00     0.147 C 
HETATM   13  C18 UNL     1      24.639   2.801  51.521  1.00  0.00     0.135 C 
HETATM   14  N5  UNL     1      23.634   2.100  50.869  1.00  0.00    -0.401 N 
HETATM   15  H17 UNL     1      26.104   5.409  50.938  1.00  0.00     0.170 HD
HETATM   16  H25 UNL     1      23.981   1.640  50.002  1.00  0.00     0.154 HD
ENDROOT
BRANCH   1  17
HETATM   17  C4  UNL     1      22.890   0.457  52.584  1.00  0.00     0.193 C 
BRANCH  17  18
HETATM   18  C2  UNL     1      21.719  -0.049  53.346  1.00  0.00     0.009 A 
HETATM   19  O1  UNL     1      20.499  -0.248  53.981  1.00  0.00     0.000 OA
HETATM   20  C1  UNL     1      19.381  -0.328  53.083  1.00  0.00     0.000 C 
HETATM   21  N1  UNL     1      20.658  -1.642  54.582  1.00  0.00     0.103 N 
HETATM   22  C3  UNL     1      21.838  -1.278  53.884  1.00  0.00     0.242 A 
HETATM   23  H5  UNL     1      20.237  -2.101  55.430  1.00  0.00     0.319 HD
HETATM   24  H6  UNL     1      19.971  -2.000  55.252  1.00  0.00     0.319 HD
ENDBRANCH  17  18
BRANCH  17  25
HETATM   25  O2  UNL     1      23.926   0.841  53.402  1.00  0.00    -0.383 OA
HETATM   26  C5  UNL     1      24.971  -0.077  53.468  1.00  0.00     0.202 C 
ENDBRANCH  17  25
ENDBRANCH   1  17
BRANCH  11  27
HETATM   27  C13 UNL     1      26.064   7.197  49.624  1.00  0.00     0.043 A 
HETATM   28  C14 UNL     1      26.418   8.352  50.251  1.00  0.00     0.037 A 
HETATM   29  C15 UNL     1      26.911   9.397  49.447  1.00  0.00     0.052 A 
HETATM   30  S1  UNL     1      26.894   8.785  47.784  1.00  0.00    -0.111 SA
HETATM   31  C16 UNL     1      26.199   7.102  48.286  1.00  0.00     0.079 A 
ENDBRANCH  11  27
TORSDOF 4
ENDMDL
MODEL 6
REMARK VINA RESULT:      -6.7      3.766      6.624
REMARK  4 active torsions:
REMARK  status: ('A' for Active; 'I' for Inactive)
REMARK    1  A    between atoms: C2_3  and  C4_6 
REMARK    2  A    between atoms: C4_6  and  O2_7 
REMARK    3  A    between atoms: C4_6  and  C6_9 
REMARK       I    between atoms: N3_16  and  C12_17 
REMARK       I    between atoms: C12_17  and  N4_19 
REMARK    4  A    between atoms: N4_19  and  C13_20 
ROOT
HETATM    1  C6  UNL     1      20.507   1.168  50.597  1.00  0.00     0.111 C 
HETATM    2  C7  UNL     1      20.536   1.460  49.110  1.00  0.00     0.128 C 
HETATM    3  N2  UNL     1      21.798   1.821  49.147  1.00  0.00    -0.267 NA
HETATM    4  C8  UNL     1      22.034   2.545  50.375  1.00  0.00     0.034 C 
HETATM    5  C9  UNL     1      20.853   2.580  51.030  1.00  0.00     0.039 C 
HETATM    6  C10 UNL     1      23.244   3.179  50.968  1.00  0.00     0.079 C 
HETATM    7  C11 UNL     1      23.284   3.031  52.439  1.00  0.00     0.134 C 
HETATM    8  N3  UNL     1      23.389   1.666  52.910  1.00  0.00    -0.332 N 
HETATM    9  C12 UNL     1      24.751   1.291  53.086  1.00  0.00     0.323 C 
HETATM   10  O3  UNL     1      25.439   2.274  52.777  1.00  0.00    -0.247 OA
HETATM   11  N4  UNL     1      25.241   0.057  53.523  1.00  0.00    -0.308 N 
HETATM   12  C17 UNL     1      22.282   0.802  53.211  1.00  0.00     0.147 C 
HETATM   13  C18 UNL     1      21.864  -0.140  52.152  1.00  0.00     0.135 C 
HETATM   14  N5  UNL     1      21.585   0.322  50.873  1.00  0.00    -0.401 N 
HETATM   15  H17 UNL     1      24.444  -0.585  53.713  1.00  0.00     0.170 HD
HETATM   16  H25 UNL     1      21.832  -0.379  50.144  1.00  0.00     0.154 HD
ENDROOT
BRANCH   1  17
HETATM   17  C4  UNL     1      19.140   0.779  50.961  1.00  0.00     0.193 C 
BRANCH  17  18
HETATM   18  C2  UNL     1      18.051   1.546  50.302  1.00  0.00     0.009 A 
HETATM   19  O1  UNL     1      17.130   2.113  49.430  1.00  0.00     0.000 OA
HETATM   20  C1  UNL     1      16.186   1.175  48.890  1.00  0.00     0.000 C 
HETATM   21  N1  UNL     1      16.330   3.039  50.344  1.00  0.00     0.103 N 
HETATM   22  C3  UNL     1      17.333   2.368  51.090  1.00  0.00     0.242 A 
HETATM   23  H5  UNL     1      15.811   3.935  50.165  1.00  0.00     0.319 HD
HETATM   24  H6  UNL     1      15.674   3.719  49.948  1.00  0.00     0.319 HD
ENDBRANCH  17  18
BRANCH  17  25
HETATM   25  O2  UNL     1      18.972   0.688  52.322  1.00  0.00    -0.383 OA
HETATM   26  C5  UNL     1      18.448  -0.529  52.752  1.00  0.00     0.202 C 
ENDBRANCH  17  25
ENDBRANCH   1  17
BRANCH  11  27
HETATM   27  C13 UNL     1      26.627  -0.190  53.658  1.00  0.00     0.043 A 
HETATM   28  C14 UNL     1      27.220   0.328  54.767  1.00  0.00     0.037 A 
HETATM   29  C15 UNL     1      28.599   0.097  54.929  1.00  0.00     0.052 A 
HETATM   30  S1  UNL     1      29.103  -0.858  53.524  1.00  0.00    -0.111 SA
HETATM   31  C16 UNL     1      27.369  -0.891  52.777  1.00  0.00     0.079 A 
ENDBRANCH  11  27
TORSDOF 4
ENDMDL
MODEL 7
REMARK VINA RESULT:      -6.7      3.011      3.762
REMARK  4 active torsions:
REMARK  status: ('A' for Active; 'I' for Inactive)
REMARK    1  A    between atoms: C2_3  and  C4_6 
REMARK    2  A    between atoms: C4_6  and  O2_7 
REMARK    3  A    between atoms: C4_6  and  C6_9 
REMARK       I    between atoms: N3_16  and  C12_17 
REMARK       I    between atoms: C12_17  and  N4_19 
REMARK    4  A    between atoms: N4_19  and  C13_20 
ROOT
HETATM    1  C6  UNL     1      24.860   2.745  51.551  1.00  0.00     0.111 C 
HETATM    2  C7  UNL     1      26.182   2.585  50.827  1.00  0.00     0.128 C 
HETATM    3  N2  UNL     1      25.792   3.344  49.829  1.00  0.00    -0.267 NA
HETATM    4  C8  UNL     1      24.397   3.075  49.563  1.00  0.00     0.034 C 
HETATM    5  C9  UNL     1      24.015   2.132  50.451  1.00  0.00     0.039 C 
HETATM    6  C10 UNL     1      23.423   3.622  48.578  1.00  0.00     0.079 C 
HETATM    7  C11 UNL     1      22.065   3.745  49.150  1.00  0.00     0.134 C 
HETATM    8  N3  UNL     1      21.950   4.681  50.249  1.00  0.00    -0.332 N 
HETATM    9  C12 UNL     1      21.599   5.978  49.780  1.00  0.00     0.323 C 
HETATM   10  O3  UNL     1      21.494   5.900  48.548  1.00  0.00    -0.247 OA
HETATM   11  N4  UNL     1      21.403   7.132  50.544  1.00  0.00    -0.308 N 
HETATM   12  C17 UNL     1      22.120   4.358  51.638  1.00  0.00     0.147 C 
HETATM   13  C18 UNL     1      23.448   4.621  52.229  1.00  0.00     0.135 C 
HETATM   14  N5  UNL     1      24.594   4.115  51.629  1.00  0.00    -0.401 N 
HETATM   15  H17 UNL     1      21.556   6.912  51.550  1.00  0.00     0.170 HD
HETATM   16  H25 UNL     1      25.411   4.747  51.759  1.00  0.00     0.154 HD
ENDROOT
BRANCH   1  17
HETATM   17  C4  UNL     1      24.900   1.922  52.765  1.00  0.00     0.193 C 
BRANCH  17  18
HETATM   18  C2  UNL     1      26.254   1.533  53.239  1.00  0.00     0.009 A 
HETATM   19  O1  UNL     1      27.611   1.296  53.413  1.00  0.00     0.000 OA
HETATM   20  C1  UNL     1      28.398   2.490  53.549  1.00  0.00     0.000 C 
HETATM   21  N1  UNL     1      27.659   0.602  54.773  1.00  0.00     0.103 N 
HETATM   22  C3  UNL     1      26.318   0.920  54.436  1.00  0.00     0.242 A 
HETATM   23  H5  UNL     1      28.325  -0.097  55.188  1.00  0.00     0.319 HD
HETATM   24  H6  UNL     1      28.523   0.160  55.100  1.00  0.00     0.319 HD
ENDBRANCH  17  18
BRANCH  17  25
HETATM   25  O2  UNL     1      24.038   0.853  52.697  1.00  0.00    -0.383 OA
HETATM   26  C5  UNL     1      22.820   1.061  53.339  1.00  0.00     0.202 C 
ENDBRANCH  17  25
ENDBRANCH   1  17
BRANCH  11  27
HETATM   27  C13 UNL     1      21.053   8.368  49.953  1.00  0.00     0.043 A 
HETATM   28  C14 UNL     1      19.757   8.754  50.103  1.00  0.00     0.037 A 
HETATM   29  C15 UNL     1      19.378   9.981  49.526  1.00  0.00     0.052 A 
HETATM   30  S1  UNL     1      20.836  10.630  48.756  1.00  0.00    -0.111 SA
HETATM   31  C16 UNL     1      21.905   9.161  49.272  1.00  0.00     0.079 A 
ENDBRANCH  11  27
TORSDOF 4
ENDMDL
MODEL 8
REMARK VINA RESULT:      -6.6      5.762     10.142
REMARK  4 active torsions:
REMARK  status: ('A' for Active; 'I' for Inactive)
REMARK    1  A    between atoms: C2_3  and  C4_6 
REMARK    2  A    between atoms: C4_6  and  O2_7 
REMARK    3  A    between atoms: C4_6  and  C6_9 
REMARK       I    between atoms: N3_16  and  C12_17 
REMARK       I    between atoms: C12_17  and  N4_19 
REMARK    4  A    between atoms: N4_19  and  C13_20 
ROOT
HETATM    1  C6  UNL     1      30.970   8.460  48.412  1.00  0.00     0.111 C 
HETATM    2  C7  UNL     1      31.068   9.645  49.352  1.00  0.00     0.128 C 
HETATM    3  N2  UNL     1      29.846   9.465  49.797  1.00  0.00    -0.267 NA
HETATM    4  C8  UNL     1      29.009   9.053  48.694  1.00  0.00     0.034 C 
HETATM    5  C9  UNL     1      29.808   9.008  47.605  1.00  0.00     0.039 C 
HETATM    6  C10 UNL     1      27.566   8.701  48.585  1.00  0.00     0.079 C 
HETATM    7  C11 UNL     1      27.334   7.602  47.622  1.00  0.00     0.134 C 
HETATM    8  N3  UNL     1      27.933   6.337  47.989  1.00  0.00    -0.332 N 
HETATM    9  C12 UNL     1      27.022   5.539  48.736  1.00  0.00     0.323 C 
HETATM   10  O3  UNL     1      25.974   6.190  48.840  1.00  0.00    -0.247 OA
HETATM   11  N4  UNL     1      27.245   4.263  49.262  1.00  0.00    -0.308 N 
HETATM   12  C17 UNL     1      29.252   5.902  47.621  1.00  0.00     0.147 C 
HETATM   13  C18 UNL     1      30.326   6.111  48.614  1.00  0.00     0.135 C 
HETATM   14  N5  UNL     1      30.533   7.367  49.167  1.00  0.00    -0.401 N 
HETATM   15  H17 UNL     1      28.211   3.955  49.026  1.00  0.00     0.170 HD
HETATM   16  H25 UNL     1      30.874   7.308  50.149  1.00  0.00     0.154 HD
ENDROOT
BRANCH   1  17
HETATM   17  C4  UNL     1      32.214   8.383  47.639  1.00  0.00     0.193 C 
BRANCH  17  18
HETATM   18  C2  UNL     1      33.291   7.545  48.228  1.00  0.00     0.009 A 
HETATM   19  O1  UNL     1      34.068   6.557  48.819  1.00  0.00     0.000 OA
HETATM   20  C1  UNL     1      34.185   5.360  48.032  1.00  0.00     0.000 C 
HETATM   21  N1  UNL     1      35.458   7.188  48.836  1.00  0.00     0.103 N 
HETATM   22  C3  UNL     1      34.525   8.083  48.252  1.00  0.00     0.242 A 
HETATM   23  H5  UNL     1      36.285   7.062  49.473  1.00  0.00     0.319 HD
HETATM   24  H6  UNL     1      36.220   6.751  49.364  1.00  0.00     0.319 HD
ENDBRANCH  17  18
BRANCH  17  25
HETATM   25  O2  UNL     1      32.663   9.623  47.252  1.00  0.00    -0.383 OA
HETATM   26  C5  UNL     1      32.727   9.802  45.872  1.00  0.00     0.202 C 
ENDBRANCH  17  25
ENDBRANCH   1  17
BRANCH  11  27
HETATM   27  C13 UNL     1      26.250   3.571  49.991  1.00  0.00     0.043 A 
HETATM   28  C14 UNL     1      26.672   2.933  51.116  1.00  0.00     0.037 A 
HETATM   29  C15 UNL     1      25.704   2.236  51.864  1.00  0.00     0.052 A 
HETATM   30  S1  UNL     1      24.170   2.460  51.006  1.00  0.00    -0.111 SA
HETATM   31  C16 UNL     1      24.948   3.513  49.645  1.00  0.00     0.079 A 
ENDBRANCH  11  27
TORSDOF 4
ENDMDL
MODEL 9
REMARK VINA RESULT:      -6.6      2.102      3.596
REMARK  4 active torsions:
REMARK  status: ('A' for Active; 'I' for Inactive)
REMARK    1  A    between atoms: C2_3  and  C4_6 
REMARK    2  A    between atoms: C4_6  and  O2_7 
REMARK    3  A    between atoms: C4_6  and  C6_9 
REMARK       I    between atoms: N3_16  and  C12_17 
REMARK       I    between atoms: C12_17  and  N4_19 
REMARK    4  A    between atoms: N4_19  and  C13_20 
ROOT
HETATM    1  C6  UNL     1      23.430   2.482  52.249  1.00  0.00     0.111 C 
HETATM    2  C7  UNL     1      24.129   1.987  53.499  1.00  0.00     0.128 C 
HETATM    3  N2  UNL     1      25.277   2.508  53.133  1.00  0.00    -0.267 NA
HETATM    4  C8  UNL     1      25.420   2.348  51.704  1.00  0.00     0.034 C 
HETATM    5  C9  UNL     1      24.305   1.715  51.278  1.00  0.00     0.039 C 
HETATM    6  C10 UNL     1      26.482   2.738  50.735  1.00  0.00     0.079 C 
HETATM    7  C11 UNL     1      25.919   3.164  49.436  1.00  0.00     0.134 C 
HETATM    8  N3  UNL     1      25.099   4.355  49.489  1.00  0.00    -0.332 N 
HETATM    9  C12 UNL     1      25.877   5.522  49.250  1.00  0.00     0.323 C 
HETATM   10  O3  UNL     1      27.043   5.146  49.063  1.00  0.00    -0.247 OA
HETATM   11  N4  UNL     1      25.435   6.848  49.226  1.00  0.00    -0.308 N 
HETATM   12  C17 UNL     1      23.679   4.379  49.708  1.00  0.00     0.147 C 
HETATM   13  C18 UNL     1      23.220   4.624  51.090  1.00  0.00     0.135 C 
HETATM   14  N5  UNL     1      23.703   3.849  52.136  1.00  0.00    -0.401 N 
HETATM   15  H17 UNL     1      24.411   6.875  49.416  1.00  0.00     0.170 HD
HETATM   16  H25 UNL     1      23.768   4.391  53.023  1.00  0.00     0.154 HD
ENDROOT
BRANCH   1  17
HETATM   17  C4  UNL     1      22.046   1.997  52.275  1.00  0.00     0.193 C 
BRANCH  17  18
HETATM   18  C2  UNL     1      21.819   0.725  53.009  1.00  0.00     0.009 A 
HETATM   19  O1  UNL     1      21.847  -0.565  53.524  1.00  0.00     0.000 OA
HETATM   20  C1  UNL     1      23.036  -0.868  54.271  1.00  0.00     0.000 C 
HETATM   21  N1  UNL     1      20.706  -0.546  54.538  1.00  0.00     0.103 N 
HETATM   22  C3  UNL     1      20.818   0.721  53.909  1.00  0.00     0.242 A 
HETATM   23  H5  UNL     1      20.070  -1.299  54.904  1.00  0.00     0.319 HD
HETATM   24  H6  UNL     1      20.378  -1.416  54.968  1.00  0.00     0.319 HD
ENDBRANCH  17  18
BRANCH  17  25
HETATM   25  O2  UNL     1      21.473   1.994  51.026  1.00  0.00    -0.383 OA
HETATM   26  C5  UNL     1      20.242   2.643  50.960  1.00  0.00     0.202 C 
ENDBRANCH  17  25
ENDBRANCH   1  17
BRANCH  11  27
HETATM   27  C13 UNL     1      26.316   7.925  48.975  1.00  0.00     0.043 A 
HETATM   28  C14 UNL     1      26.854   8.522  50.072  1.00  0.00     0.037 A 
HETATM   29  C15 UNL     1      27.737   9.598  49.854  1.00  0.00     0.052 A 
HETATM   30  S1  UNL     1      27.836   9.799  48.096  1.00  0.00    -0.111 SA
HETATM   31  C16 UNL     1      26.643   8.377  47.747  1.00  0.00     0.079 A 
ENDBRANCH  11  27
TORSDOF 4
ENDMDL
