MODEL 1
REMARK VINA RESULT:      -7.7      0.000      0.000
REMARK  4 active torsions:
REMARK  status: ('A' for Active; 'I' for Inactive)
REMARK    1  A    between atoms: C7_8  and  C8_9 
REMARK    2  A    between atoms: C12_13  and  N2_14 
REMARK    3  A    between atoms: N2_14  and  C13_15 
REMARK    4  A    between atoms: C13_15  and  C14_16 
ROOT
HETATM    1  C1  UNL     1      27.525  -2.552  52.682  1.00  0.00     0.070 C 
HETATM    2  C2  UNL     1      28.323  -1.367  53.089  1.00  0.00     0.033 A 
HETATM    3  C3  UNL     1      29.689  -1.360  53.370  1.00  0.00     0.029 A 
HETATM    4  C4  UNL     1      30.057  -0.061  53.712  1.00  0.00     0.035 A 
HETATM    5  C5  UNL     1      28.908   0.705  53.635  1.00  0.00     0.076 A 
HETATM    6  C6  UNL     1      28.726   2.055  53.876  1.00  0.00     0.150 A 
HETATM    7  N1  UNL     1      27.480   2.550  53.723  1.00  0.00    -0.241 NA
HETATM    8  C7  UNL     1      26.454   1.730  53.345  1.00  0.00     0.154 A 
HETATM    9  N3  UNL     1      26.674   0.414  53.119  1.00  0.00    -0.151 NA
HETATM   10  N4  UNL     1      27.889  -0.104  53.260  1.00  0.00    -0.235 N 
ENDROOT
BRANCH   8  11
HETATM   11  C8  UNL     1      25.053   2.178  53.150  1.00  0.00     0.087 A 
HETATM   12  C9  UNL     1      24.840   2.804  51.830  1.00  0.00    -0.014 A 
HETATM   13  C10 UNL     1      24.016   2.663  50.808  1.00  0.00    -0.001 A 
HETATM   14  C11 UNL     1      23.038   1.608  51.011  1.00  0.00     0.027 A 
HETATM   15  C12 UNL     1      23.169   1.003  52.175  1.00  0.00     0.045 A 
HETATM   16  C15 UNL     1      24.052   1.099  53.355  1.00  0.00     0.076 A 
BRANCH  15  17
HETATM   17  N2  UNL     1      22.206  -0.049  52.396  1.00  0.00    -0.207 NA
BRANCH  17  18
HETATM   18  C13 UNL     1      22.205  -0.598  53.559  1.00  0.00     0.044 C 
BRANCH  18  19
HETATM   19  C14 UNL     1      22.235  -1.294  54.638  1.00  0.00     0.295 C 
HETATM   20  O1  UNL     1      22.685  -1.817  55.673  1.00  0.00    -0.272 OA
ENDBRANCH  18  19
ENDBRANCH  17  18
ENDBRANCH  15  17
ENDBRANCH   8  11
TORSDOF 4
ENDMDL
MODEL 2
REMARK VINA RESULT:      -7.5      2.230      3.311
REMARK  4 active torsions:
REMARK  status: ('A' for Active; 'I' for Inactive)
REMARK    1  A    between atoms: C7_8  and  C8_9 
REMARK    2  A    between atoms: C12_13  and  N2_14 
REMARK    3  A    between atoms: N2_14  and  C13_15 
REMARK    4  A    between atoms: C13_15  and  C14_16 
ROOT
HETATM    1  C1  UNL     1      28.652  -2.562  53.113  1.00  0.00     0.070 C 
HETATM    2  C2  UNL     1      28.506  -1.107  53.377  1.00  0.00     0.033 A 
HETATM    3  C3  UNL     1      29.546  -0.218  53.641  1.00  0.00     0.029 A 
HETATM    4  C4  UNL     1      28.999   1.050  53.833  1.00  0.00     0.035 A 
HETATM    5  C5  UNL     1      27.631   0.911  53.684  1.00  0.00     0.076 A 
HETATM    6  C6  UNL     1      26.630   1.862  53.775  1.00  0.00     0.150 A 
HETATM    7  N1  UNL     1      25.360   1.447  53.581  1.00  0.00    -0.241 NA
HETATM    8  C7  UNL     1      25.099   0.134  53.308  1.00  0.00     0.154 A 
HETATM    9  N3  UNL     1      26.107  -0.766  53.227  1.00  0.00    -0.151 NA
HETATM   10  N4  UNL     1      27.367  -0.388  53.411  1.00  0.00    -0.235 N 
ENDROOT
BRANCH   8  11
HETATM   11  C8  UNL     1      23.741  -0.419  53.080  1.00  0.00     0.087 A 
HETATM   12  C9  UNL     1      23.115  -0.906  54.325  1.00  0.00    -0.014 A 
HETATM   13  C10 UNL     1      21.983  -0.727  54.980  1.00  0.00    -0.001 A 
HETATM   14  C11 UNL     1      21.085   0.201  54.314  1.00  0.00     0.027 A 
HETATM   15  C12 UNL     1      21.580   0.678  53.190  1.00  0.00     0.045 A 
HETATM   16  C15 UNL     1      22.821   0.532  52.401  1.00  0.00     0.076 A 
BRANCH  15  17
HETATM   17  N2  UNL     1      20.702   1.603  52.514  1.00  0.00    -0.207 NA
BRANCH  17  18
HETATM   18  C13 UNL     1      21.148   2.796  52.334  1.00  0.00     0.044 C 
BRANCH  18  19
HETATM   19  C14 UNL     1      21.747   3.924  52.198  1.00  0.00     0.295 C 
HETATM   20  O1  UNL     1      22.463   4.902  52.478  1.00  0.00    -0.272 OA
ENDBRANCH  18  19
ENDBRANCH  17  18
ENDBRANCH  15  17
ENDBRANCH   8  11
TORSDOF 4
ENDMDL
MODEL 3
REMARK VINA RESULT:      -7.4      2.666      6.826
REMARK  4 active torsions:
REMARK  status: ('A' for Active; 'I' for Inactive)
REMARK    1  A    between atoms: C7_8  and  C8_9 
REMARK    2  A    between atoms: C12_13  and  N2_14 
REMARK    3  A    between atoms: N2_14  and  C13_15 
REMARK    4  A    between atoms: C13_15  and  C14_16 
ROOT
HETATM    1  C1  UNL     1      19.316   0.982  50.401  1.00  0.00     0.070 C 
HETATM    2  C2  UNL     1      19.393   0.193  51.657  1.00  0.00     0.033 A 
HETATM    3  C3  UNL     1      18.314  -0.383  52.325  1.00  0.00     0.029 A 
HETATM    4  C4  UNL     1      18.799  -1.037  53.457  1.00  0.00     0.035 A 
HETATM    5  C5  UNL     1      20.169  -0.847  53.459  1.00  0.00     0.076 A 
HETATM    6  C6  UNL     1      21.123  -1.288  54.361  1.00  0.00     0.150 A 
HETATM    7  N1  UNL     1      22.408  -0.954  54.118  1.00  0.00    -0.241 NA
HETATM    8  C7  UNL     1      22.730  -0.209  53.018  1.00  0.00     0.154 A 
HETATM    9  N3  UNL     1      21.768   0.203  52.160  1.00  0.00    -0.151 NA
HETATM   10  N4  UNL     1      20.494  -0.110  52.371  1.00  0.00    -0.235 N 
ENDROOT
BRANCH   8  11
HETATM   11  C8  UNL     1      24.110   0.208  52.665  1.00  0.00     0.087 A 
HETATM   12  C9  UNL     1      24.226   1.667  52.476  1.00  0.00    -0.014 A 
HETATM   13  C10 UNL     1      24.980   2.651  52.931  1.00  0.00    -0.001 A 
HETATM   14  C11 UNL     1      25.982   2.201  53.884  1.00  0.00     0.027 A 
HETATM   15  C12 UNL     1      25.937   0.902  54.102  1.00  0.00     0.045 A 
HETATM   16  C15 UNL     1      25.135  -0.249  53.641  1.00  0.00     0.076 A 
BRANCH  15  17
HETATM   17  N2  UNL     1      26.924   0.436  55.046  1.00  0.00    -0.207 NA
BRANCH  17  18
HETATM   18  C13 UNL     1      28.086   0.153  54.574  1.00  0.00     0.044 C 
BRANCH  18  19
HETATM   19  C14 UNL     1      29.217  -0.292  54.156  1.00  0.00     0.295 C 
HETATM   20  O1  UNL     1      30.123  -1.102  53.893  1.00  0.00    -0.272 OA
ENDBRANCH  18  19
ENDBRANCH  17  18
ENDBRANCH  15  17
ENDBRANCH   8  11
TORSDOF 4
ENDMDL
MODEL 4
REMARK VINA RESULT:      -7.3      2.652      5.322
REMARK  4 active torsions:
REMARK  status: ('A' for Active; 'I' for Inactive)
REMARK    1  A    between atoms: C7_8  and  C8_9 
REMARK    2  A    between atoms: C12_13  and  N2_14 
REMARK    3  A    between atoms: N2_14  and  C13_15 
REMARK    4  A    between atoms: C13_15  and  C14_16 
ROOT
HETATM    1  C1  UNL     1      28.023   5.020  48.559  1.00  0.00     0.070 C 
HETATM    2  C2  UNL     1      26.638   4.909  49.085  1.00  0.00     0.033 A 
HETATM    3  C3  UNL     1      25.578   5.761  48.777  1.00  0.00     0.029 A 
HETATM    4  C4  UNL     1      24.450   5.323  49.469  1.00  0.00     0.035 A 
HETATM    5  C5  UNL     1      24.842   4.209  50.188  1.00  0.00     0.076 A 
HETATM    6  C6  UNL     1      24.107   3.399  51.037  1.00  0.00     0.150 A 
HETATM    7  N1  UNL     1      24.749   2.363  51.616  1.00  0.00    -0.241 NA
HETATM    8  C7  UNL     1      26.073   2.143  51.361  1.00  0.00     0.154 A 
HETATM    9  N3  UNL     1      26.758   2.958  50.525  1.00  0.00    -0.151 NA
HETATM   10  N4  UNL     1      26.154   3.986  49.937  1.00  0.00    -0.235 N 
ENDROOT
BRANCH   8  11
HETATM   11  C8  UNL     1      26.866   1.034  51.948  1.00  0.00     0.087 A 
HETATM   12  C9  UNL     1      27.918   1.517  52.864  1.00  0.00    -0.014 A 
HETATM   13  C10 UNL     1      28.308   1.289  54.105  1.00  0.00    -0.001 A 
HETATM   14  C11 UNL     1      27.494   0.291  54.779  1.00  0.00     0.027 A 
HETATM   15  C12 UNL     1      26.531  -0.187  54.016  1.00  0.00     0.045 A 
HETATM   16  C15 UNL     1      26.035   0.014  52.640  1.00  0.00     0.076 A 
BRANCH  15  17
HETATM   17  N2  UNL     1      25.712  -1.180  54.669  1.00  0.00    -0.207 NA
BRANCH  17  18
HETATM   18  C13 UNL     1      24.443  -0.974  54.668  1.00  0.00     0.044 C 
BRANCH  18  19
HETATM   19  C14 UNL     1      23.160  -0.926  54.733  1.00  0.00     0.295 C 
HETATM   20  O1  UNL     1      22.016  -1.013  55.212  1.00  0.00    -0.272 OA
ENDBRANCH  18  19
ENDBRANCH  17  18
ENDBRANCH  15  17
ENDBRANCH   8  11
TORSDOF 4
ENDMDL
MODEL 5
REMARK VINA RESULT:      -7.3      0.971      2.120
REMARK  4 active torsions:
REMARK  status: ('A' for Active; 'I' for Inactive)
REMARK    1  A    between atoms: C7_8  and  C8_9 
REMARK    2  A    between atoms: C12_13  and  N2_14 
REMARK    3  A    between atoms: N2_14  and  C13_15 
REMARK    4  A    between atoms: C13_15  and  C14_16 
ROOT
HETATM    1  C1  UNL     1      29.542   2.106  54.459  1.00  0.00     0.070 C 
HETATM    2  C2  UNL     1      29.135   0.769  53.956  1.00  0.00     0.033 A 
HETATM    3  C3  UNL     1      29.954  -0.356  53.875  1.00  0.00     0.029 A 
HETATM    4  C4  UNL     1      29.202  -1.407  53.353  1.00  0.00     0.035 A 
HETATM    5  C5  UNL     1      27.935  -0.904  53.123  1.00  0.00     0.076 A 
HETATM    6  C6  UNL     1      26.812  -1.532  52.612  1.00  0.00     0.150 A 
HETATM    7  N1  UNL     1      25.689  -0.794  52.492  1.00  0.00    -0.241 NA
HETATM    8  C7  UNL     1      25.685   0.520  52.867  1.00  0.00     0.154 A 
HETATM    9  N3  UNL     1      26.804   1.098  53.362  1.00  0.00    -0.151 NA
HETATM   10  N4  UNL     1      27.926   0.398  53.494  1.00  0.00    -0.235 N 
ENDROOT
BRANCH   8  11
HETATM   11  C8  UNL     1      24.503   1.413  52.774  1.00  0.00     0.087 A 
HETATM   12  C9  UNL     1      24.338   1.990  51.425  1.00  0.00    -0.014 A 
HETATM   13  C10 UNL     1      23.386   2.080  50.515  1.00  0.00    -0.001 A 
HETATM   14  C11 UNL     1      22.146   1.444  50.929  1.00  0.00     0.027 A 
HETATM   15  C12 UNL     1      22.221   0.905  52.129  1.00  0.00     0.045 A 
HETATM   16  C15 UNL     1      23.234   0.762  53.194  1.00  0.00     0.076 A 
BRANCH  15  17
HETATM   17  N2  UNL     1      20.999   0.268  52.558  1.00  0.00    -0.207 NA
BRANCH  17  18
HETATM   18  C13 UNL     1      21.081  -0.517  53.573  1.00  0.00     0.044 C 
BRANCH  18  19
HETATM   19  C14 UNL     1      21.320  -1.341  54.529  1.00  0.00     0.295 C 
HETATM   20  O1  UNL     1      21.954  -2.122  55.260  1.00  0.00    -0.272 OA
ENDBRANCH  18  19
ENDBRANCH  17  18
ENDBRANCH  15  17
ENDBRANCH   8  11
TORSDOF 4
ENDMDL
MODEL 6
REMARK VINA RESULT:      -7.1      4.221      5.833
REMARK  4 active torsions:
REMARK  status: ('A' for Active; 'I' for Inactive)
REMARK    1  A    between atoms: C7_8  and  C8_9 
REMARK    2  A    between atoms: C12_13  and  N2_14 
REMARK    3  A    between atoms: N2_14  and  C13_15 
REMARK    4  A    between atoms: C13_15  and  C14_16 
ROOT
HETATM    1  C1  UNL     1      23.575  -0.497  53.398  1.00  0.00     0.070 C 
HETATM    2  C2  UNL     1      24.937   0.010  53.703  1.00  0.00     0.033 A 
HETATM    3  C3  UNL     1      25.691  -0.305  54.832  1.00  0.00     0.029 A 
HETATM    4  C4  UNL     1      26.908   0.369  54.747  1.00  0.00     0.035 A 
HETATM    5  C5  UNL     1      26.875   1.086  53.565  1.00  0.00     0.076 A 
HETATM    6  C6  UNL     1      27.829   1.920  53.009  1.00  0.00     0.150 A 
HETATM    7  N1  UNL     1      27.532   2.501  51.827  1.00  0.00    -0.241 NA
HETATM    8  C7  UNL     1      26.330   2.261  51.224  1.00  0.00     0.154 A 
HETATM    9  N3  UNL     1      25.423   1.439  51.801  1.00  0.00    -0.151 NA
HETATM   10  N4  UNL     1      25.685   0.851  52.963  1.00  0.00    -0.235 N 
ENDROOT
BRANCH   8  11
HETATM   11  C8  UNL     1      25.912   2.851  49.928  1.00  0.00     0.087 A 
HETATM   12  C9  UNL     1      24.495   3.270  49.932  1.00  0.00    -0.014 A 
HETATM   13  C10 UNL     1      23.802   4.359  49.656  1.00  0.00    -0.001 A 
HETATM   14  C11 UNL     1      24.638   5.468  49.229  1.00  0.00     0.027 A 
HETATM   15  C12 UNL     1      25.921   5.165  49.202  1.00  0.00     0.045 A 
HETATM   16  C15 UNL     1      26.764   3.988  49.492  1.00  0.00     0.076 A 
BRANCH  15  17
HETATM   17  N2  UNL     1      26.767   6.255  48.780  1.00  0.00    -0.207 NA
BRANCH  17  18
HETATM   18  C13 UNL     1      26.606   7.379  49.384  1.00  0.00     0.044 C 
BRANCH  18  19
HETATM   19  C14 UNL     1      26.618   8.511  49.992  1.00  0.00     0.295 C 
HETATM   20  O1  UNL     1      26.357   9.701  50.238  1.00  0.00    -0.272 OA
ENDBRANCH  18  19
ENDBRANCH  17  18
ENDBRANCH  15  17
ENDBRANCH   8  11
TORSDOF 4
ENDMDL
MODEL 7
REMARK VINA RESULT:      -7.0      2.648      4.053
REMARK  4 active torsions:
REMARK  status: ('A' for Active; 'I' for Inactive)
REMARK    1  A    between atoms: C7_8  and  C8_9 
REMARK    2  A    between atoms: C12_13  and  N2_14 
REMARK    3  A    between atoms: N2_14  and  C13_15 
REMARK    4  A    between atoms: C13_15  and  C14_16 
ROOT
HETATM    1  C1  UNL     1      26.424   2.748  51.040  1.00  0.00     0.070 C 
HETATM    2  C2  UNL     1      26.928   2.094  52.275  1.00  0.00     0.033 A 
HETATM    3  C3  UNL     1      28.158   2.338  52.884  1.00  0.00     0.029 A 
HETATM    4  C4  UNL     1      28.254   1.529  54.015  1.00  0.00     0.035 A 
HETATM    5  C5  UNL     1      27.078   0.802  54.076  1.00  0.00     0.076 A 
HETATM    6  C6  UNL     1      26.669  -0.143  55.000  1.00  0.00     0.150 A 
HETATM    7  N1  UNL     1      25.455  -0.704  54.818  1.00  0.00    -0.241 NA
HETATM    8  C7  UNL     1      24.680  -0.337  53.754  1.00  0.00     0.154 A 
HETATM    9  N3  UNL     1      25.117   0.591  52.871  1.00  0.00    -0.151 NA
HETATM   10  N4  UNL     1      26.306   1.163  53.024  1.00  0.00    -0.235 N 
ENDROOT
BRANCH   8  11
HETATM   11  C8  UNL     1      23.334  -0.895  53.467  1.00  0.00     0.087 A 
HETATM   12  C9  UNL     1      22.452  -0.873  54.651  1.00  0.00    -0.014 A 
HETATM   13  C10 UNL     1      21.245  -0.433  54.958  1.00  0.00    -0.001 A 
HETATM   14  C11 UNL     1      20.578   0.212  53.839  1.00  0.00     0.027 A 
HETATM   15  C12 UNL     1      21.310   0.229  52.743  1.00  0.00     0.045 A 
HETATM   16  C15 UNL     1      22.649  -0.233  52.326  1.00  0.00     0.076 A 
BRANCH  15  17
HETATM   17  N2  UNL     1      20.664   0.866  51.622  1.00  0.00    -0.207 NA
BRANCH  17  18
HETATM   18  C13 UNL     1      20.005   1.942  51.869  1.00  0.00     0.044 C 
BRANCH  18  19
HETATM   19  C14 UNL     1      19.328   3.031  51.946  1.00  0.00     0.295 C 
HETATM   20  O1  UNL     1      18.343   3.790  51.957  1.00  0.00    -0.272 OA
ENDBRANCH  18  19
ENDBRANCH  17  18
ENDBRANCH  15  17
ENDBRANCH   8  11
TORSDOF 4
ENDMDL
MODEL 8
REMARK VINA RESULT:      -7.0      1.715      2.401
REMARK  4 active torsions:
REMARK  status: ('A' for Active; 'I' for Inactive)
REMARK    1  A    between atoms: C7_8  and  C8_9 
REMARK    2  A    between atoms: C12_13  and  N2_14 
REMARK    3  A    between atoms: N2_14  and  C13_15 
REMARK    4  A    between atoms: C13_15  and  C14_16 
ROOT
HETATM    1  C1  UNL     1      25.718  -0.548  55.516  1.00  0.00     0.070 C 
HETATM    2  C2  UNL     1      26.496   0.191  54.489  1.00  0.00     0.033 A 
HETATM    3  C3  UNL     1      27.886   0.235  54.394  1.00  0.00     0.029 A 
HETATM    4  C4  UNL     1      28.224   1.030  53.301  1.00  0.00     0.035 A 
HETATM    5  C5  UNL     1      27.032   1.459  52.746  1.00  0.00     0.076 A 
HETATM    6  C6  UNL     1      26.808   2.269  51.646  1.00  0.00     0.150 A 
HETATM    7  N1  UNL     1      25.525   2.531  51.320  1.00  0.00    -0.241 NA
HETATM    8  C7  UNL     1      24.504   2.005  52.062  1.00  0.00     0.154 A 
HETATM    9  N3  UNL     1      24.765   1.217  53.131  1.00  0.00    -0.151 NA
HETATM   10  N4  UNL     1      26.018   0.940  53.477  1.00  0.00    -0.235 N 
ENDROOT
BRANCH   8  11
HETATM   11  C8  UNL     1      23.064   2.235  51.784  1.00  0.00     0.087 A 
HETATM   12  C9  UNL     1      22.682   1.824  50.418  1.00  0.00    -0.014 A 
HETATM   13  C10 UNL     1      21.773   1.052  49.853  1.00  0.00    -0.001 A 
HETATM   14  C11 UNL     1      20.890   0.419  50.817  1.00  0.00     0.027 A 
HETATM   15  C12 UNL     1      21.173   0.742  52.064  1.00  0.00     0.045 A 
HETATM   16  C15 UNL     1      22.160   1.584  52.769  1.00  0.00     0.076 A 
BRANCH  15  17
HETATM   17  N2  UNL     1      20.307   0.122  53.037  1.00  0.00    -0.207 NA
BRANCH  17  18
HETATM   18  C13 UNL     1      20.834  -0.776  53.791  1.00  0.00     0.044 C 
BRANCH  18  19
HETATM   19  C14 UNL     1      21.496  -1.567  54.558  1.00  0.00     0.295 C 
HETATM   20  O1  UNL     1      22.331  -1.942  55.399  1.00  0.00    -0.272 OA
ENDBRANCH  18  19
ENDBRANCH  17  18
ENDBRANCH  15  17
ENDBRANCH   8  11
TORSDOF 4
ENDMDL
MODEL 9
REMARK VINA RESULT:      -6.6      2.917      6.519
REMARK  4 active torsions:
REMARK  status: ('A' for Active; 'I' for Inactive)
REMARK    1  A    between atoms: C7_8  and  C8_9 
REMARK    2  A    between atoms: C12_13  and  N2_14 
REMARK    3  A    between atoms: N2_14  and  C13_15 
REMARK    4  A    between atoms: C13_15  and  C14_16 
ROOT
HETATM    1  C1  UNL     1      25.258   6.150  50.085  1.00  0.00     0.070 C 
HETATM    2  C2  UNL     1      24.292   5.148  49.567  1.00  0.00     0.033 A 
HETATM    3  C3  UNL     1      23.622   5.215  48.346  1.00  0.00     0.029 A 
HETATM    4  C4  UNL     1      22.810   4.089  48.231  1.00  0.00     0.035 A 
HETATM    5  C5  UNL     1      22.997   3.352  49.386  1.00  0.00     0.076 A 
HETATM    6  C6  UNL     1      22.428   2.151  49.773  1.00  0.00     0.150 A 
HETATM    7  N1  UNL     1      22.795   1.648  50.970  1.00  0.00    -0.241 NA
HETATM    8  C7  UNL     1      23.694   2.316  51.752  1.00  0.00     0.154 A 
HETATM    9  N3  UNL     1      24.228   3.489  51.338  1.00  0.00    -0.151 NA
HETATM   10  N4  UNL     1      23.888   4.010  50.164  1.00  0.00    -0.235 N 
ENDROOT
BRANCH   8  11
HETATM   11  C8  UNL     1      24.159   1.845  53.080  1.00  0.00     0.087 A 
HETATM   12  C9  UNL     1      24.180   0.372  53.180  1.00  0.00    -0.014 A 
HETATM   13  C10 UNL     1      25.043  -0.568  53.516  1.00  0.00    -0.001 A 
HETATM   14  C11 UNL     1      26.341  -0.035  53.897  1.00  0.00     0.027 A 
HETATM   15  C12 UNL     1      26.395   1.281  53.831  1.00  0.00     0.045 A 
HETATM   16  C15 UNL     1      25.487   2.388  53.469  1.00  0.00     0.076 A 
BRANCH  15  17
HETATM   17  N2  UNL     1      27.676   1.829  54.205  1.00  0.00    -0.207 NA
BRANCH  17  18
HETATM   18  C13 UNL     1      28.706   1.086  53.997  1.00  0.00     0.044 C 
BRANCH  18  19
HETATM   19  C14 UNL     1      29.633   0.212  53.831  1.00  0.00     0.295 C 
HETATM   20  O1  UNL     1      30.168  -0.883  53.587  1.00  0.00    -0.272 OA
ENDBRANCH  18  19
ENDBRANCH  17  18
ENDBRANCH  15  17
ENDBRANCH   8  11
TORSDOF 4
ENDMDL
