MODEL 1
REMARK VINA RESULT:      -7.4      0.000      0.000
REMARK  5 active torsions:
REMARK  status: ('A' for Active; 'I' for Inactive)
REMARK    1  A    between atoms: N1_6  and  C6_7 
REMARK    2  A    between atoms: C7_8  and  C8_9 
REMARK    3  A    between atoms: C8_9  and  C9_10 
REMARK    4  A    between atoms: C15_18  and  N4_19 
REMARK    5  A    between atoms: N4_19  and  C16_20 
ROOT
HETATM    1  C1  UNL     1      21.536   7.202  50.713  1.00  0.00     0.050 C 
HETATM    2  C2  UNL     1      22.359   6.086  51.192  1.00  0.00    -0.037 A 
HETATM    3  C3  UNL     1      21.788   4.993  51.611  1.00  0.00    -0.010 A 
HETATM    4  C4  UNL     1      22.475   3.783  52.123  1.00  0.00     0.106 A 
HETATM    5  C5  UNL     1      23.951   3.947  52.110  1.00  0.00     0.107 A 
HETATM    6  N1  UNL     1      24.656   2.952  52.536  1.00  0.00    -0.247 NA
HETATM    7  N3  UNL     1      24.617   5.123  51.661  1.00  0.00    -0.343 N 
HETATM    8  C14 UNL     1      23.821   6.209  51.196  1.00  0.00     0.054 A 
HETATM    9  C15 UNL     1      24.459   7.270  50.791  1.00  0.00     0.114 C 
HETATM   10  H15 UNL     1      25.653   5.156  51.686  1.00  0.00     0.167 HD
ENDROOT
BRANCH   6  11
HETATM   11  C6  UNL     1      23.948   1.799  52.974  1.00  0.00     0.115 C 
HETATM   12  C7  UNL     1      24.582   0.691  52.592  1.00  0.00    -0.003 C 
BRANCH  12  13
HETATM   13  C8  UNL     1      25.857   0.749  51.814  1.00  0.00     0.068 C 
BRANCH  13  14
HETATM   14  C9  UNL     1      27.031   0.326  52.615  1.00  0.00    -0.037 A 
HETATM   15  C10 UNL     1      27.925   1.241  53.178  1.00  0.00     0.010 A 
HETATM   16  C11 UNL     1      28.979   0.729  53.902  1.00  0.00     0.020 A 
HETATM   17  C12 UNL     1      29.235  -0.597  54.122  1.00  0.00     0.116 A 
HETATM   18  N2  UNL     1      28.364  -1.465  53.572  1.00  0.00    -0.273 NA
HETATM   19  C13 UNL     1      27.305  -1.016  52.847  1.00  0.00     0.123 A 
ENDBRANCH  13  14
ENDBRANCH  12  13
ENDBRANCH   6  11
BRANCH   9  20
HETATM   20  N4  UNL     1      25.888   7.404  50.790  1.00  0.00    -0.388 N 
HETATM   21  H17 UNL     1      26.205   7.265  51.755  1.00  0.00     0.159 HD
BRANCH  20  22
HETATM   22  C16 UNL     1      26.324   7.682  49.427  1.00  0.00     0.204 C 
HETATM   23 BR1  UNL     1      27.038   6.102  48.582  1.00  0.00    -0.075 Br
ENDBRANCH  20  22
ENDBRANCH   9  20
TORSDOF 5
ENDMDL
MODEL 2
REMARK VINA RESULT:      -7.3      3.080      7.061
REMARK  5 active torsions:
REMARK  status: ('A' for Active; 'I' for Inactive)
REMARK    1  A    between atoms: N1_6  and  C6_7 
REMARK    2  A    between atoms: C7_8  and  C8_9 
REMARK    3  A    between atoms: C8_9  and  C9_10 
REMARK    4  A    between atoms: C15_18  and  N4_19 
REMARK    5  A    between atoms: N4_19  and  C16_20 
ROOT
HETATM    1  C1  UNL     1      23.038  -0.882  54.387  1.00  0.00     0.050 C 
HETATM    2  C2  UNL     1      23.696   0.036  53.450  1.00  0.00    -0.037 A 
HETATM    3  C3  UNL     1      22.983   0.884  52.765  1.00  0.00    -0.010 A 
HETATM    4  C4  UNL     1      23.493   1.871  51.784  1.00  0.00     0.106 A 
HETATM    5  C5  UNL     1      24.971   1.797  51.654  1.00  0.00     0.107 A 
HETATM    6  N1  UNL     1      25.529   2.614  50.824  1.00  0.00    -0.247 NA
HETATM    7  N3  UNL     1      25.789   0.887  52.383  1.00  0.00    -0.343 N 
HETATM    8  C14 UNL     1      25.154  -0.006  53.293  1.00  0.00     0.054 A 
HETATM    9  C15 UNL     1      25.929  -0.825  53.945  1.00  0.00     0.114 C 
HETATM   10  H15 UNL     1      26.815   0.900  52.232  1.00  0.00     0.167 HD
ENDROOT
BRANCH   6  11
HETATM   11  C6  UNL     1      24.672   3.504  50.119  1.00  0.00     0.115 C 
HETATM   12  C7  UNL     1      25.384   4.303  49.325  1.00  0.00    -0.003 C 
BRANCH  12  13
HETATM   13  C8  UNL     1      26.874   4.205  49.250  1.00  0.00     0.068 C 
BRANCH  13  14
HETATM   14  C9  UNL     1      27.488   5.384  48.594  1.00  0.00    -0.037 A 
HETATM   15  C10 UNL     1      26.758   6.532  48.273  1.00  0.00     0.010 A 
HETATM   16  C11 UNL     1      27.439   7.563  47.666  1.00  0.00     0.020 A 
HETATM   17  C12 UNL     1      28.770   7.570  47.344  1.00  0.00     0.116 A 
HETATM   18  N2  UNL     1      29.458   6.456  47.660  1.00  0.00    -0.273 NA
HETATM   19  C13 UNL     1      28.837   5.406  48.262  1.00  0.00     0.123 A 
ENDBRANCH  13  14
ENDBRANCH  12  13
ENDBRANCH   6  11
BRANCH   9  20
HETATM   20  N4  UNL     1      27.356  -0.877  53.800  1.00  0.00    -0.388 N 
HETATM   21  H17 UNL     1      27.554  -1.451  52.974  1.00  0.00     0.159 HD
BRANCH  20  22
HETATM   22  C16 UNL     1      27.958  -0.099  54.876  1.00  0.00     0.204 C 
HETATM   23 BR1  UNL     1      29.050   1.331  54.181  1.00  0.00    -0.075 Br
ENDBRANCH  20  22
ENDBRANCH   9  20
TORSDOF 5
ENDMDL
MODEL 3
REMARK VINA RESULT:      -7.2      2.204      3.072
REMARK  5 active torsions:
REMARK  status: ('A' for Active; 'I' for Inactive)
REMARK    1  A    between atoms: N1_6  and  C6_7 
REMARK    2  A    between atoms: C7_8  and  C8_9 
REMARK    3  A    between atoms: C8_9  and  C9_10 
REMARK    4  A    between atoms: C15_18  and  N4_19 
REMARK    5  A    between atoms: N4_19  and  C16_20 
ROOT
HETATM    1  C1  UNL     1      27.839   5.813  48.356  1.00  0.00     0.050 C 
HETATM    2  C2  UNL     1      26.813   5.113  49.138  1.00  0.00    -0.037 A 
HETATM    3  C3  UNL     1      26.746   3.812  49.101  1.00  0.00    -0.010 A 
HETATM    4  C4  UNL     1      25.774   2.961  49.828  1.00  0.00     0.106 A 
HETATM    5  C5  UNL     1      24.839   3.777  50.644  1.00  0.00     0.107 A 
HETATM    6  N1  UNL     1      23.944   3.140  51.325  1.00  0.00    -0.247 NA
HETATM    7  N3  UNL     1      24.876   5.199  50.715  1.00  0.00    -0.343 N 
HETATM    8  C14 UNL     1      25.871   5.882  49.957  1.00  0.00     0.054 A 
HETATM    9  C15 UNL     1      25.880   7.182  50.042  1.00  0.00     0.114 C 
HETATM   10  H15 UNL     1      24.186   5.693  51.309  1.00  0.00     0.167 HD
ENDROOT
BRANCH   6  11
HETATM   11  C6  UNL     1      23.945   1.722  51.224  1.00  0.00     0.115 C 
HETATM   12  C7  UNL     1      24.538   1.181  52.287  1.00  0.00    -0.003 C 
BRANCH  12  13
HETATM   13  C8  UNL     1      25.096   2.026  53.386  1.00  0.00     0.068 C 
BRANCH  13  14
HETATM   14  C9  UNL     1      26.460   1.608  53.788  1.00  0.00    -0.037 A 
HETATM   15  C10 UNL     1      27.603   2.327  53.427  1.00  0.00     0.010 A 
HETATM   16  C11 UNL     1      28.817   1.841  53.861  1.00  0.00     0.020 A 
HETATM   17  C12 UNL     1      29.010   0.715  54.614  1.00  0.00     0.116 A 
HETATM   18  N2  UNL     1      27.898   0.034  54.953  1.00  0.00    -0.273 NA
HETATM   19  C13 UNL     1      26.672   0.468  54.553  1.00  0.00     0.123 A 
ENDBRANCH  13  14
ENDBRANCH  12  13
ENDBRANCH   6  11
BRANCH   9  20
HETATM   20  N4  UNL     1      24.964   7.947  50.839  1.00  0.00    -0.388 N 
HETATM   21  H17 UNL     1      25.301   7.911  51.806  1.00  0.00     0.159 HD
BRANCH  20  22
HETATM   22  C16 UNL     1      23.920   8.473  49.966  1.00  0.00     0.204 C 
HETATM   23 BR1  UNL     1      22.218   7.641  50.327  1.00  0.00    -0.075 Br
ENDBRANCH  20  22
ENDBRANCH   9  20
TORSDOF 5
ENDMDL
MODEL 4
REMARK VINA RESULT:      -7.2      2.232      2.666
REMARK  5 active torsions:
REMARK  status: ('A' for Active; 'I' for Inactive)
REMARK    1  A    between atoms: N1_6  and  C6_7 
REMARK    2  A    between atoms: C7_8  and  C8_9 
REMARK    3  A    between atoms: C8_9  and  C9_10 
REMARK    4  A    between atoms: C15_18  and  N4_19 
REMARK    5  A    between atoms: N4_19  and  C16_20 
ROOT
HETATM    1  C1  UNL     1      24.418   6.883  47.993  1.00  0.00     0.050 C 
HETATM    2  C2  UNL     1      24.907   5.762  48.804  1.00  0.00    -0.037 A 
HETATM    3  C3  UNL     1      24.059   4.935  49.344  1.00  0.00    -0.010 A 
HETATM    4  C4  UNL     1      24.391   3.760  50.185  1.00  0.00     0.106 A 
HETATM    5  C5  UNL     1      25.858   3.611  50.359  1.00  0.00     0.107 A 
HETATM    6  N1  UNL     1      26.267   2.617  51.076  1.00  0.00    -0.247 NA
HETATM    7  N3  UNL     1      26.821   4.491  49.787  1.00  0.00    -0.343 N 
HETATM    8  C14 UNL     1      26.350   5.580  48.999  1.00  0.00     0.054 A 
HETATM    9  C15 UNL     1      27.254   6.367  48.489  1.00  0.00     0.114 C 
HETATM   10  H15 UNL     1      27.829   4.316  49.958  1.00  0.00     0.167 HD
ENDROOT
BRANCH   6  11
HETATM   11  C6  UNL     1      25.270   1.765  51.627  1.00  0.00     0.115 C 
HETATM   12  C7  UNL     1      25.715   1.193  52.745  1.00  0.00    -0.003 C 
BRANCH  12  13
HETATM   13  C8  UNL     1      27.085   1.467  53.272  1.00  0.00     0.068 C 
BRANCH  13  14
HETATM   14  C9  UNL     1      27.930   0.249  53.322  1.00  0.00    -0.037 A 
HETATM   15  C10 UNL     1      29.295   0.293  53.618  1.00  0.00     0.010 A 
HETATM   16  C11 UNL     1      29.975  -0.905  53.635  1.00  0.00     0.020 A 
HETATM   17  C12 UNL     1      29.438  -2.139  53.389  1.00  0.00     0.116 A 
HETATM   18  N2  UNL     1      28.121  -2.163  53.106  1.00  0.00    -0.273 NA
HETATM   19  C13 UNL     1      27.399  -1.011  53.075  1.00  0.00     0.123 A 
ENDBRANCH  13  14
ENDBRANCH  12  13
ENDBRANCH   6  11
BRANCH   9  20
HETATM   20  N4  UNL     1      28.668   6.201  48.673  1.00  0.00    -0.388 N 
HETATM   21  H17 UNL     1      28.825   5.224  48.941  1.00  0.00     0.159 HD
BRANCH  20  22
HETATM   22  C16 UNL     1      29.321   7.478  48.409  1.00  0.00     0.204 C 
HETATM   23 BR1  UNL     1      29.315   7.893  46.525  1.00  0.00    -0.075 Br
ENDBRANCH  20  22
ENDBRANCH   9  20
TORSDOF 5
ENDMDL
MODEL 5
REMARK VINA RESULT:      -7.2      3.929      7.067
REMARK  5 active torsions:
REMARK  status: ('A' for Active; 'I' for Inactive)
REMARK    1  A    between atoms: N1_6  and  C6_7 
REMARK    2  A    between atoms: C7_8  and  C8_9 
REMARK    3  A    between atoms: C8_9  and  C9_10 
REMARK    4  A    between atoms: C15_18  and  N4_19 
REMARK    5  A    between atoms: N4_19  and  C16_20 
ROOT
HETATM    1  C1  UNL     1      21.301  -1.576  54.205  1.00  0.00     0.050 C 
HETATM    2  C2  UNL     1      22.178  -0.622  53.518  1.00  0.00    -0.037 A 
HETATM    3  C3  UNL     1      23.418  -0.494  53.895  1.00  0.00    -0.010 A 
HETATM    4  C4  UNL     1      24.426   0.420  53.308  1.00  0.00     0.106 A 
HETATM    5  C5  UNL     1      23.855   1.216  52.191  1.00  0.00     0.107 A 
HETATM    6  N1  UNL     1      24.645   2.051  51.600  1.00  0.00    -0.247 NA
HETATM    7  N3  UNL     1      22.507   1.110  51.746  1.00  0.00    -0.343 N 
HETATM    8  C14 UNL     1      21.652   0.184  52.410  1.00  0.00     0.054 A 
HETATM    9  C15 UNL     1      20.424   0.108  51.981  1.00  0.00     0.114 C 
HETATM   10  H15 UNL     1      22.187   1.703  50.958  1.00  0.00     0.167 HD
ENDROOT
BRANCH   6  11
HETATM   11  C6  UNL     1      25.982   2.123  52.079  1.00  0.00     0.115 C 
HETATM   12  C7  UNL     1      26.793   2.577  51.124  1.00  0.00    -0.003 C 
BRANCH  12  13
HETATM   13  C8  UNL     1      26.280   2.936  49.768  1.00  0.00     0.068 C 
BRANCH  13  14
HETATM   14  C9  UNL     1      26.495   4.365  49.438  1.00  0.00    -0.037 A 
HETATM   15  C10 UNL     1      27.564   4.802  48.651  1.00  0.00     0.010 A 
HETATM   16  C11 UNL     1      27.660   6.155  48.412  1.00  0.00     0.020 A 
HETATM   17  C12 UNL     1      26.803   7.116  48.875  1.00  0.00     0.116 A 
HETATM   18  N2  UNL     1      25.778   6.678  49.632  1.00  0.00    -0.273 NA
HETATM   19  C13 UNL     1      25.634   5.353  49.900  1.00  0.00     0.123 A 
ENDBRANCH  13  14
ENDBRANCH  12  13
ENDBRANCH   6  11
BRANCH   9  20
HETATM   20  N4  UNL     1      19.897   0.890  50.899  1.00  0.00    -0.388 N 
HETATM   21  H17 UNL     1      20.671   1.446  50.523  1.00  0.00     0.159 HD
BRANCH  20  22
HETATM   22  C16 UNL     1      18.477   0.588  50.760  1.00  0.00     0.204 C 
HETATM   23 BR1  UNL     1      17.878  -0.617  52.141  1.00  0.00    -0.075 Br
ENDBRANCH  20  22
ENDBRANCH   9  20
TORSDOF 5
ENDMDL
MODEL 6
REMARK VINA RESULT:      -7.1      2.897      4.736
REMARK  5 active torsions:
REMARK  status: ('A' for Active; 'I' for Inactive)
REMARK    1  A    between atoms: N1_6  and  C6_7 
REMARK    2  A    between atoms: C7_8  and  C8_9 
REMARK    3  A    between atoms: C8_9  and  C9_10 
REMARK    4  A    between atoms: C15_18  and  N4_19 
REMARK    5  A    between atoms: N4_19  and  C16_20 
ROOT
HETATM    1  C1  UNL     1      27.195   6.698  48.145  1.00  0.00     0.050 C 
HETATM    2  C2  UNL     1      26.586   5.727  49.061  1.00  0.00    -0.037 A 
HETATM    3  C3  UNL     1      26.929   4.473  48.997  1.00  0.00    -0.010 A 
HETATM    4  C4  UNL     1      26.410   3.375  49.847  1.00  0.00     0.106 A 
HETATM    5  C5  UNL     1      25.411   3.870  50.828  1.00  0.00     0.107 A 
HETATM    6  N1  UNL     1      24.888   2.998  51.625  1.00  0.00    -0.247 NA
HETATM    7  N3  UNL     1      25.007   5.231  50.934  1.00  0.00    -0.343 N 
HETATM    8  C14 UNL     1      25.595   6.177  50.045  1.00  0.00     0.054 A 
HETATM    9  C15 UNL     1      25.206   7.414  50.166  1.00  0.00     0.114 C 
HETATM   10  H15 UNL     1      24.302   5.495  51.647  1.00  0.00     0.167 HD
ENDROOT
BRANCH   6  11
HETATM   11  C6  UNL     1      25.322   1.651  51.483  1.00  0.00     0.115 C 
HETATM   12  C7  UNL     1      24.619   0.850  52.282  1.00  0.00    -0.003 C 
BRANCH  12  13
HETATM   13  C8  UNL     1      23.542   1.382  53.171  1.00  0.00     0.068 C 
BRANCH  13  14
HETATM   14  C9  UNL     1      22.518   0.360  53.498  1.00  0.00    -0.037 A 
HETATM   15  C10 UNL     1      22.817  -0.802  54.213  1.00  0.00     0.010 A 
HETATM   16  C11 UNL     1      21.782  -1.677  54.456  1.00  0.00     0.020 A 
HETATM   17  C12 UNL     1      20.482  -1.515  54.061  1.00  0.00     0.116 A 
HETATM   18  N2  UNL     1      20.210  -0.390  53.372  1.00  0.00    -0.273 NA
HETATM   19  C13 UNL     1      21.194   0.510  53.103  1.00  0.00     0.123 A 
ENDBRANCH  13  14
ENDBRANCH  12  13
ENDBRANCH   6  11
BRANCH   9  20
HETATM   20  N4  UNL     1      24.238   7.868  51.124  1.00  0.00    -0.388 N 
HETATM   21  H17 UNL     1      24.719   7.946  52.026  1.00  0.00     0.159 HD
BRANCH  20  22
HETATM   22  C16 UNL     1      22.960   8.038  50.443  1.00  0.00     0.204 C 
HETATM   23 BR1  UNL     1      23.199   8.758  48.670  1.00  0.00    -0.075 Br
ENDBRANCH  20  22
ENDBRANCH   9  20
TORSDOF 5
ENDMDL
MODEL 7
REMARK VINA RESULT:      -7.0      3.040      6.763
REMARK  5 active torsions:
REMARK  status: ('A' for Active; 'I' for Inactive)
REMARK    1  A    between atoms: N1_6  and  C6_7 
REMARK    2  A    between atoms: C7_8  and  C8_9 
REMARK    3  A    between atoms: C8_9  and  C9_10 
REMARK    4  A    between atoms: C15_18  and  N4_19 
REMARK    5  A    between atoms: N4_19  and  C16_20 
ROOT
HETATM    1  C1  UNL     1      21.783  -1.107  54.642  1.00  0.00     0.050 C 
HETATM    2  C2  UNL     1      22.373  -0.253  53.606  1.00  0.00    -0.037 A 
HETATM    3  C3  UNL     1      21.600   0.448  52.827  1.00  0.00    -0.010 A 
HETATM    4  C4  UNL     1      22.037   1.354  51.738  1.00  0.00     0.106 A 
HETATM    5  C5  UNL     1      23.517   1.386  51.617  1.00  0.00     0.107 A 
HETATM    6  N1  UNL     1      24.015   2.145  50.697  1.00  0.00    -0.247 NA
HETATM    7  N3  UNL     1      24.400   0.637  52.446  1.00  0.00    -0.343 N 
HETATM    8  C14 UNL     1      23.831  -0.194  53.453  1.00  0.00     0.054 A 
HETATM    9  C15 UNL     1      24.664  -0.866  54.196  1.00  0.00     0.114 C 
HETATM   10  H15 UNL     1      25.422   0.716  52.294  1.00  0.00     0.167 HD
ENDROOT
BRANCH   6  11
HETATM   11  C6  UNL     1      23.095   2.874  49.894  1.00  0.00     0.115 C 
HETATM   12  C7  UNL     1      23.371   4.177  49.938  1.00  0.00    -0.003 C 
BRANCH  12  13
HETATM   13  C8  UNL     1      24.510   4.708  50.746  1.00  0.00     0.068 C 
BRANCH  13  14
HETATM   14  C9  UNL     1      25.642   5.165  49.904  1.00  0.00    -0.037 A 
HETATM   15  C10 UNL     1      26.561   4.279  49.337  1.00  0.00     0.010 A 
HETATM   16  C11 UNL     1      27.571   4.822  48.573  1.00  0.00     0.020 A 
HETATM   17  C12 UNL     1      27.758   6.153  48.316  1.00  0.00     0.116 A 
HETATM   18  N2  UNL     1      26.863   6.993  48.870  1.00  0.00    -0.273 NA
HETATM   19  C13 UNL     1      25.845   6.512  49.634  1.00  0.00     0.123 A 
ENDBRANCH  13  14
ENDBRANCH  12  13
ENDBRANCH   6  11
BRANCH   9  20
HETATM   20  N4  UNL     1      26.092  -0.818  54.057  1.00  0.00    -0.388 N 
HETATM   21  H17 UNL     1      26.337  -1.404  53.253  1.00  0.00     0.159 HD
BRANCH  20  22
HETATM   22  C16 UNL     1      26.629   0.039  55.107  1.00  0.00     0.204 C 
HETATM   23 BR1  UNL     1      28.501   0.406  54.826  1.00  0.00    -0.075 Br
ENDBRANCH  20  22
ENDBRANCH   9  20
TORSDOF 5
ENDMDL
MODEL 8
REMARK VINA RESULT:      -6.9      3.647      6.963
REMARK  5 active torsions:
REMARK  status: ('A' for Active; 'I' for Inactive)
REMARK    1  A    between atoms: N1_6  and  C6_7 
REMARK    2  A    between atoms: C7_8  and  C8_9 
REMARK    3  A    between atoms: C8_9  and  C9_10 
REMARK    4  A    between atoms: C15_18  and  N4_19 
REMARK    5  A    between atoms: N4_19  and  C16_20 
ROOT
HETATM    1  C1  UNL     1      28.696   0.858  53.234  1.00  0.00     0.050 C 
HETATM    2  C2  UNL     1      27.246   0.632  53.230  1.00  0.00    -0.037 A 
HETATM    3  C3  UNL     1      26.740  -0.341  53.932  1.00  0.00    -0.010 A 
HETATM    4  C4  UNL     1      25.305  -0.698  54.033  1.00  0.00     0.106 A 
HETATM    5  C5  UNL     1      24.458   0.209  53.216  1.00  0.00     0.107 A 
HETATM    6  N1  UNL     1      23.184  -0.008  53.228  1.00  0.00    -0.247 NA
HETATM    7  N3  UNL     1      24.968   1.285  52.435  1.00  0.00    -0.343 N 
HETATM    8  C14 UNL     1      26.375   1.507  52.437  1.00  0.00     0.054 A 
HETATM    9  C15 UNL     1      26.812   2.498  51.713  1.00  0.00     0.114 C 
HETATM   10  H15 UNL     1      24.308   1.871  51.893  1.00  0.00     0.167 HD
ENDROOT
BRANCH   6  11
HETATM   11  C6  UNL     1      22.721  -1.093  54.022  1.00  0.00     0.115 C 
HETATM   12  C7  UNL     1      21.477  -0.865  54.439  1.00  0.00    -0.003 C 
BRANCH  12  13
HETATM   13  C8  UNL     1      20.746   0.386  54.074  1.00  0.00     0.068 C 
BRANCH  13  14
HETATM   14  C9  UNL     1      19.722   0.162  53.025  1.00  0.00    -0.037 A 
HETATM   15  C10 UNL     1      18.690  -0.768  53.169  1.00  0.00     0.010 A 
HETATM   16  C11 UNL     1      17.798  -0.887  52.126  1.00  0.00     0.020 A 
HETATM   17  C12 UNL     1      17.828  -0.177  50.957  1.00  0.00     0.116 A 
HETATM   18  N2  UNL     1      18.830   0.715  50.834  1.00  0.00    -0.273 NA
HETATM   19  C13 UNL     1      19.740   0.875  51.833  1.00  0.00     0.123 A 
ENDBRANCH  13  14
ENDBRANCH  12  13
ENDBRANCH   6  11
BRANCH   9  20
HETATM   20  N4  UNL     1      25.971   3.361  50.932  1.00  0.00    -0.388 N 
HETATM   21  H17 UNL     1      25.112   3.513  51.469  1.00  0.00     0.159 HD
BRANCH  20  22
HETATM   22  C16 UNL     1      26.665   3.679  49.689  1.00  0.00     0.204 C 
HETATM   23 BR1  UNL     1      26.175   5.428  49.040  1.00  0.00    -0.075 Br
ENDBRANCH  20  22
ENDBRANCH   9  20
TORSDOF 5
ENDMDL
MODEL 9
REMARK VINA RESULT:      -6.8      5.034      6.111
REMARK  5 active torsions:
REMARK  status: ('A' for Active; 'I' for Inactive)
REMARK    1  A    between atoms: N1_6  and  C6_7 
REMARK    2  A    between atoms: C7_8  and  C8_9 
REMARK    3  A    between atoms: C8_9  and  C9_10 
REMARK    4  A    between atoms: C15_18  and  N4_19 
REMARK    5  A    between atoms: N4_19  and  C16_20 
ROOT
HETATM    1  C1  UNL     1      16.667  -0.874  52.086  1.00  0.00     0.050 C 
HETATM    2  C2  UNL     1      18.095  -0.701  52.377  1.00  0.00    -0.037 A 
HETATM    3  C3  UNL     1      18.596  -1.189  53.475  1.00  0.00    -0.010 A 
HETATM    4  C4  UNL     1      20.010  -1.101  53.912  1.00  0.00     0.106 A 
HETATM    5  C5  UNL     1      20.841  -0.365  52.924  1.00  0.00     0.107 A 
HETATM    6  N1  UNL     1      22.095  -0.225  53.199  1.00  0.00    -0.247 NA
HETATM    7  N3  UNL     1      20.335   0.185  51.711  1.00  0.00    -0.343 N 
HETATM    8  C14 UNL     1      18.949   0.019  51.426  1.00  0.00     0.054 A 
HETATM    9  C15 UNL     1      18.517   0.533  50.310  1.00  0.00     0.114 C 
HETATM   10  H15 UNL     1      20.983   0.685  51.076  1.00  0.00     0.167 HD
ENDROOT
BRANCH   6  11
HETATM   11  C6  UNL     1      22.555  -0.790  54.421  1.00  0.00     0.115 C 
HETATM   12  C7  UNL     1      23.887  -0.811  54.450  1.00  0.00    -0.003 C 
BRANCH  12  13
HETATM   13  C8  UNL     1      24.703  -0.292  53.312  1.00  0.00     0.068 C 
BRANCH  13  14
HETATM   14  C9  UNL     1      26.154  -0.273  53.614  1.00  0.00    -0.037 A 
HETATM   15  C10 UNL     1      27.106  -0.845  52.766  1.00  0.00     0.010 A 
HETATM   16  C11 UNL     1      28.425  -0.764  53.153  1.00  0.00     0.020 A 
HETATM   17  C12 UNL     1      28.894  -0.175  54.295  1.00  0.00     0.116 A 
HETATM   18  N2  UNL     1      27.963   0.372  55.102  1.00  0.00    -0.273 NA
HETATM   19  C13 UNL     1      26.645   0.322  54.769  1.00  0.00     0.123 A 
ENDBRANCH  13  14
ENDBRANCH  12  13
ENDBRANCH   6  11
BRANCH   9  20
HETATM   20  N4  UNL     1      19.341   1.241  49.372  1.00  0.00    -0.388 N 
HETATM   21  H17 UNL     1      19.866   0.538  48.841  1.00  0.00     0.159 HD
BRANCH  20  22
HETATM   22  C16 UNL     1      19.109   2.670  49.540  1.00  0.00     0.204 C 
HETATM   23 BR1  UNL     1      17.239   3.051  49.817  1.00  0.00    -0.075 Br
ENDBRANCH  20  22
ENDBRANCH   9  20
TORSDOF 5
ENDMDL
