MODEL 1
REMARK VINA RESULT:      -8.8      0.000      0.000
REMARK  4 active torsions:
REMARK  status: ('A' for Active; 'I' for Inactive)
REMARK    1  A    between atoms: C2_2  and  S1_3 
REMARK    2  A    between atoms: S1_3  and  N1_6 
REMARK    3  A    between atoms: C10_16  and  C11_17 
REMARK    4  A    between atoms: C17_23  and  O3_24 
ROOT
HETATM    1  N1  UNL     1      19.292   2.276  50.375  1.00  0.00    -0.202 NA
HETATM    2  C3  UNL     1      20.640   2.496  50.788  1.00  0.00     0.112 C 
HETATM    3  C4  UNL     1      21.466   1.269  50.929  1.00  0.00     0.056 C 
HETATM    4  C5  UNL     1      21.051   0.350  52.003  1.00  0.00    -0.028 A 
HETATM    5  C6  UNL     1      19.654   0.404  51.823  1.00  0.00     0.006 A 
HETATM    6  S2  UNL     1      18.990  -0.720  53.075  1.00  0.00    -0.073 SA
HETATM    7  C7  UNL     1      20.568  -1.197  53.784  1.00  0.00     0.107 A 
HETATM    8  C8  UNL     1      21.442  -0.479  53.012  1.00  0.00     0.022 A 
HETATM    9  C9  UNL     1      22.746  -0.582  53.049  1.00  0.00     0.098 C 
HETATM   10  N2  UNL     1      24.004  -0.983  53.466  1.00  0.00    -0.385 N 
HETATM   11  C10 UNL     1      24.899  -0.447  54.532  1.00  0.00     0.161 C 
HETATM   12  C17 UNL     1      24.516  -1.352  55.716  1.00  0.00     0.233 C 
HETATM   13  N3  UNL     1      23.047  -1.251  55.706  1.00  0.00    -0.395 NA
HETATM   14  C18 UNL     1      22.398  -1.971  54.859  1.00  0.00     0.440 C 
HETATM   15  N4  UNL     1      20.964  -2.006  54.679  1.00  0.00    -0.250 NA
HETATM   16  C19 UNL     1      18.696   1.092  50.940  1.00  0.00     0.154 C 
HETATM   17  H9  UNL     1      24.497  -1.839  53.040  1.00  0.00     0.159 HD
ENDROOT
BRANCH  11  18
HETATM   18  C11 UNL     1      26.279  -0.550  54.100  1.00  0.00    -0.031 A 
HETATM   19  C12 UNL     1      27.244   0.170  54.774  1.00  0.00     0.009 A 
HETATM   20  C13 UNL     1      28.584   0.184  54.528  1.00  0.00     0.001 A 
HETATM   21  C14 UNL     1      29.042  -0.620  53.472  1.00  0.00     0.000 A 
HETATM   22  C15 UNL     1      28.075  -1.366  52.768  1.00  0.00     0.001 A 
HETATM   23  C16 UNL     1      26.696  -1.344  53.064  1.00  0.00     0.009 A 
ENDBRANCH  11  18
BRANCH  12  24
HETATM   24  O3  UNL     1      25.079  -1.003  56.856  1.00  0.00    -0.376 OA
HETATM   25  H17 UNL     1      25.998  -0.708  56.851  1.00  0.00     0.212 HD
ENDBRANCH  12  24
BRANCH   1  26
HETATM   26  S1  UNL     1      18.347   3.680  50.502  1.00  0.00     0.233 S 
HETATM   27  O1  UNL     1      17.108   3.583  49.690  1.00  0.00    -0.207 OA
HETATM   28  O2  UNL     1      17.922   3.834  51.960  1.00  0.00    -0.207 OA
BRANCH  26  29
HETATM   29  C2  UNL     1      19.244   5.112  50.010  1.00  0.00     0.115 C 
HETATM   30  C1  UNL     1      19.536   5.455  48.768  1.00  0.00     0.024 C 
ENDBRANCH  26  29
ENDBRANCH   1  26
TORSDOF 4
ENDMDL
MODEL 2
REMARK VINA RESULT:      -8.8      6.378      7.183
REMARK  4 active torsions:
REMARK  status: ('A' for Active; 'I' for Inactive)
REMARK    1  A    between atoms: C2_2  and  S1_3 
REMARK    2  A    between atoms: S1_3  and  N1_6 
REMARK    3  A    between atoms: C10_16  and  C11_17 
REMARK    4  A    between atoms: C17_23  and  O3_24 
ROOT
HETATM    1  N1  UNL     1      27.510   6.676  47.769  1.00  0.00    -0.202 NA
HETATM    2  C3  UNL     1      28.238   5.726  48.545  1.00  0.00     0.112 C 
HETATM    3  C4  UNL     1      27.536   4.439  48.788  1.00  0.00     0.056 C 
HETATM    4  C5  UNL     1      26.326   4.529  49.625  1.00  0.00    -0.028 A 
HETATM    5  C6  UNL     1      25.762   5.703  49.084  1.00  0.00     0.006 A 
HETATM    6  S2  UNL     1      24.223   5.933  50.004  1.00  0.00    -0.073 SA
HETATM    7  C7  UNL     1      24.395   4.494  51.062  1.00  0.00     0.107 A 
HETATM    8  C8  UNL     1      25.581   3.972  50.621  1.00  0.00     0.022 A 
HETATM    9  C9  UNL     1      26.090   2.826  50.994  1.00  0.00     0.098 C 
HETATM   10  N2  UNL     1      26.241   1.640  51.694  1.00  0.00    -0.385 N 
HETATM   11  C10 UNL     1      26.893   1.353  53.004  1.00  0.00     0.161 C 
HETATM   12  C17 UNL     1      25.687   1.444  53.955  1.00  0.00     0.233 C 
HETATM   13  N3  UNL     1      25.093   2.732  53.563  1.00  0.00    -0.395 NA
HETATM   14  C18 UNL     1      24.351   2.761  52.512  1.00  0.00     0.440 C 
HETATM   15  N4  UNL     1      23.694   3.922  51.953  1.00  0.00    -0.250 NA
HETATM   16  C19 UNL     1      26.096   6.692  48.044  1.00  0.00     0.154 C 
HETATM   17  H9  UNL     1      25.824   0.715  51.338  1.00  0.00     0.159 HD
ENDROOT
BRANCH  11  18
HETATM   18  C11 UNL     1      27.536   0.055  52.949  1.00  0.00    -0.031 A 
HETATM   19  C12 UNL     1      28.857  -0.052  53.334  1.00  0.00     0.009 A 
HETATM   20  C13 UNL     1      29.617  -1.182  53.369  1.00  0.00     0.001 A 
HETATM   21  C14 UNL     1      28.995  -2.375  52.968  1.00  0.00     0.000 A 
HETATM   22  C15 UNL     1      27.645  -2.293  52.570  1.00  0.00     0.001 A 
HETATM   23  C16 UNL     1      26.902  -1.093  52.552  1.00  0.00     0.009 A 
ENDBRANCH  11  18
BRANCH  12  24
HETATM   24  O3  UNL     1      26.008   1.356  55.231  1.00  0.00    -0.376 OA
HETATM   25  H17 UNL     1      26.889   1.046  55.470  1.00  0.00     0.212 HD
ENDBRANCH  12  24
BRANCH   1  26
HETATM   26  S1  UNL     1      28.251   8.203  47.767  1.00  0.00     0.233 S 
HETATM   27  O1  UNL     1      29.680   8.120  48.164  1.00  0.00    -0.207 OA
HETATM   28  O2  UNL     1      28.207   8.749  46.343  1.00  0.00    -0.207 OA
BRANCH  26  29
HETATM   29  C2  UNL     1      27.423   9.327  48.840  1.00  0.00     0.115 C 
HETATM   30  C1  UNL     1      27.435   9.289  50.161  1.00  0.00     0.024 C 
ENDBRANCH  26  29
ENDBRANCH   1  26
TORSDOF 4
ENDMDL
MODEL 3
REMARK VINA RESULT:      -8.8      3.266      8.560
REMARK  4 active torsions:
REMARK  status: ('A' for Active; 'I' for Inactive)
REMARK    1  A    between atoms: C2_2  and  S1_3 
REMARK    2  A    between atoms: S1_3  and  N1_6 
REMARK    3  A    between atoms: C10_16  and  C11_17 
REMARK    4  A    between atoms: C17_23  and  O3_24 
ROOT
HETATM    1  N1  UNL     1      26.953   0.725  52.858  1.00  0.00    -0.202 NA
HETATM    2  C3  UNL     1      25.681   0.333  53.373  1.00  0.00     0.112 C 
HETATM    3  C4  UNL     1      24.612   0.166  52.355  1.00  0.00     0.056 C 
HETATM    4  C5  UNL     1      24.202   1.401  51.664  1.00  0.00    -0.028 A 
HETATM    5  C6  UNL     1      25.471   1.981  51.459  1.00  0.00     0.006 A 
HETATM    6  S2  UNL     1      25.130   3.521  50.575  1.00  0.00    -0.073 SA
HETATM    7  C7  UNL     1      23.345   3.342  50.526  1.00  0.00     0.107 A 
HETATM    8  C8  UNL     1      23.174   2.144  51.167  1.00  0.00     0.022 A 
HETATM    9  C9  UNL     1      22.040   1.499  51.275  1.00  0.00     0.098 C 
HETATM   10  N2  UNL     1      20.684   1.235  51.181  1.00  0.00    -0.385 N 
HETATM   11  C10 UNL     1      19.552   1.592  52.085  1.00  0.00     0.161 C 
HETATM   12  C17 UNL     1      19.066   2.900  51.438  1.00  0.00     0.233 C 
HETATM   13  N3  UNL     1      20.322   3.655  51.307  1.00  0.00    -0.395 NA
HETATM   14  C18 UNL     1      21.095   3.375  50.317  1.00  0.00     0.440 C 
HETATM   15  N4  UNL     1      22.373   3.985  50.022  1.00  0.00    -0.250 NA
HETATM   16  C19 UNL     1      26.876   1.660  51.765  1.00  0.00     0.154 C 
HETATM   17  H9  UNL     1      20.263   0.722  50.334  1.00  0.00     0.159 HD
ENDROOT
BRANCH  11  18
HETATM   18  C11 UNL     1      18.584   0.513  52.094  1.00  0.00    -0.031 A 
HETATM   19  C12 UNL     1      18.705  -0.483  53.042  1.00  0.00     0.009 A 
HETATM   20  C13 UNL     1      17.887  -1.557  53.218  1.00  0.00     0.001 A 
HETATM   21  C14 UNL     1      16.796  -1.673  52.341  1.00  0.00     0.000 A 
HETATM   22  C15 UNL     1      16.650  -0.667  51.364  1.00  0.00     0.001 A 
HETATM   23  C16 UNL     1      17.529   0.428  51.224  1.00  0.00     0.009 A 
ENDBRANCH  11  18
BRANCH  12  24
HETATM   24  O3  UNL     1      18.126   3.518  52.128  1.00  0.00    -0.376 OA
HETATM   25  H17 UNL     1      17.714   3.058  52.869  1.00  0.00     0.212 HD
ENDBRANCH  12  24
BRANCH   1  26
HETATM   26  S1  UNL     1      28.037   1.159  54.091  1.00  0.00     0.233 S 
HETATM   27  O1  UNL     1      28.211   2.631  54.175  1.00  0.00    -0.207 OA
HETATM   28  O2  UNL     1      27.450   0.695  55.421  1.00  0.00    -0.207 OA
BRANCH  26  29
HETATM   29  C2  UNL     1      29.612   0.408  53.863  1.00  0.00     0.115 C 
HETATM   30  C1  UNL     1      29.829  -0.849  53.518  1.00  0.00     0.024 C 
ENDBRANCH  26  29
ENDBRANCH   1  26
TORSDOF 4
ENDMDL
MODEL 4
REMARK VINA RESULT:      -8.8      3.164      3.728
REMARK  4 active torsions:
REMARK  status: ('A' for Active; 'I' for Inactive)
REMARK    1  A    between atoms: C2_2  and  S1_3 
REMARK    2  A    between atoms: S1_3  and  N1_6 
REMARK    3  A    between atoms: C10_16  and  C11_17 
REMARK    4  A    between atoms: C17_23  and  O3_24 
ROOT
HETATM    1  N1  UNL     1      23.169   5.830  49.715  1.00  0.00    -0.202 NA
HETATM    2  C3  UNL     1      24.299   5.397  50.471  1.00  0.00     0.112 C 
HETATM    3  C4  UNL     1      24.643   3.959  50.326  1.00  0.00     0.056 C 
HETATM    4  C5  UNL     1      23.643   3.015  50.857  1.00  0.00    -0.028 A 
HETATM    5  C6  UNL     1      22.468   3.647  50.401  1.00  0.00     0.006 A 
HETATM    6  S2  UNL     1      21.127   2.569  50.959  1.00  0.00    -0.073 SA
HETATM    7  C7  UNL     1      22.164   1.352  51.774  1.00  0.00     0.107 A 
HETATM    8  C8  UNL     1      23.414   1.861  51.544  1.00  0.00     0.022 A 
HETATM    9  C9  UNL     1      24.540   1.260  51.831  1.00  0.00     0.098 C 
HETATM   10  N2  UNL     1      25.412   0.312  52.340  1.00  0.00    -0.385 N 
HETATM   11  C10 UNL     1      26.002   0.155  53.700  1.00  0.00     0.161 C 
HETATM   12  C17 UNL     1      24.998  -0.818  54.342  1.00  0.00     0.233 C 
HETATM   13  N3  UNL     1      23.714  -0.165  54.041  1.00  0.00    -0.395 NA
HETATM   14  C18 UNL     1      23.217  -0.324  52.865  1.00  0.00     0.440 C 
HETATM   15  N4  UNL     1      21.983   0.244  52.367  1.00  0.00    -0.250 NA
HETATM   16  C19 UNL     1      22.106   4.860  49.648  1.00  0.00     0.154 C 
HETATM   17  H9  UNL     1      25.756  -0.518  51.747  1.00  0.00     0.159 HD
ENDROOT
BRANCH  11  18
HETATM   18  C11 UNL     1      27.357  -0.348  53.583  1.00  0.00    -0.031 A 
HETATM   19  C12 UNL     1      28.405   0.467  53.960  1.00  0.00     0.009 A 
HETATM   20  C13 UNL     1      29.733   0.164  53.940  1.00  0.00     0.001 A 
HETATM   21  C14 UNL     1      30.083  -1.118  53.485  1.00  0.00     0.000 A 
HETATM   22  C15 UNL     1      29.030  -1.970  53.095  1.00  0.00     0.001 A 
HETATM   23  C16 UNL     1      27.668  -1.605  53.135  1.00  0.00     0.009 A 
ENDBRANCH  11  18
BRANCH  12  24
HETATM   24  O3  UNL     1      25.213  -1.035  55.626  1.00  0.00    -0.376 OA
HETATM   25  H17 UNL     1      24.535  -0.778  56.261  1.00  0.00     0.212 HD
ENDBRANCH  12  24
BRANCH   1  26
HETATM   26  S1  UNL     1      22.677   7.398  50.141  1.00  0.00     0.233 S 
HETATM   27  O1  UNL     1      21.526   7.376  51.080  1.00  0.00    -0.207 OA
HETATM   28  O2  UNL     1      23.837   8.079  50.861  1.00  0.00    -0.207 OA
BRANCH  26  29
HETATM   29  C2  UNL     1      22.241   8.347  48.724  1.00  0.00     0.115 C 
HETATM   30  C1  UNL     1      21.377   9.347  48.696  1.00  0.00     0.024 C 
ENDBRANCH  26  29
ENDBRANCH   1  26
TORSDOF 4
ENDMDL
MODEL 5
REMARK VINA RESULT:      -8.5      7.813      9.079
REMARK  4 active torsions:
REMARK  status: ('A' for Active; 'I' for Inactive)
REMARK    1  A    between atoms: C2_2  and  S1_3 
REMARK    2  A    between atoms: S1_3  and  N1_6 
REMARK    3  A    between atoms: C10_16  and  C11_17 
REMARK    4  A    between atoms: C17_23  and  O3_24 
ROOT
HETATM    1  N1  UNL     1      29.592   7.690  47.452  1.00  0.00    -0.202 NA
HETATM    2  C3  UNL     1      29.817   6.774  48.523  1.00  0.00     0.112 C 
HETATM    3  C4  UNL     1      29.039   5.511  48.449  1.00  0.00     0.056 C 
HETATM    4  C5  UNL     1      27.579   5.661  48.587  1.00  0.00    -0.028 A 
HETATM    5  C6  UNL     1      27.392   6.810  47.791  1.00  0.00     0.006 A 
HETATM    6  S2  UNL     1      25.608   7.108  47.837  1.00  0.00    -0.073 SA
HETATM    7  C7  UNL     1      25.194   5.727  48.905  1.00  0.00     0.107 A 
HETATM    8  C8  UNL     1      26.425   5.168  49.118  1.00  0.00     0.022 A 
HETATM    9  C9  UNL     1      26.646   4.038  49.739  1.00  0.00     0.098 C 
HETATM   10  N2  UNL     1      26.396   2.891  50.474  1.00  0.00    -0.385 N 
HETATM   11  C10 UNL     1      26.320   2.668  51.947  1.00  0.00     0.161 C 
HETATM   12  C17 UNL     1      24.808   2.825  52.186  1.00  0.00     0.233 C 
HETATM   13  N3  UNL     1      24.527   4.097  51.501  1.00  0.00    -0.395 NA
HETATM   14  C18 UNL     1      24.389   4.076  50.222  1.00  0.00     0.440 C 
HETATM   15  N4  UNL     1      24.128   5.212  49.365  1.00  0.00    -0.250 NA
HETATM   16  C19 UNL     1      28.224   7.736  47.004  1.00  0.00     0.154 C 
HETATM   17  H9  UNL     1      26.170   1.952  49.999  1.00  0.00     0.159 HD
ENDROOT
BRANCH  11  18
HETATM   18  C11 UNL     1      26.861   1.361  52.265  1.00  0.00    -0.031 A 
HETATM   19  C12 UNL     1      28.034   1.284  52.988  1.00  0.00     0.009 A 
HETATM   20  C13 UNL     1      28.678   0.155  53.396  1.00  0.00     0.001 A 
HETATM   21  C14 UNL     1      28.091  -1.070  53.045  1.00  0.00     0.000 A 
HETATM   22  C15 UNL     1      26.891  -1.019  52.306  1.00  0.00     0.001 A 
HETATM   23  C16 UNL     1      26.264   0.181  51.907  1.00  0.00     0.009 A 
ENDBRANCH  11  18
BRANCH  12  24
HETATM   24  O3  UNL     1      24.467   2.803  53.460  1.00  0.00    -0.376 OA
HETATM   25  H17 UNL     1      23.549   2.976  53.699  1.00  0.00     0.212 HD
ENDBRANCH  12  24
BRANCH   1  26
HETATM   26  S1  UNL     1      30.297   9.206  47.747  1.00  0.00     0.233 S 
HETATM   27  O1  UNL     1      29.557  10.297  47.063  1.00  0.00    -0.207 OA
HETATM   28  O2  UNL     1      30.224   9.478  49.246  1.00  0.00    -0.207 OA
BRANCH  26  29
HETATM   29  C2  UNL     1      31.981   9.247  47.235  1.00  0.00     0.115 C 
HETATM   30  C1  UNL     1      32.902   8.346  47.527  1.00  0.00     0.024 C 
ENDBRANCH  26  29
ENDBRANCH   1  26
TORSDOF 4
ENDMDL
MODEL 6
REMARK VINA RESULT:      -8.0      6.051      7.135
REMARK  4 active torsions:
REMARK  status: ('A' for Active; 'I' for Inactive)
REMARK    1  A    between atoms: C2_2  and  S1_3 
REMARK    2  A    between atoms: S1_3  and  N1_6 
REMARK    3  A    between atoms: C10_16  and  C11_17 
REMARK    4  A    between atoms: C17_23  and  O3_24 
ROOT
HETATM    1  N1  UNL     1      26.315   8.239  48.098  1.00  0.00    -0.202 NA
HETATM    2  C3  UNL     1      26.848   7.475  49.179  1.00  0.00     0.112 C 
HETATM    3  C4  UNL     1      26.768   6.002  49.011  1.00  0.00     0.056 C 
HETATM    4  C5  UNL     1      25.405   5.442  48.993  1.00  0.00    -0.028 A 
HETATM    5  C6  UNL     1      24.770   6.413  48.192  1.00  0.00     0.006 A 
HETATM    6  S2  UNL     1      23.062   5.838  48.049  1.00  0.00    -0.073 SA
HETATM    7  C7  UNL     1      23.253   4.364  49.055  1.00  0.00     0.107 A 
HETATM    8  C8  UNL     1      24.578   4.436  49.394  1.00  0.00     0.022 A 
HETATM    9  C9  UNL     1      25.249   3.507  50.026  1.00  0.00     0.098 C 
HETATM   10  N2  UNL     1      25.504   2.336  50.719  1.00  0.00    -0.385 N 
HETATM   11  C10 UNL     1      25.409   2.019  52.173  1.00  0.00     0.161 C 
HETATM   12  C17 UNL     1      23.988   1.435  52.251  1.00  0.00     0.233 C 
HETATM   13  N3  UNL     1      23.203   2.464  51.551  1.00  0.00    -0.395 NA
HETATM   14  C18 UNL     1      23.208   2.456  50.264  1.00  0.00     0.440 C 
HETATM   15  N4  UNL     1      22.520   3.385  49.394  1.00  0.00    -0.250 NA
HETATM   16  C19 UNL     1      25.134   7.665  47.506  1.00  0.00     0.154 C 
HETATM   17  H9  UNL     1      25.791   1.430  50.215  1.00  0.00     0.159 HD
ENDROOT
BRANCH  11  18
HETATM   18  C11 UNL     1      26.472   1.102  52.537  1.00  0.00    -0.031 A 
HETATM   19  C12 UNL     1      27.618   1.606  53.118  1.00  0.00     0.009 A 
HETATM   20  C13 UNL     1      28.705   0.903  53.541  1.00  0.00     0.001 A 
HETATM   21  C14 UNL     1      28.664  -0.490  53.371  1.00  0.00     0.000 A 
HETATM   22  C15 UNL     1      27.503  -1.030  52.780  1.00  0.00     0.001 A 
HETATM   23  C16 UNL     1      26.402  -0.255  52.357  1.00  0.00     0.009 A 
ENDBRANCH  11  18
BRANCH  12  24
HETATM   24  O3  UNL     1      23.583   1.182  53.481  1.00  0.00    -0.376 OA
HETATM   25  H17 UNL     1      23.692   1.862  54.156  1.00  0.00     0.212 HD
ENDBRANCH  12  24
BRANCH   1  26
HETATM   26  S1  UNL     1      26.192   9.889  48.479  1.00  0.00     0.233 S 
HETATM   27  O1  UNL     1      24.877  10.449  48.075  1.00  0.00    -0.207 OA
HETATM   28  O2  UNL     1      26.300  10.033  49.994  1.00  0.00    -0.207 OA
BRANCH  26  29
HETATM   29  C2  UNL     1      27.472  10.827  47.718  1.00  0.00     0.115 C 
HETATM   30  C1  UNL     1      28.651  11.103  48.248  1.00  0.00     0.024 C 
ENDBRANCH  26  29
ENDBRANCH   1  26
TORSDOF 4
ENDMDL
MODEL 7
REMARK VINA RESULT:      -8.0      8.455     10.061
REMARK  4 active torsions:
REMARK  status: ('A' for Active; 'I' for Inactive)
REMARK    1  A    between atoms: C2_2  and  S1_3 
REMARK    2  A    between atoms: S1_3  and  N1_6 
REMARK    3  A    between atoms: C10_16  and  C11_17 
REMARK    4  A    between atoms: C17_23  and  O3_24 
ROOT
HETATM    1  N1  UNL     1      30.674   7.286  47.366  1.00  0.00    -0.202 NA
HETATM    2  C3  UNL     1      30.436   6.405  48.463  1.00  0.00     0.112 C 
HETATM    3  C4  UNL     1      29.304   5.461  48.281  1.00  0.00     0.056 C 
HETATM    4  C5  UNL     1      27.970   6.084  48.202  1.00  0.00    -0.028 A 
HETATM    5  C6  UNL     1      28.282   7.187  47.381  1.00  0.00     0.006 A 
HETATM    6  S2  UNL     1      26.708   8.051  47.163  1.00  0.00    -0.073 SA
HETATM    7  C7  UNL     1      25.720   6.938  48.165  1.00  0.00     0.107 A 
HETATM    8  C8  UNL     1      26.657   6.021  48.560  1.00  0.00     0.022 A 
HETATM    9  C9  UNL     1      26.407   4.915  49.212  1.00  0.00     0.098 C 
HETATM   10  N2  UNL     1      25.694   3.952  49.907  1.00  0.00    -0.385 N 
HETATM   11  C10 UNL     1      25.348   3.844  51.354  1.00  0.00     0.161 C 
HETATM   12  C17 UNL     1      23.954   4.496  51.368  1.00  0.00     0.233 C 
HETATM   13  N3  UNL     1      24.204   5.752  50.643  1.00  0.00    -0.395 NA
HETATM   14  C18 UNL     1      24.244   5.710  49.357  1.00  0.00     0.440 C 
HETATM   15  N4  UNL     1      24.491   6.822  48.466  1.00  0.00    -0.250 NA
HETATM   16  C19 UNL     1      29.473   7.751  46.721  1.00  0.00     0.154 C 
HETATM   17  H9  UNL     1      25.239   3.114  49.409  1.00  0.00     0.159 HD
ENDROOT
BRANCH  11  18
HETATM   18  C11 UNL     1      25.379   2.451  51.755  1.00  0.00    -0.031 A 
HETATM   19  C12 UNL     1      26.561   1.749  51.631  1.00  0.00     0.009 A 
HETATM   20  C13 UNL     1      26.787   0.450  51.972  1.00  0.00     0.001 A 
HETATM   21  C14 UNL     1      25.703  -0.262  52.508  1.00  0.00     0.000 A 
HETATM   22  C15 UNL     1      24.484   0.433  52.645  1.00  0.00     0.001 A 
HETATM   23  C16 UNL     1      24.302   1.783  52.274  1.00  0.00     0.009 A 
ENDBRANCH  11  18
BRANCH  12  24
HETATM   24  O3  UNL     1      23.453   4.654  52.578  1.00  0.00    -0.376 OA
HETATM   25  H17 UNL     1      22.497   4.730  52.680  1.00  0.00     0.212 HD
ENDBRANCH  12  24
BRANCH   1  26
HETATM   26  S1  UNL     1      31.791   8.504  47.754  1.00  0.00     0.233 S 
HETATM   27  O1  UNL     1      32.660   8.110  48.892  1.00  0.00    -0.207 OA
HETATM   28  O2  UNL     1      32.696   8.719  46.545  1.00  0.00    -0.207 OA
BRANCH  26  29
HETATM   29  C2  UNL     1      30.986  10.020  48.146  1.00  0.00     0.115 C 
HETATM   30  C1  UNL     1      30.496  10.355  49.327  1.00  0.00     0.024 C 
ENDBRANCH  26  29
ENDBRANCH   1  26
TORSDOF 4
ENDMDL
MODEL 8
REMARK VINA RESULT:      -7.8      3.497      4.237
REMARK  4 active torsions:
REMARK  status: ('A' for Active; 'I' for Inactive)
REMARK    1  A    between atoms: C2_2  and  S1_3 
REMARK    2  A    between atoms: S1_3  and  N1_6 
REMARK    3  A    between atoms: C10_16  and  C11_17 
REMARK    4  A    between atoms: C17_23  and  O3_24 
ROOT
HETATM    1  N1  UNL     1      16.974   0.891  51.124  1.00  0.00    -0.202 NA
HETATM    2  C3  UNL     1      17.929   1.930  50.912  1.00  0.00     0.112 C 
HETATM    3  C4  UNL     1      19.281   1.471  50.500  1.00  0.00     0.056 C 
HETATM    4  C5  UNL     1      20.018   0.693  51.512  1.00  0.00    -0.028 A 
HETATM    5  C6  UNL     1      18.967  -0.116  51.988  1.00  0.00     0.006 A 
HETATM    6  S2  UNL     1      19.736  -1.170  53.241  1.00  0.00    -0.073 SA
HETATM    7  C7  UNL     1      21.392  -0.493  53.094  1.00  0.00     0.107 A 
HETATM    8  C8  UNL     1      21.215   0.449  52.116  1.00  0.00     0.022 A 
HETATM    9  C9  UNL     1      22.171   1.139  51.548  1.00  0.00     0.098 C 
HETATM   10  N2  UNL     1      23.439   1.636  51.297  1.00  0.00    -0.385 N 
HETATM   11  C10 UNL     1      24.182   2.775  51.908  1.00  0.00     0.161 C 
HETATM   12  C17 UNL     1      24.980   2.047  53.004  1.00  0.00     0.233 C 
HETATM   13  N3  UNL     1      23.927   1.263  53.669  1.00  0.00    -0.395 NA
HETATM   14  C18 UNL     1      23.554   0.162  53.116  1.00  0.00     0.440 C 
HETATM   15  N4  UNL     1      22.531  -0.740  53.598  1.00  0.00    -0.250 NA
HETATM   16  C19 UNL     1      17.527  -0.292  51.732  1.00  0.00     0.154 C 
HETATM   17  H9  UNL     1      24.098   1.173  50.584  1.00  0.00     0.159 HD
ENDROOT
BRANCH  11  18
HETATM   18  C11 UNL     1      24.986   3.426  50.892  1.00  0.00    -0.031 A 
HETATM   19  C12 UNL     1      24.645   4.701  50.488  1.00  0.00     0.009 A 
HETATM   20  C13 UNL     1      25.287   5.474  49.569  1.00  0.00     0.001 A 
HETATM   21  C14 UNL     1      26.423   4.919  48.958  1.00  0.00     0.000 A 
HETATM   22  C15 UNL     1      26.792   3.618  49.353  1.00  0.00     0.001 A 
HETATM   23  C16 UNL     1      26.090   2.858  50.313  1.00  0.00     0.009 A 
ENDBRANCH  11  18
BRANCH  12  24
HETATM   24  O3  UNL     1      25.646   2.857  53.804  1.00  0.00    -0.376 OA
HETATM   25  H17 UNL     1      26.346   3.406  53.433  1.00  0.00     0.212 HD
ENDBRANCH  12  24
BRANCH   1  26
HETATM   26  S1  UNL     1      15.552   1.467  51.851  1.00  0.00     0.233 S 
HETATM   27  O1  UNL     1      14.382   1.337  50.946  1.00  0.00    -0.207 OA
HETATM   28  O2  UNL     1      15.270   0.612  53.083  1.00  0.00    -0.207 OA
BRANCH  26  29
HETATM   29  C2  UNL     1      15.712   3.150  52.342  1.00  0.00     0.115 C 
HETATM   30  C1  UNL     1      14.717   3.981  52.597  1.00  0.00     0.024 C 
ENDBRANCH  26  29
ENDBRANCH   1  26
TORSDOF 4
ENDMDL
MODEL 9
REMARK VINA RESULT:      -7.7      3.155      8.660
REMARK  4 active torsions:
REMARK  status: ('A' for Active; 'I' for Inactive)
REMARK    1  A    between atoms: C2_2  and  S1_3 
REMARK    2  A    between atoms: S1_3  and  N1_6 
REMARK    3  A    between atoms: C10_16  and  C11_17 
REMARK    4  A    between atoms: C17_23  and  O3_24 
ROOT
HETATM    1  N1  UNL     1      26.638   1.442  54.166  1.00  0.00    -0.202 NA
HETATM    2  C3  UNL     1      26.281   2.375  53.147  1.00  0.00     0.112 C 
HETATM    3  C4  UNL     1      24.857   2.797  53.149  1.00  0.00     0.056 C 
HETATM    4  C5  UNL     1      23.884   1.736  52.831  1.00  0.00    -0.028 A 
HETATM    5  C6  UNL     1      24.446   0.681  53.577  1.00  0.00     0.006 A 
HETATM    6  S2  UNL     1      23.325  -0.713  53.308  1.00  0.00    -0.073 SA
HETATM    7  C7  UNL     1      22.183   0.145  52.223  1.00  0.00     0.107 A 
HETATM    8  C8  UNL     1      22.742   1.394  52.172  1.00  0.00     0.022 A 
HETATM    9  C9  UNL     1      22.203   2.442  51.602  1.00  0.00     0.098 C 
HETATM   10  N2  UNL     1      21.312   3.203  50.864  1.00  0.00    -0.385 N 
HETATM   11  C10 UNL     1      21.224   3.458  49.397  1.00  0.00     0.161 C 
HETATM   12  C17 UNL     1      20.225   2.367  48.972  1.00  0.00     0.233 C 
HETATM   13  N3  UNL     1      20.808   1.168  49.594  1.00  0.00    -0.395 NA
HETATM   14  C18 UNL     1      20.591   0.972  50.847  1.00  0.00     0.440 C 
HETATM   15  N4  UNL     1      21.086  -0.129  51.644  1.00  0.00    -0.250 NA
HETATM   16  C19 UNL     1      25.618   0.463  54.443  1.00  0.00     0.154 C 
HETATM   17  H9  UNL     1      20.481   3.709  51.324  1.00  0.00     0.159 HD
ENDROOT
BRANCH  11  18
HETATM   18  C11 UNL     1      20.781   4.820  49.171  1.00  0.00    -0.031 A 
HETATM   19  C12 UNL     1      21.553   5.650  48.383  1.00  0.00     0.009 A 
HETATM   20  C13 UNL     1      21.291   6.942  48.044  1.00  0.00     0.001 A 
HETATM   21  C14 UNL     1      20.107   7.502  48.549  1.00  0.00     0.000 A 
HETATM   22  C15 UNL     1      19.300   6.674  49.356  1.00  0.00     0.001 A 
HETATM   23  C16 UNL     1      19.618   5.338  49.679  1.00  0.00     0.009 A 
ENDBRANCH  11  18
BRANCH  12  24
HETATM   24  O3  UNL     1      20.058   2.279  47.666  1.00  0.00    -0.376 OA
HETATM   25  H17 UNL     1      19.788   3.065  47.177  1.00  0.00     0.212 HD
ENDBRANCH  12  24
BRANCH   1  26
HETATM   26  S1  UNL     1      28.193   0.803  53.932  1.00  0.00     0.233 S 
HETATM   27  O1  UNL     1      28.982   1.616  52.971  1.00  0.00    -0.207 OA
HETATM   28  O2  UNL     1      28.928   0.845  55.269  1.00  0.00    -0.207 OA
BRANCH  26  29
HETATM   29  C2  UNL     1      28.131  -0.860  53.361  1.00  0.00     0.115 C 
HETATM   30  C1  UNL     1      29.161  -1.681  53.250  1.00  0.00     0.024 C 
ENDBRANCH  26  29
ENDBRANCH   1  26
TORSDOF 4
ENDMDL
