MODEL 1
REMARK VINA RESULT:      -8.1      0.000      0.000
REMARK  5 active torsions:
REMARK  status: ('A' for Active; 'I' for Inactive)
REMARK    1  A    between atoms: C7_9  and  N3_10 
REMARK    2  A    between atoms: N3_10  and  C8_11 
REMARK    3  A    between atoms: C8_11  and  C9_12 
REMARK    4  A    between atoms: C12_16  and  N4_17 
REMARK    5  A    between atoms: N4_17  and  C13_18 
ROOT
HETATM    1  N1  UNL     1      22.616  -1.575  55.461  1.00  0.00    -0.191 NA
HETATM    2  C1  UNL     1      22.502  -0.982  54.468  1.00  0.00     0.103 C 
HETATM    3  C2  UNL     1      22.365  -0.259  53.237  1.00  0.00     0.089 A 
HETATM    4  C3  UNL     1      21.248  -0.452  52.452  1.00  0.00     0.142 A 
HETATM    5  N2  UNL     1      21.062   0.196  51.286  1.00  0.00    -0.259 NA
HETATM    6  C4  UNL     1      21.987   1.064  50.862  1.00  0.00     0.069 A 
HETATM    7  C5  UNL     1      21.831   1.748  49.670  1.00  0.00     0.035 A 
HETATM    8  C6  UNL     1      22.814   2.635  49.270  1.00  0.00     0.031 A 
HETATM    9  C7  UNL     1      23.954   2.895  49.975  1.00  0.00     0.029 A 
HETATM   10  C10 UNL     1      24.075   2.197  51.154  1.00  0.00     0.045 A 
HETATM   11  C11 UNL     1      23.139   1.309  51.599  1.00  0.00     0.023 A 
HETATM   12  C12 UNL     1      23.316   0.637  52.792  1.00  0.00     0.067 A 
ENDROOT
BRANCH  12  13
HETATM   13  N4  UNL     1      24.450   0.820  53.609  1.00  0.00    -0.354 N 
HETATM   14  H9  UNL     1      24.107   1.390  54.412  1.00  0.00     0.166 HD
BRANCH  13  15
HETATM   15  C13 UNL     1      25.782   0.393  53.495  1.00  0.00     0.033 A 
HETATM   16  C14 UNL     1      26.052  -0.885  52.991  1.00  0.00     0.029 A 
HETATM   17  C15 UNL     1      27.393  -1.206  52.920  1.00  0.00     0.004 A 
HETATM   18  C16 UNL     1      28.441  -0.397  53.293  1.00  0.00     0.019 A 
HETATM   19  C17 UNL     1      28.132   0.854  53.784  1.00  0.00     0.013 A 
HETATM   20 BR1  UNL     1      29.552   2.012  54.314  1.00  0.00    -0.051 Br
HETATM   21  C18 UNL     1      26.800   1.241  53.882  1.00  0.00     0.048 A 
ENDBRANCH  13  15
ENDBRANCH  12  13
BRANCH   9  22
HETATM   22  N3  UNL     1      24.942   3.815  49.533  1.00  0.00    -0.384 N 
HETATM   23  H4  UNL     1      24.600   4.723  49.117  1.00  0.00     0.160 HD
BRANCH  22  24
HETATM   24  C8  UNL     1      26.344   3.494  49.660  1.00  0.00     0.189 C 
BRANCH  24  25
HETATM   25  C9  UNL     1      27.218   4.474  48.950  1.00  0.00     0.250 C 
HETATM   26  O1  UNL     1      28.309   4.827  48.598  1.00  0.00    -0.305 OA
ENDBRANCH  24  25
ENDBRANCH  22  24
ENDBRANCH   9  22
TORSDOF 5
ENDMDL
MODEL 2
REMARK VINA RESULT:      -7.9      2.501      5.197
REMARK  5 active torsions:
REMARK  status: ('A' for Active; 'I' for Inactive)
REMARK    1  A    between atoms: C7_9  and  N3_10 
REMARK    2  A    between atoms: N3_10  and  C8_11 
REMARK    3  A    between atoms: C8_11  and  C9_12 
REMARK    4  A    between atoms: C12_16  and  N4_17 
REMARK    5  A    between atoms: N4_17  and  C13_18 
ROOT
HETATM    1  N1  UNL     1      19.596   1.277  50.417  1.00  0.00    -0.191 NA
HETATM    2  C1  UNL     1      20.240   0.821  51.269  1.00  0.00     0.103 C 
HETATM    3  C2  UNL     1      21.033   0.267  52.329  1.00  0.00     0.089 A 
HETATM    4  C3  UNL     1      20.427  -0.482  53.314  1.00  0.00     0.142 A 
HETATM    5  N2  UNL     1      21.117  -1.029  54.335  1.00  0.00    -0.259 NA
HETATM    6  C4  UNL     1      22.439  -0.845  54.406  1.00  0.00     0.069 A 
HETATM    7  C5  UNL     1      23.181  -1.390  55.439  1.00  0.00     0.035 A 
HETATM    8  C6  UNL     1      24.547  -1.174  55.473  1.00  0.00     0.031 A 
HETATM    9  C7  UNL     1      25.238  -0.448  54.546  1.00  0.00     0.029 A 
HETATM   10  C10 UNL     1      24.469   0.079  53.535  1.00  0.00     0.045 A 
HETATM   11  C11 UNL     1      23.118  -0.101  53.449  1.00  0.00     0.023 A 
HETATM   12  C12 UNL     1      22.398   0.453  52.409  1.00  0.00     0.067 A 
ENDROOT
BRANCH  12  13
HETATM   13  N4  UNL     1      22.997   1.222  51.392  1.00  0.00    -0.354 N 
HETATM   14  H9  UNL     1      23.131   0.556  50.601  1.00  0.00     0.166 HD
BRANCH  13  15
HETATM   15  C13 UNL     1      23.378   2.571  51.320  1.00  0.00     0.033 A 
HETATM   16  C14 UNL     1      22.699   3.518  52.097  1.00  0.00     0.029 A 
HETATM   17  C15 UNL     1      23.151   4.814  51.952  1.00  0.00     0.004 A 
HETATM   18  C16 UNL     1      24.176   5.228  51.134  1.00  0.00     0.019 A 
HETATM   19  C17 UNL     1      24.819   4.265  50.386  1.00  0.00     0.013 A 
HETATM   20 BR1  UNL     1      26.247   4.792  49.237  1.00  0.00    -0.051 Br
HETATM   21  C18 UNL     1      24.413   2.938  50.484  1.00  0.00     0.048 A 
ENDBRANCH  13  15
ENDBRANCH  12  13
BRANCH   9  22
HETATM   22  N3  UNL     1      26.642  -0.248  54.613  1.00  0.00    -0.384 N 
HETATM   23  H4  UNL     1      27.115  -0.468  55.531  1.00  0.00     0.160 HD
BRANCH  22  24
HETATM   24  C8  UNL     1      27.365   0.235  53.460  1.00  0.00     0.189 C 
BRANCH  24  25
HETATM   25  C9  UNL     1      28.216   1.420  53.778  1.00  0.00     0.250 C 
HETATM   26  O1  UNL     1      28.327   2.532  54.215  1.00  0.00    -0.305 OA
ENDBRANCH  24  25
ENDBRANCH  22  24
ENDBRANCH   9  22
TORSDOF 5
ENDMDL
MODEL 3
REMARK VINA RESULT:      -7.9      3.141      6.055
REMARK  5 active torsions:
REMARK  status: ('A' for Active; 'I' for Inactive)
REMARK    1  A    between atoms: C7_9  and  N3_10 
REMARK    2  A    between atoms: N3_10  and  C8_11 
REMARK    3  A    between atoms: C8_11  and  C9_12 
REMARK    4  A    between atoms: C12_16  and  N4_17 
REMARK    5  A    between atoms: N4_17  and  C13_18 
ROOT
HETATM    1  N1  UNL     1      28.446   2.214  52.706  1.00  0.00    -0.191 NA
HETATM    2  C1  UNL     1      27.551   1.609  53.132  1.00  0.00     0.103 C 
HETATM    3  C2  UNL     1      26.450   0.852  53.653  1.00  0.00     0.089 A 
HETATM    4  C3  UNL     1      26.625   0.080  54.781  1.00  0.00     0.142 A 
HETATM    5  N2  UNL     1      25.630  -0.653  55.319  1.00  0.00    -0.259 NA
HETATM    6  C4  UNL     1      24.422  -0.640  54.745  1.00  0.00     0.069 A 
HETATM    7  C5  UNL     1      23.376  -1.380  55.267  1.00  0.00     0.035 A 
HETATM    8  C6  UNL     1      22.144  -1.337  54.641  1.00  0.00     0.031 A 
HETATM    9  C7  UNL     1      21.870  -0.605  53.521  1.00  0.00     0.029 A 
HETATM   10  C10 UNL     1      22.933   0.117  53.031  1.00  0.00     0.045 A 
HETATM   11  C11 UNL     1      24.171   0.113  53.605  1.00  0.00     0.023 A 
HETATM   12  C12 UNL     1      25.200   0.859  53.066  1.00  0.00     0.067 A 
ENDROOT
BRANCH  12  13
HETATM   13  N4  UNL     1      25.043   1.655  51.913  1.00  0.00    -0.354 N 
HETATM   14  H9  UNL     1      25.276   1.020  51.121  1.00  0.00     0.166 HD
BRANCH  13  15
HETATM   15  C13 UNL     1      24.666   2.994  51.728  1.00  0.00     0.033 A 
HETATM   16  C14 UNL     1      23.780   3.590  52.635  1.00  0.00     0.029 A 
HETATM   17  C15 UNL     1      23.475   4.908  52.361  1.00  0.00     0.004 A 
HETATM   18  C16 UNL     1      23.956   5.650  51.308  1.00  0.00     0.019 A 
HETATM   19  C17 UNL     1      24.826   5.027  50.438  1.00  0.00     0.013 A 
HETATM   20 BR1  UNL     1      25.519   6.016  48.963  1.00  0.00    -0.051 Br
HETATM   21  C18 UNL     1      25.175   3.698  50.656  1.00  0.00     0.048 A 
ENDBRANCH  13  15
ENDBRANCH  12  13
BRANCH   9  22
HETATM   22  N3  UNL     1      20.590  -0.585  52.907  1.00  0.00    -0.384 N 
HETATM   23  H4  UNL     1      19.911  -1.342  53.189  1.00  0.00     0.160 HD
BRANCH  22  24
HETATM   24  C8  UNL     1      20.262   0.439  51.942  1.00  0.00     0.189 C 
BRANCH  24  25
HETATM   25  C9  UNL     1      19.884   1.730  52.589  1.00  0.00     0.250 C 
HETATM   26  O1  UNL     1      20.052   2.910  52.728  1.00  0.00    -0.305 OA
ENDBRANCH  24  25
ENDBRANCH  22  24
ENDBRANCH   9  22
TORSDOF 5
ENDMDL
MODEL 4
REMARK VINA RESULT:      -7.6      3.092      5.305
REMARK  5 active torsions:
REMARK  status: ('A' for Active; 'I' for Inactive)
REMARK    1  A    between atoms: C7_9  and  N3_10 
REMARK    2  A    between atoms: N3_10  and  C8_11 
REMARK    3  A    between atoms: C8_11  and  C9_12 
REMARK    4  A    between atoms: C12_16  and  N4_17 
REMARK    5  A    between atoms: N4_17  and  C13_18 
ROOT
HETATM    1  N1  UNL     1      18.769  -0.020  52.073  1.00  0.00    -0.191 NA
HETATM    2  C1  UNL     1      19.849  -0.107  52.493  1.00  0.00     0.103 C 
HETATM    3  C2  UNL     1      21.178  -0.211  53.023  1.00  0.00     0.089 A 
HETATM    4  C3  UNL     1      21.517  -1.291  53.809  1.00  0.00     0.142 A 
HETATM    5  N2  UNL     1      22.749  -1.444  54.335  1.00  0.00    -0.259 NA
HETATM    6  C4  UNL     1      23.686  -0.522  54.093  1.00  0.00     0.069 A 
HETATM    7  C5  UNL     1      24.960  -0.645  54.616  1.00  0.00     0.035 A 
HETATM    8  C6  UNL     1      25.898   0.334  54.341  1.00  0.00     0.031 A 
HETATM    9  C7  UNL     1      25.660   1.439  53.574  1.00  0.00     0.029 A 
HETATM   10  C10 UNL     1      24.383   1.528  53.072  1.00  0.00     0.045 A 
HETATM   11  C11 UNL     1      23.416   0.594  53.311  1.00  0.00     0.023 A 
HETATM   12  C12 UNL     1      22.150   0.738  52.778  1.00  0.00     0.067 A 
ENDROOT
BRANCH  12  13
HETATM   13  N4  UNL     1      21.782   1.834  51.972  1.00  0.00    -0.354 N 
HETATM   14  H9  UNL     1      21.240   2.458  52.607  1.00  0.00     0.166 HD
BRANCH  13  15
HETATM   15  C13 UNL     1      22.020   2.144  50.624  1.00  0.00     0.033 A 
HETATM   16  C14 UNL     1      21.684   1.210  49.635  1.00  0.00     0.029 A 
HETATM   17  C15 UNL     1      21.958   1.613  48.344  1.00  0.00     0.004 A 
HETATM   18  C16 UNL     1      22.514   2.814  47.970  1.00  0.00     0.019 A 
HETATM   19  C17 UNL     1      22.830   3.706  48.974  1.00  0.00     0.013 A 
HETATM   20 BR1  UNL     1      23.603   5.384  48.503  1.00  0.00    -0.051 Br
HETATM   21  C18 UNL     1      22.580   3.362  50.298  1.00  0.00     0.048 A 
ENDBRANCH  13  15
ENDBRANCH  12  13
BRANCH   9  22
HETATM   22  N3  UNL     1      26.649   2.423  53.312  1.00  0.00    -0.384 N 
HETATM   23  H4  UNL     1      26.385   3.429  53.495  1.00  0.00     0.160 HD
BRANCH  22  24
HETATM   24  C8  UNL     1      27.949   2.036  52.816  1.00  0.00     0.189 C 
BRANCH  24  25
HETATM   25  C9  UNL     1      29.023   2.210  53.838  1.00  0.00     0.250 C 
HETATM   26  O1  UNL     1      29.362   2.274  54.987  1.00  0.00    -0.305 OA
ENDBRANCH  24  25
ENDBRANCH  22  24
ENDBRANCH   9  22
TORSDOF 5
ENDMDL
MODEL 5
REMARK VINA RESULT:      -7.6      2.450      4.896
REMARK  5 active torsions:
REMARK  status: ('A' for Active; 'I' for Inactive)
REMARK    1  A    between atoms: C7_9  and  N3_10 
REMARK    2  A    between atoms: N3_10  and  C8_11 
REMARK    3  A    between atoms: C8_11  and  C9_12 
REMARK    4  A    between atoms: C12_16  and  N4_17 
REMARK    5  A    between atoms: N4_17  and  C13_18 
ROOT
HETATM    1  N1  UNL     1      21.204  -1.362  54.949  1.00  0.00    -0.191 NA
HETATM    2  C1  UNL     1      22.267  -1.031  54.619  1.00  0.00     0.103 C 
HETATM    3  C2  UNL     1      23.582  -0.616  54.222  1.00  0.00     0.089 A 
HETATM    4  C3  UNL     1      24.680  -1.333  54.645  1.00  0.00     0.142 A 
HETATM    5  N2  UNL     1      25.940  -0.994  54.306  1.00  0.00    -0.259 NA
HETATM    6  C4  UNL     1      26.146   0.075  53.531  1.00  0.00     0.069 A 
HETATM    7  C5  UNL     1      27.424   0.454  53.162  1.00  0.00     0.035 A 
HETATM    8  C6  UNL     1      27.591   1.568  52.359  1.00  0.00     0.031 A 
HETATM    9  C7  UNL     1      26.569   2.342  51.890  1.00  0.00     0.029 A 
HETATM   10  C10 UNL     1      25.313   1.936  52.276  1.00  0.00     0.045 A 
HETATM   11  C11 UNL     1      25.087   0.846  53.067  1.00  0.00     0.023 A 
HETATM   12  C12 UNL     1      23.802   0.487  53.422  1.00  0.00     0.067 A 
ENDROOT
BRANCH  12  13
HETATM   13  N4  UNL     1      22.665   1.206  53.001  1.00  0.00    -0.354 N 
HETATM   14  H9  UNL     1      22.475   1.876  53.776  1.00  0.00     0.166 HD
BRANCH  13  15
HETATM   15  C13 UNL     1      21.877   1.142  51.841  1.00  0.00     0.033 A 
HETATM   16  C14 UNL     1      20.573   0.639  51.925  1.00  0.00     0.029 A 
HETATM   17  C15 UNL     1      19.884   0.619  50.729  1.00  0.00     0.004 A 
HETATM   18  C16 UNL     1      20.364   1.039  49.511  1.00  0.00     0.019 A 
HETATM   19  C17 UNL     1      21.652   1.528  49.471  1.00  0.00     0.013 A 
HETATM   20 BR1  UNL     1      22.360   2.123  47.803  1.00  0.00    -0.051 Br
HETATM   21  C18 UNL     1      22.402   1.576  50.641  1.00  0.00     0.048 A 
ENDBRANCH  13  15
ENDBRANCH  12  13
BRANCH   9  22
HETATM   22  N3  UNL     1      26.778   3.479  51.065  1.00  0.00    -0.384 N 
HETATM   23  H4  UNL     1      27.150   4.349  51.533  1.00  0.00     0.160 HD
BRANCH  22  24
HETATM   24  C8  UNL     1      26.487   3.418  49.652  1.00  0.00     0.189 C 
BRANCH  24  25
HETATM   25  C9  UNL     1      27.232   4.450  48.872  1.00  0.00     0.250 C 
HETATM   26  O1  UNL     1      27.470   5.602  48.638  1.00  0.00    -0.305 OA
ENDBRANCH  24  25
ENDBRANCH  22  24
ENDBRANCH   9  22
TORSDOF 5
ENDMDL
MODEL 6
REMARK VINA RESULT:      -7.5      3.160      5.259
REMARK  5 active torsions:
REMARK  status: ('A' for Active; 'I' for Inactive)
REMARK    1  A    between atoms: C7_9  and  N3_10 
REMARK    2  A    between atoms: N3_10  and  C8_11 
REMARK    3  A    between atoms: C8_11  and  C9_12 
REMARK    4  A    between atoms: C12_16  and  N4_17 
REMARK    5  A    between atoms: N4_17  and  C13_18 
ROOT
HETATM    1  N1  UNL     1      22.249  -1.731  55.330  1.00  0.00    -0.191 NA
HETATM    2  C1  UNL     1      23.003  -1.143  54.672  1.00  0.00     0.103 C 
HETATM    3  C2  UNL     1      23.939  -0.411  53.868  1.00  0.00     0.089 A 
HETATM    4  C3  UNL     1      25.251  -0.827  53.798  1.00  0.00     0.142 A 
HETATM    5  N2  UNL     1      26.177  -0.182  53.061  1.00  0.00    -0.259 NA
HETATM    6  C4  UNL     1      25.822   0.904  52.365  1.00  0.00     0.069 A 
HETATM    7  C5  UNL     1      26.743   1.593  51.598  1.00  0.00     0.035 A 
HETATM    8  C6  UNL     1      26.333   2.711  50.896  1.00  0.00     0.031 A 
HETATM    9  C7  UNL     1      25.058   3.202  50.900  1.00  0.00     0.029 A 
HETATM   10  C10 UNL     1      24.170   2.493  51.674  1.00  0.00     0.045 A 
HETATM   11  C11 UNL     1      24.518   1.383  52.389  1.00  0.00     0.023 A 
HETATM   12  C12 UNL     1      23.580   0.711  53.148  1.00  0.00     0.067 A 
ENDROOT
BRANCH  12  13
HETATM   13  N4  UNL     1      22.234   1.119  53.234  1.00  0.00    -0.354 N 
HETATM   14  H9  UNL     1      22.210   1.784  54.036  1.00  0.00     0.166 HD
BRANCH  13  15
HETATM   15  C13 UNL     1      21.093   0.792  52.485  1.00  0.00     0.033 A 
HETATM   16  C14 UNL     1      20.995   1.226  51.157  1.00  0.00     0.029 A 
HETATM   17  C15 UNL     1      19.835   0.851  50.511  1.00  0.00     0.004 A 
HETATM   18  C16 UNL     1      18.808   0.113  51.052  1.00  0.00     0.019 A 
HETATM   19  C17 UNL     1      18.943  -0.295  52.363  1.00  0.00     0.013 A 
HETATM   20 BR1  UNL     1      17.545  -1.320  53.156  1.00  0.00    -0.051 Br
HETATM   21  C18 UNL     1      20.089   0.049  53.072  1.00  0.00     0.048 A 
ENDBRANCH  13  15
ENDBRANCH  12  13
BRANCH   9  22
HETATM   22  N3  UNL     1      24.673   4.354  50.165  1.00  0.00    -0.384 N 
HETATM   23  H4  UNL     1      23.637   4.534  50.063  1.00  0.00     0.160 HD
BRANCH  22  24
HETATM   24  C8  UNL     1      25.675   5.223  49.593  1.00  0.00     0.189 C 
BRANCH  24  25
HETATM   25  C9  UNL     1      25.531   6.636  50.052  1.00  0.00     0.250 C 
HETATM   26  O1  UNL     1      26.029   7.673  50.391  1.00  0.00    -0.305 OA
ENDBRANCH  24  25
ENDBRANCH  22  24
ENDBRANCH   9  22
TORSDOF 5
ENDMDL
MODEL 7
REMARK VINA RESULT:      -7.4      3.050      5.517
REMARK  5 active torsions:
REMARK  status: ('A' for Active; 'I' for Inactive)
REMARK    1  A    between atoms: C7_9  and  N3_10 
REMARK    2  A    between atoms: N3_10  and  C8_11 
REMARK    3  A    between atoms: C8_11  and  C9_12 
REMARK    4  A    between atoms: C12_16  and  N4_17 
REMARK    5  A    between atoms: N4_17  and  C13_18 
ROOT
HETATM    1  N1  UNL     1      21.078   5.564  50.696  1.00  0.00    -0.191 NA
HETATM    2  C1  UNL     1      21.513   4.598  51.172  1.00  0.00     0.103 C 
HETATM    3  C2  UNL     1      22.045   3.407  51.770  1.00  0.00     0.089 A 
HETATM    4  C3  UNL     1      21.215   2.335  52.012  1.00  0.00     0.142 A 
HETATM    5  N2  UNL     1      21.655   1.190  52.571  1.00  0.00    -0.259 NA
HETATM    6  C4  UNL     1      22.944   1.077  52.907  1.00  0.00     0.069 A 
HETATM    7  C5  UNL     1      23.432  -0.081  53.483  1.00  0.00     0.035 A 
HETATM    8  C6  UNL     1      24.773  -0.154  53.816  1.00  0.00     0.031 A 
HETATM    9  C7  UNL     1      25.675   0.852  53.617  1.00  0.00     0.029 A 
HETATM   10  C10 UNL     1      25.153   1.988  53.043  1.00  0.00     0.045 A 
HETATM   11  C11 UNL     1      23.840   2.117  52.694  1.00  0.00     0.023 A 
HETATM   12  C12 UNL     1      23.375   3.284  52.121  1.00  0.00     0.067 A 
ENDROOT
BRANCH  12  13
HETATM   13  N4  UNL     1      24.207   4.392  51.864  1.00  0.00    -0.354 N 
HETATM   14  H9  UNL     1      24.071   5.020  52.685  1.00  0.00     0.166 HD
BRANCH  13  15
HETATM   15  C13 UNL     1      25.067   4.708  50.801  1.00  0.00     0.033 A 
HETATM   16  C14 UNL     1      25.862   3.701  50.239  1.00  0.00     0.029 A 
HETATM   17  C15 UNL     1      26.671   4.117  49.202  1.00  0.00     0.004 A 
HETATM   18  C16 UNL     1      26.753   5.395  48.699  1.00  0.00     0.019 A 
HETATM   19  C17 UNL     1      25.954   6.357  49.280  1.00  0.00     0.013 A 
HETATM   20 BR1  UNL     1      26.033   8.143  48.617  1.00  0.00    -0.051 Br
HETATM   21  C18 UNL     1      25.114   6.005  50.332  1.00  0.00     0.048 A 
ENDBRANCH  13  15
ENDBRANCH  12  13
BRANCH   9  22
HETATM   22  N3  UNL     1      27.045   0.741  53.970  1.00  0.00    -0.384 N 
HETATM   23  H4  UNL     1      27.297   0.012  54.692  1.00  0.00     0.160 HD
BRANCH  22  24
HETATM   24  C8  UNL     1      28.029   1.600  53.354  1.00  0.00     0.189 C 
BRANCH  24  25
HETATM   25  C9  UNL     1      29.206   1.843  54.238  1.00  0.00     0.250 C 
HETATM   26  O1  UNL     1      29.667   2.277  55.258  1.00  0.00    -0.305 OA
ENDBRANCH  24  25
ENDBRANCH  22  24
ENDBRANCH   9  22
TORSDOF 5
ENDMDL
MODEL 8
REMARK VINA RESULT:      -7.3      2.926      5.226
REMARK  5 active torsions:
REMARK  status: ('A' for Active; 'I' for Inactive)
REMARK    1  A    between atoms: C7_9  and  N3_10 
REMARK    2  A    between atoms: N3_10  and  C8_11 
REMARK    3  A    between atoms: C8_11  and  C9_12 
REMARK    4  A    between atoms: C12_16  and  N4_17 
REMARK    5  A    between atoms: N4_17  and  C13_18 
ROOT
HETATM    1  N1  UNL     1      27.048   3.717  49.592  1.00  0.00    -0.191 NA
HETATM    2  C1  UNL     1      25.954   3.716  49.981  1.00  0.00     0.103 C 
HETATM    3  C2  UNL     1      24.605   3.722  50.471  1.00  0.00     0.089 A 
HETATM    4  C3  UNL     1      23.810   4.830  50.270  1.00  0.00     0.142 A 
HETATM    5  N2  UNL     1      22.537   4.896  50.707  1.00  0.00    -0.259 NA
HETATM    6  C4  UNL     1      22.012   3.853  51.359  1.00  0.00     0.069 A 
HETATM    7  C5  UNL     1      20.709   3.884  51.822  1.00  0.00     0.035 A 
HETATM    8  C6  UNL     1      20.207   2.783  52.493  1.00  0.00     0.031 A 
HETATM    9  C7  UNL     1      20.913   1.641  52.741  1.00  0.00     0.029 A 
HETATM   10  C10 UNL     1      22.204   1.647  52.267  1.00  0.00     0.045 A 
HETATM   11  C11 UNL     1      22.753   2.703  51.599  1.00  0.00     0.023 A 
HETATM   12  C12 UNL     1      24.057   2.650  51.146  1.00  0.00     0.067 A 
ENDROOT
BRANCH  12  13
HETATM   13  N4  UNL     1      24.886   1.527  51.340  1.00  0.00    -0.354 N 
HETATM   14  H9  UNL     1      24.898   1.045  50.417  1.00  0.00     0.166 HD
BRANCH  13  15
HETATM   15  C13 UNL     1      25.594   1.050  52.455  1.00  0.00     0.033 A 
HETATM   16  C14 UNL     1      25.037   0.028  53.235  1.00  0.00     0.029 A 
HETATM   17  C15 UNL     1      25.812  -0.367  54.306  1.00  0.00     0.004 A 
HETATM   18  C16 UNL     1      27.041   0.146  54.650  1.00  0.00     0.019 A 
HETATM   19  C17 UNL     1      27.554   1.150  53.857  1.00  0.00     0.013 A 
HETATM   20 BR1  UNL     1      29.255   1.892  54.295  1.00  0.00    -0.051 Br
HETATM   21  C18 UNL     1      26.823   1.596  52.760  1.00  0.00     0.048 A 
ENDBRANCH  13  15
ENDBRANCH  12  13
BRANCH   9  22
HETATM   22  N3  UNL     1      20.364   0.529  53.433  1.00  0.00    -0.384 N 
HETATM   23  H4  UNL     1      19.586   0.002  52.952  1.00  0.00     0.160 HD
BRANCH  22  24
HETATM   24  C8  UNL     1      20.868   0.159  54.735  1.00  0.00     0.189 C 
BRANCH  24  25
HETATM   25  C9  UNL     1      21.719  -1.066  54.688  1.00  0.00     0.250 C 
HETATM   26  O1  UNL     1      22.081  -2.098  55.182  1.00  0.00    -0.305 OA
ENDBRANCH  24  25
ENDBRANCH  22  24
ENDBRANCH   9  22
TORSDOF 5
ENDMDL
MODEL 9
REMARK VINA RESULT:      -7.2      3.854      6.926
REMARK  5 active torsions:
REMARK  status: ('A' for Active; 'I' for Inactive)
REMARK    1  A    between atoms: C7_9  and  N3_10 
REMARK    2  A    between atoms: N3_10  and  C8_11 
REMARK    3  A    between atoms: C8_11  and  C9_12 
REMARK    4  A    between atoms: C12_16  and  N4_17 
REMARK    5  A    between atoms: N4_17  and  C13_18 
ROOT
HETATM    1  N1  UNL     1      26.797   2.762  50.637  1.00  0.00    -0.191 NA
HETATM    2  C1  UNL     1      26.194   2.089  51.367  1.00  0.00     0.103 C 
HETATM    3  C2  UNL     1      25.452   1.248  52.261  1.00  0.00     0.089 A 
HETATM    4  C3  UNL     1      26.116   0.527  53.229  1.00  0.00     0.142 A 
HETATM    5  N2  UNL     1      25.476  -0.281  54.098  1.00  0.00    -0.259 NA
HETATM    6  C4  UNL     1      24.145  -0.394  54.030  1.00  0.00     0.069 A 
HETATM    7  C5  UNL     1      23.453  -1.212  54.904  1.00  0.00     0.035 A 
HETATM    8  C6  UNL     1      22.077  -1.300  54.797  1.00  0.00     0.031 A 
HETATM    9  C7  UNL     1      21.329  -0.627  53.874  1.00  0.00     0.029 A 
HETATM   10  C10 UNL     1      22.050   0.176  53.022  1.00  0.00     0.045 A 
HETATM   11  C11 UNL     1      23.409   0.302  53.080  1.00  0.00     0.023 A 
HETATM   12  C12 UNL     1      24.078   1.125  52.196  1.00  0.00     0.067 A 
ENDROOT
BRANCH  12  13
HETATM   13  N4  UNL     1      23.418   1.871  51.199  1.00  0.00    -0.354 N 
HETATM   14  H9  UNL     1      23.476   1.279  50.344  1.00  0.00     0.166 HD
BRANCH  13  15
HETATM   15  C13 UNL     1      22.786   3.124  51.213  1.00  0.00     0.033 A 
HETATM   16  C14 UNL     1      21.391   3.188  51.323  1.00  0.00     0.029 A 
HETATM   17  C15 UNL     1      20.871   4.466  51.326  1.00  0.00     0.004 A 
HETATM   18  C16 UNL     1      21.591   5.635  51.233  1.00  0.00     0.019 A 
HETATM   19  C17 UNL     1      22.961   5.528  51.126  1.00  0.00     0.013 A 
HETATM   20 BR1  UNL     1      24.001   7.122  50.995  1.00  0.00    -0.051 Br
HETATM   21  C18 UNL     1      23.551   4.269  51.117  1.00  0.00     0.048 A 
ENDBRANCH  13  15
ENDBRANCH  12  13
BRANCH   9  22
HETATM   22  N3  UNL     1      19.916  -0.741  53.795  1.00  0.00    -0.384 N 
HETATM   23  H4  UNL     1      19.417  -1.124  54.643  1.00  0.00     0.160 HD
BRANCH  22  24
HETATM   24  C8  UNL     1      19.219  -0.343  52.594  1.00  0.00     0.189 C 
BRANCH  24  25
HETATM   25  C9  UNL     1      17.757  -0.634  52.662  1.00  0.00     0.250 C 
HETATM   26  O1  UNL     1      16.742  -0.712  53.297  1.00  0.00    -0.305 OA
ENDBRANCH  24  25
ENDBRANCH  22  24
ENDBRANCH   9  22
TORSDOF 5
ENDMDL
