MODEL 1
REMARK VINA RESULT:      -9.1      0.000      0.000
REMARK  4 active torsions:
REMARK  status: ('A' for Active; 'I' for Inactive)
REMARK    1  A    between atoms: C1_2  and  O2_3 
REMARK       I    between atoms: C1_2  and  N1_11 
REMARK    2  A    between atoms: O2_3  and  C2_4 
REMARK    3  A    between atoms: C10_14  and  N2_15 
REMARK    4  A    between atoms: N2_15  and  C11_16 
ROOT
HETATM    1  O1  UNL     1      24.357   1.378  52.822  1.00  0.00    -0.236 OA
HETATM    2  C1  UNL     1      24.092   0.363  53.554  1.00  0.00     0.392 C 
HETATM    3  N1  UNL     1      22.743  -0.054  53.530  1.00  0.00    -0.186 N 
HETATM    4  C8  UNL     1      21.749   0.602  52.758  1.00  0.00     0.142 A 
HETATM    5  C9  UNL     1      20.489   0.206  52.737  1.00  0.00     0.059 A 
HETATM    6  C10 UNL     1      19.477   0.798  52.012  1.00  0.00     0.143 A 
HETATM    7  N3  UNL     1      18.269   0.236  52.125  1.00  0.00    -0.223 NA
HETATM    8  C17 UNL     1      17.969  -0.832  52.870  1.00  0.00     0.236 A 
HETATM    9  N4  UNL     1      18.954  -1.409  53.578  1.00  0.00    -0.239 NA
HETATM   10  C18 UNL     1      20.203  -0.890  53.507  1.00  0.00     0.106 A 
HETATM   11  C19 UNL     1      21.069  -1.533  54.233  1.00  0.00     0.140 A 
HETATM   12  N5  UNL     1      22.288  -1.166  54.277  1.00  0.00    -0.159 NA
ENDROOT
BRANCH   2  13
HETATM   13  O2  UNL     1      24.989  -0.348  54.350  1.00  0.00    -0.260 OA
BRANCH  13  14
HETATM   14  C2  UNL     1      26.315  -0.557  54.005  1.00  0.00     0.081 A 
HETATM   15  C3  UNL     1      27.001  -1.277  53.054  1.00  0.00     0.040 A 
HETATM   16  C4  UNL     1      28.372  -1.268  52.983  1.00  0.00     0.045 A 
HETATM   17  C5  UNL     1      29.137  -0.529  53.873  1.00  0.00     0.116 A 
HETATM   18  F1  UNL     1      30.473  -0.596  53.709  1.00  0.00    -0.206 F 
HETATM   19  C6  UNL     1      28.487   0.199  54.833  1.00  0.00     0.045 A 
HETATM   20  C7  UNL     1      27.089   0.194  54.910  1.00  0.00     0.040 A 
ENDBRANCH  13  14
ENDBRANCH   2  13
BRANCH   6  21
HETATM   21  N2  UNL     1      19.779   1.938  51.228  1.00  0.00    -0.340 N 
HETATM   22  H6  UNL     1      19.311   2.831  51.362  1.00  0.00     0.167 HD
BRANCH  21  23
HETATM   23  C11 UNL     1      20.714   2.094  50.168  1.00  0.00     0.035 A 
HETATM   24  C12 UNL     1      20.940   1.173  49.142  1.00  0.00     0.029 A 
HETATM   25  C13 UNL     1      21.858   1.403  48.146  1.00  0.00     0.004 A 
HETATM   26  C14 UNL     1      22.608   2.549  48.099  1.00  0.00     0.019 A 
HETATM   27  C15 UNL     1      22.408   3.483  49.100  1.00  0.00     0.013 A 
HETATM   28 BR1  UNL     1      23.480   5.048  48.971  1.00  0.00    -0.051 Br
HETATM   29  C16 UNL     1      21.487   3.228  50.080  1.00  0.00     0.048 A 
ENDBRANCH  21  23
ENDBRANCH   6  21
TORSDOF 4
ENDMDL
MODEL 2
REMARK VINA RESULT:      -8.9      4.638      7.170
REMARK  4 active torsions:
REMARK  status: ('A' for Active; 'I' for Inactive)
REMARK    1  A    between atoms: C1_2  and  O2_3 
REMARK       I    between atoms: C1_2  and  N1_11 
REMARK    2  A    between atoms: O2_3  and  C2_4 
REMARK    3  A    between atoms: C10_14  and  N2_15 
REMARK    4  A    between atoms: N2_15  and  C11_16 
ROOT
HETATM    1  O1  UNL     1      25.302   3.101  49.209  1.00  0.00    -0.236 OA
HETATM    2  C1  UNL     1      26.379   3.245  49.886  1.00  0.00     0.392 C 
HETATM    3  N1  UNL     1      26.430   2.509  51.090  1.00  0.00    -0.186 N 
HETATM    4  C8  UNL     1      25.368   1.673  51.525  1.00  0.00     0.142 A 
HETATM    5  C9  UNL     1      25.423   0.984  52.651  1.00  0.00     0.059 A 
HETATM    6  C10 UNL     1      24.430   0.157  53.131  1.00  0.00     0.143 A 
HETATM    7  N3  UNL     1      24.687  -0.456  54.291  1.00  0.00    -0.223 NA
HETATM    8  C17 UNL     1      25.808  -0.334  55.009  1.00  0.00     0.236 A 
HETATM    9  N4  UNL     1      26.776   0.471  54.543  1.00  0.00    -0.239 NA
HETATM   10  C18 UNL     1      26.579   1.123  53.372  1.00  0.00     0.106 A 
HETATM   11  C19 UNL     1      27.585   1.870  53.024  1.00  0.00     0.140 A 
HETATM   12  N5  UNL     1      27.554   2.551  51.948  1.00  0.00    -0.159 NA
ENDROOT
BRANCH   2  13
HETATM   13  O2  UNL     1      27.473   4.041  49.551  1.00  0.00    -0.260 OA
BRANCH  13  14
HETATM   14  C2  UNL     1      27.362   5.247  48.879  1.00  0.00     0.081 A 
HETATM   15  C3  UNL     1      26.374   6.178  48.647  1.00  0.00     0.040 A 
HETATM   16  C4  UNL     1      26.602   7.312  47.908  1.00  0.00     0.045 A 
HETATM   17  C5  UNL     1      27.845   7.577  47.356  1.00  0.00     0.116 A 
HETATM   18  F1  UNL     1      27.953   8.720  46.650  1.00  0.00    -0.206 F 
HETATM   19  C6  UNL     1      28.852   6.673  47.566  1.00  0.00     0.045 A 
HETATM   20  C7  UNL     1      28.625   5.514  48.319  1.00  0.00     0.040 A 
ENDBRANCH  13  14
ENDBRANCH   2  13
BRANCH   6  21
HETATM   21  N2  UNL     1      23.232   0.028  52.386  1.00  0.00    -0.340 N 
HETATM   22  H6  UNL     1      23.188   0.223  51.388  1.00  0.00     0.167 HD
BRANCH  21  23
HETATM   23  C11 UNL     1      21.933  -0.362  52.809  1.00  0.00     0.035 A 
HETATM   24  C12 UNL     1      21.649  -1.222  53.873  1.00  0.00     0.029 A 
HETATM   25  C13 UNL     1      20.361  -1.544  54.227  1.00  0.00     0.004 A 
HETATM   26  C14 UNL     1      19.276  -1.042  53.556  1.00  0.00     0.019 A 
HETATM   27  C15 UNL     1      19.522  -0.187  52.496  1.00  0.00     0.013 A 
HETATM   28 BR1  UNL     1      17.972   0.471  51.613  1.00  0.00    -0.051 Br
HETATM   29  C16 UNL     1      20.815   0.117  52.165  1.00  0.00     0.048 A 
ENDBRANCH  21  23
ENDBRANCH   6  21
TORSDOF 4
ENDMDL
MODEL 3
REMARK VINA RESULT:      -8.8      1.299      1.626
REMARK  4 active torsions:
REMARK  status: ('A' for Active; 'I' for Inactive)
REMARK    1  A    between atoms: C1_2  and  O2_3 
REMARK       I    between atoms: C1_2  and  N1_11 
REMARK    2  A    between atoms: O2_3  and  C2_4 
REMARK    3  A    between atoms: C10_14  and  N2_15 
REMARK    4  A    between atoms: N2_15  and  C11_16 
ROOT
HETATM    1  O1  UNL     1      24.524   1.036  51.981  1.00  0.00    -0.236 OA
HETATM    2  C1  UNL     1      24.200   0.345  53.009  1.00  0.00     0.392 C 
HETATM    3  N1  UNL     1      22.831   0.010  53.097  1.00  0.00    -0.186 N 
HETATM    4  C8  UNL     1      21.878   0.410  52.124  1.00  0.00     0.142 A 
HETATM    5  C9  UNL     1      20.599   0.090  52.210  1.00  0.00     0.059 A 
HETATM    6  C10 UNL     1      19.624   0.446  51.302  1.00  0.00     0.143 A 
HETATM    7  N3  UNL     1      18.388   0.014  51.571  1.00  0.00    -0.223 NA
HETATM    8  C17 UNL     1      18.028  -0.719  52.629  1.00  0.00     0.236 A 
HETATM    9  N4  UNL     1      18.976  -1.065  53.514  1.00  0.00    -0.239 NA
HETATM   10  C18 UNL     1      20.251  -0.661  53.300  1.00  0.00     0.106 A 
HETATM   11  C19 UNL     1      21.078  -1.058  54.222  1.00  0.00     0.140 A 
HETATM   12  N5  UNL     1      22.314  -0.756  54.168  1.00  0.00    -0.159 NA
ENDROOT
BRANCH   2  13
HETATM   13  O2  UNL     1      25.054  -0.092  54.021  1.00  0.00    -0.260 OA
BRANCH  13  14
HETATM   14  C2  UNL     1      26.375  -0.449  53.802  1.00  0.00     0.081 A 
HETATM   15  C3  UNL     1      27.060  -1.282  52.947  1.00  0.00     0.040 A 
HETATM   16  C4  UNL     1      28.426  -1.413  52.996  1.00  0.00     0.045 A 
HETATM   17  C5  UNL     1      29.186  -0.709  53.918  1.00  0.00     0.116 A 
HETATM   18  F1  UNL     1      30.517  -0.917  53.875  1.00  0.00    -0.206 F 
HETATM   19  C6  UNL     1      28.538   0.128  54.786  1.00  0.00     0.045 A 
HETATM   20  C7  UNL     1      27.145   0.266  54.739  1.00  0.00     0.040 A 
ENDBRANCH  13  14
ENDBRANCH   2  13
BRANCH   6  21
HETATM   21  N2  UNL     1      19.991   1.233  50.184  1.00  0.00    -0.340 N 
HETATM   22  H6  UNL     1      20.497   0.849  49.389  1.00  0.00     0.167 HD
BRANCH  21  23
HETATM   23  C11 UNL     1      19.764   2.613  49.927  1.00  0.00     0.035 A 
HETATM   24  C12 UNL     1      18.695   3.138  49.196  1.00  0.00     0.029 A 
HETATM   25  C13 UNL     1      18.541   4.489  49.000  1.00  0.00     0.004 A 
HETATM   26  C14 UNL     1      19.427   5.404  49.508  1.00  0.00     0.019 A 
HETATM   27  C15 UNL     1      20.497   4.917  50.236  1.00  0.00     0.013 A 
HETATM   28 BR1  UNL     1      21.684   6.240  50.911  1.00  0.00    -0.051 Br
HETATM   29  C16 UNL     1      20.627   3.566  50.417  1.00  0.00     0.048 A 
ENDBRANCH  21  23
ENDBRANCH   6  21
TORSDOF 4
ENDMDL
MODEL 4
REMARK VINA RESULT:      -8.7      2.493      3.684
REMARK  4 active torsions:
REMARK  status: ('A' for Active; 'I' for Inactive)
REMARK    1  A    between atoms: C1_2  and  O2_3 
REMARK       I    between atoms: C1_2  and  N1_11 
REMARK    2  A    between atoms: O2_3  and  C2_4 
REMARK    3  A    between atoms: C10_14  and  N2_15 
REMARK    4  A    between atoms: N2_15  and  C11_16 
ROOT
HETATM    1  O1  UNL     1      25.736   1.790  51.280  1.00  0.00    -0.236 OA
HETATM    2  C1  UNL     1      24.998   1.191  52.137  1.00  0.00     0.392 C 
HETATM    3  N1  UNL     1      23.652   1.619  52.167  1.00  0.00    -0.186 N 
HETATM    4  C8  UNL     1      23.150   2.639  51.317  1.00  0.00     0.142 A 
HETATM    5  C9  UNL     1      21.889   3.032  51.347  1.00  0.00     0.059 A 
HETATM    6  C10 UNL     1      21.340   4.014  50.552  1.00  0.00     0.143 A 
HETATM    7  N3  UNL     1      20.038   4.257  50.736  1.00  0.00    -0.223 NA
HETATM    8  C17 UNL     1      19.242   3.637  51.613  1.00  0.00     0.236 A 
HETATM    9  N4  UNL     1      19.777   2.680  52.388  1.00  0.00    -0.239 NA
HETATM   10  C18 UNL     1      21.091   2.383  52.252  1.00  0.00     0.106 A 
HETATM   11  C19 UNL     1      21.492   1.442  53.054  1.00  0.00     0.140 A 
HETATM   12  N5  UNL     1      22.705   1.051  53.051  1.00  0.00    -0.159 NA
ENDROOT
BRANCH   2  13
HETATM   13  O2  UNL     1      25.392   0.185  53.017  1.00  0.00    -0.260 OA
BRANCH  13  14
HETATM   14  C2  UNL     1      26.703  -0.003  53.423  1.00  0.00     0.081 A 
HETATM   15  C3  UNL     1      27.604   0.647  54.236  1.00  0.00     0.040 A 
HETATM   16  C4  UNL     1      28.879   0.177  54.431  1.00  0.00     0.045 A 
HETATM   17  C5  UNL     1      29.324  -0.982  53.815  1.00  0.00     0.116 A 
HETATM   18  F1  UNL     1      30.594  -1.348  54.080  1.00  0.00    -0.206 F 
HETATM   19  C6  UNL     1      28.454  -1.655  52.999  1.00  0.00     0.045 A 
HETATM   20  C7  UNL     1      27.153  -1.181  52.796  1.00  0.00     0.040 A 
ENDBRANCH  13  14
ENDBRANCH   2  13
BRANCH   6  21
HETATM   21  N2  UNL     1      22.175   4.688  49.627  1.00  0.00    -0.340 N 
HETATM   22  H6  UNL     1      22.142   4.503  48.628  1.00  0.00     0.167 HD
BRANCH  21  23
HETATM   23  C11 UNL     1      23.163   5.686  49.851  1.00  0.00     0.035 A 
HETATM   24  C12 UNL     1      23.020   6.798  50.684  1.00  0.00     0.029 A 
HETATM   25  C13 UNL     1      24.030   7.715  50.854  1.00  0.00     0.004 A 
HETATM   26  C14 UNL     1      25.237   7.594  50.216  1.00  0.00     0.019 A 
HETATM   27  C15 UNL     1      25.411   6.503  49.383  1.00  0.00     0.013 A 
HETATM   28 BR1  UNL     1      27.108   6.398  48.532  1.00  0.00    -0.051 Br
HETATM   29  C16 UNL     1      24.389   5.605  49.231  1.00  0.00     0.048 A 
ENDBRANCH  21  23
ENDBRANCH   6  21
TORSDOF 4
ENDMDL
MODEL 5
REMARK VINA RESULT:      -8.7      4.508      6.131
REMARK  4 active torsions:
REMARK  status: ('A' for Active; 'I' for Inactive)
REMARK    1  A    between atoms: C1_2  and  O2_3 
REMARK       I    between atoms: C1_2  and  N1_11 
REMARK    2  A    between atoms: O2_3  and  C2_4 
REMARK    3  A    between atoms: C10_14  and  N2_15 
REMARK    4  A    between atoms: N2_15  and  C11_16 
ROOT
HETATM    1  O1  UNL     1      26.974   2.834  50.394  1.00  0.00    -0.236 OA
HETATM    2  C1  UNL     1      26.085   2.547  51.270  1.00  0.00     0.392 C 
HETATM    3  N1  UNL     1      24.984   3.431  51.314  1.00  0.00    -0.186 N 
HETATM    4  C8  UNL     1      24.868   4.557  50.458  1.00  0.00     0.142 A 
HETATM    5  C9  UNL     1      23.834   5.379  50.502  1.00  0.00     0.059 A 
HETATM    6  C10 UNL     1      23.661   6.488  49.702  1.00  0.00     0.143 A 
HETATM    7  N3  UNL     1      22.537   7.185  49.902  1.00  0.00    -0.223 NA
HETATM    8  C17 UNL     1      21.588   6.899  50.798  1.00  0.00     0.236 A 
HETATM    9  N4  UNL     1      21.756   5.819  51.578  1.00  0.00    -0.239 NA
HETATM   10  C18 UNL     1      22.873   5.068  51.426  1.00  0.00     0.106 A 
HETATM   11  C19 UNL     1      22.923   4.050  52.234  1.00  0.00     0.140 A 
HETATM   12  N5  UNL     1      23.912   3.249  52.219  1.00  0.00    -0.159 NA
ENDROOT
BRANCH   2  13
HETATM   13  O2  UNL     1      26.106   1.472  52.157  1.00  0.00    -0.260 OA
BRANCH  13  14
HETATM   14  C2  UNL     1      27.270   0.961  52.708  1.00  0.00     0.081 A 
HETATM   15  C3  UNL     1      28.407   1.467  53.297  1.00  0.00     0.040 A 
HETATM   16  C4  UNL     1      29.414   0.654  53.754  1.00  0.00     0.045 A 
HETATM   17  C5  UNL     1      29.335  -0.725  53.643  1.00  0.00     0.116 A 
HETATM   18  F1  UNL     1      30.382  -1.423  54.125  1.00  0.00    -0.206 F 
HETATM   19  C6  UNL     1      28.218  -1.264  53.062  1.00  0.00     0.045 A 
HETATM   20  C7  UNL     1      27.188  -0.439  52.594  1.00  0.00     0.040 A 
ENDBRANCH  13  14
ENDBRANCH   2  13
BRANCH   6  21
HETATM   21  N2  UNL     1      24.665   6.810  48.757  1.00  0.00    -0.340 N 
HETATM   22  H6  UNL     1      24.581   6.576  47.771  1.00  0.00     0.167 HD
BRANCH  21  23
HETATM   23  C11 UNL     1      25.911   7.470  48.940  1.00  0.00     0.035 A 
HETATM   24  C12 UNL     1      26.128   8.584  49.754  1.00  0.00     0.029 A 
HETATM   25  C13 UNL     1      27.369   9.160  49.885  1.00  0.00     0.004 A 
HETATM   26  C14 UNL     1      28.469   8.677  49.225  1.00  0.00     0.019 A 
HETATM   27  C15 UNL     1      28.288   7.573  48.410  1.00  0.00     0.013 A 
HETATM   28 BR1  UNL     1      29.855   6.956  47.527  1.00  0.00    -0.051 Br
HETATM   29  C16 UNL     1      27.042   7.019  48.298  1.00  0.00     0.048 A 
ENDBRANCH  21  23
ENDBRANCH   6  21
TORSDOF 4
ENDMDL
MODEL 6
REMARK VINA RESULT:      -8.6      5.953      8.194
REMARK  4 active torsions:
REMARK  status: ('A' for Active; 'I' for Inactive)
REMARK    1  A    between atoms: C1_2  and  O2_3 
REMARK       I    between atoms: C1_2  and  N1_11 
REMARK    2  A    between atoms: O2_3  and  C2_4 
REMARK    3  A    between atoms: C10_14  and  N2_15 
REMARK    4  A    between atoms: N2_15  and  C11_16 
ROOT
HETATM    1  O1  UNL     1      27.752   4.363  48.665  1.00  0.00    -0.236 OA
HETATM    2  C1  UNL     1      27.079   5.452  48.681  1.00  0.00     0.392 C 
HETATM    3  N1  UNL     1      25.883   5.404  49.431  1.00  0.00    -0.186 N 
HETATM    4  C8  UNL     1      25.450   4.237  50.113  1.00  0.00     0.142 A 
HETATM    5  C9  UNL     1      24.332   4.198  50.815  1.00  0.00     0.059 A 
HETATM    6  C10 UNL     1      23.855   3.100  51.498  1.00  0.00     0.143 A 
HETATM    7  N3  UNL     1      22.703   3.274  52.154  1.00  0.00    -0.223 NA
HETATM    8  C17 UNL     1      21.989   4.403  52.199  1.00  0.00     0.236 A 
HETATM    9  N4  UNL     1      22.453   5.473  51.533  1.00  0.00    -0.239 NA
HETATM   10  C18 UNL     1      23.616   5.366  50.848  1.00  0.00     0.106 A 
HETATM   11  C19 UNL     1      23.962   6.465  50.247  1.00  0.00     0.140 A 
HETATM   12  N5  UNL     1      25.031   6.526  49.556  1.00  0.00    -0.159 NA
ENDROOT
BRANCH   2  13
HETATM   13  O2  UNL     1      27.413   6.646  48.045  1.00  0.00    -0.260 OA
BRANCH  13  14
HETATM   14  C2  UNL     1      28.470   7.451  48.437  1.00  0.00     0.081 A 
HETATM   15  C3  UNL     1      29.845   7.377  48.424  1.00  0.00     0.040 A 
HETATM   16  C4  UNL     1      30.633   8.389  48.912  1.00  0.00     0.045 A 
HETATM   17  C5  UNL     1      30.079   9.542  49.446  1.00  0.00     0.116 A 
HETATM   18  F1  UNL     1      30.950  10.468  49.895  1.00  0.00    -0.206 F 
HETATM   19  C6  UNL     1      28.715   9.650  49.477  1.00  0.00     0.045 A 
HETATM   20  C7  UNL     1      27.906   8.621  48.980  1.00  0.00     0.040 A 
ENDBRANCH  13  14
ENDBRANCH   2  13
BRANCH   6  21
HETATM   21  N2  UNL     1      24.594   1.894  51.449  1.00  0.00    -0.340 N 
HETATM   22  H6  UNL     1      24.741   1.380  50.583  1.00  0.00     0.167 HD
BRANCH  21  23
HETATM   23  C11 UNL     1      25.244   1.179  52.492  1.00  0.00     0.035 A 
HETATM   24  C12 UNL     1      24.640   0.241  53.333  1.00  0.00     0.029 A 
HETATM   25  C13 UNL     1      25.342  -0.415  54.315  1.00  0.00     0.004 A 
HETATM   26  C14 UNL     1      26.677  -0.190  54.529  1.00  0.00     0.019 A 
HETATM   27  C15 UNL     1      27.306   0.734  53.713  1.00  0.00     0.013 A 
HETATM   28 BR1  UNL     1      29.156   0.996  54.066  1.00  0.00    -0.051 Br
HETATM   29  C16 UNL     1      26.583   1.374  52.743  1.00  0.00     0.048 A 
ENDBRANCH  21  23
ENDBRANCH   6  21
TORSDOF 4
ENDMDL
MODEL 7
REMARK VINA RESULT:      -8.4      6.215      8.036
REMARK  4 active torsions:
REMARK  status: ('A' for Active; 'I' for Inactive)
REMARK    1  A    between atoms: C1_2  and  O2_3 
REMARK       I    between atoms: C1_2  and  N1_11 
REMARK    2  A    between atoms: O2_3  and  C2_4 
REMARK    3  A    between atoms: C10_14  and  N2_15 
REMARK    4  A    between atoms: N2_15  and  C11_16 
ROOT
HETATM    1  O1  UNL     1      27.940   4.309  48.521  1.00  0.00    -0.236 OA
HETATM    2  C1  UNL     1      27.549   5.523  48.627  1.00  0.00     0.392 C 
HETATM    3  N1  UNL     1      26.309   5.695  49.281  1.00  0.00    -0.186 N 
HETATM    4  C8  UNL     1      25.546   4.608  49.780  1.00  0.00     0.142 A 
HETATM    5  C9  UNL     1      24.387   4.776  50.393  1.00  0.00     0.059 A 
HETATM    6  C10 UNL     1      23.598   3.766  50.899  1.00  0.00     0.143 A 
HETATM    7  N3  UNL     1      22.462   4.150  51.491  1.00  0.00    -0.223 NA
HETATM    8  C17 UNL     1      22.039   5.411  51.628  1.00  0.00     0.236 A 
HETATM    9  N4  UNL     1      22.807   6.395  51.135  1.00  0.00    -0.239 NA
HETATM   10  C18 UNL     1      23.972   6.074  50.524  1.00  0.00     0.106 A 
HETATM   11  C19 UNL     1      24.628   7.110  50.090  1.00  0.00     0.140 A 
HETATM   12  N5  UNL     1      25.742   6.975  49.487  1.00  0.00    -0.159 NA
ENDROOT
BRANCH   2  13
HETATM   13  O2  UNL     1      28.219   6.656  48.170  1.00  0.00    -0.260 OA
BRANCH  13  14
HETATM   14  C2  UNL     1      29.592   6.820  48.260  1.00  0.00     0.081 A 
HETATM   15  C3  UNL     1      30.712   6.108  47.897  1.00  0.00     0.040 A 
HETATM   16  C4  UNL     1      31.981   6.571  48.145  1.00  0.00     0.045 A 
HETATM   17  C5  UNL     1      32.196   7.786  48.777  1.00  0.00     0.116 A 
HETATM   18  F1  UNL     1      33.483   8.138  48.968  1.00  0.00    -0.206 F 
HETATM   19  C6  UNL     1      31.104   8.521  49.153  1.00  0.00     0.045 A 
HETATM   20  C7  UNL     1      29.808   8.054  48.903  1.00  0.00     0.040 A 
ENDBRANCH  13  14
ENDBRANCH   2  13
BRANCH   6  21
HETATM   21  N2  UNL     1      24.029   2.425  50.750  1.00  0.00    -0.340 N 
HETATM   22  H6  UNL     1      24.148   1.989  49.838  1.00  0.00     0.167 HD
BRANCH  21  23
HETATM   23  C11 UNL     1      24.364   1.459  51.738  1.00  0.00     0.035 A 
HETATM   24  C12 UNL     1      25.657   1.032  52.050  1.00  0.00     0.029 A 
HETATM   25  C13 UNL     1      25.899   0.098  53.028  1.00  0.00     0.004 A 
HETATM   26  C14 UNL     1      24.887  -0.470  53.758  1.00  0.00     0.019 A 
HETATM   27  C15 UNL     1      23.595  -0.069  53.474  1.00  0.00     0.013 A 
HETATM   28 BR1  UNL     1      22.242  -0.897  54.523  1.00  0.00    -0.051 Br
HETATM   29  C16 UNL     1      23.381   0.863  52.494  1.00  0.00     0.048 A 
ENDBRANCH  21  23
ENDBRANCH   6  21
TORSDOF 4
ENDMDL
MODEL 8
REMARK VINA RESULT:      -8.4      2.887      4.701
REMARK  4 active torsions:
REMARK  status: ('A' for Active; 'I' for Inactive)
REMARK    1  A    between atoms: C1_2  and  O2_3 
REMARK       I    between atoms: C1_2  and  N1_11 
REMARK    2  A    between atoms: O2_3  and  C2_4 
REMARK    3  A    between atoms: C10_14  and  N2_15 
REMARK    4  A    between atoms: N2_15  and  C11_16 
ROOT
HETATM    1  O1  UNL     1      23.807   0.168  52.826  1.00  0.00    -0.236 OA
HETATM    2  C1  UNL     1      24.595   1.141  52.561  1.00  0.00     0.392 C 
HETATM    3  N1  UNL     1      24.202   1.948  51.470  1.00  0.00    -0.186 N 
HETATM    4  C8  UNL     1      23.025   1.700  50.716  1.00  0.00     0.142 A 
HETATM    5  C9  UNL     1      22.661   2.460  49.698  1.00  0.00     0.059 A 
HETATM    6  C10 UNL     1      21.534   2.275  48.926  1.00  0.00     0.143 A 
HETATM    7  N3  UNL     1      21.344   3.163  47.945  1.00  0.00    -0.223 NA
HETATM    8  C17 UNL     1      22.143   4.195  47.657  1.00  0.00     0.236 A 
HETATM    9  N4  UNL     1      23.241   4.376  48.408  1.00  0.00    -0.239 NA
HETATM   10  C18 UNL     1      23.493   3.512  49.421  1.00  0.00     0.106 A 
HETATM   11  C19 UNL     1      24.581   3.790  50.076  1.00  0.00     0.140 A 
HETATM   12  N5  UNL     1      24.959   3.068  51.055  1.00  0.00    -0.159 NA
ENDROOT
BRANCH   2  13
HETATM   13  O2  UNL     1      25.772   1.467  53.234  1.00  0.00    -0.260 OA
BRANCH  13  14
HETATM   14  C2  UNL     1      26.872   0.627  53.296  1.00  0.00     0.081 A 
HETATM   15  C3  UNL     1      27.149  -0.686  52.990  1.00  0.00     0.040 A 
HETATM   16  C4  UNL     1      28.395  -1.231  53.182  1.00  0.00     0.045 A 
HETATM   17  C5  UNL     1      29.440  -0.480  53.697  1.00  0.00     0.116 A 
HETATM   18  F1  UNL     1      30.618  -1.120  53.841  1.00  0.00    -0.206 F 
HETATM   19  C6  UNL     1      29.200   0.830  54.013  1.00  0.00     0.045 A 
HETATM   20  C7  UNL     1      27.932   1.391  53.820  1.00  0.00     0.040 A 
ENDBRANCH  13  14
ENDBRANCH   2  13
BRANCH   6  21
HETATM   21  N2  UNL     1      20.686   1.177  49.213  1.00  0.00    -0.340 N 
HETATM   22  H6  UNL     1      20.883   0.236  48.882  1.00  0.00     0.167 HD
BRANCH  21  23
HETATM   23  C11 UNL     1      19.475   1.131  49.955  1.00  0.00     0.035 A 
HETATM   24  C12 UNL     1      18.368   1.961  49.757  1.00  0.00     0.029 A 
HETATM   25  C13 UNL     1      17.227   1.846  50.514  1.00  0.00     0.004 A 
HETATM   26  C14 UNL     1      17.105   0.912  51.509  1.00  0.00     0.019 A 
HETATM   27  C15 UNL     1      18.183   0.074  51.732  1.00  0.00     0.013 A 
HETATM   28 BR1  UNL     1      17.945  -1.197  53.126  1.00  0.00    -0.051 Br
HETATM   29  C16 UNL     1      19.308   0.210  50.964  1.00  0.00     0.048 A 
ENDBRANCH  21  23
ENDBRANCH   6  21
TORSDOF 4
ENDMDL
MODEL 9
REMARK VINA RESULT:      -8.2      7.408      9.670
REMARK  4 active torsions:
REMARK  status: ('A' for Active; 'I' for Inactive)
REMARK    1  A    between atoms: C1_2  and  O2_3 
REMARK       I    between atoms: C1_2  and  N1_11 
REMARK    2  A    between atoms: O2_3  and  C2_4 
REMARK    3  A    between atoms: C10_14  and  N2_15 
REMARK    4  A    between atoms: N2_15  and  C11_16 
ROOT
HETATM    1  O1  UNL     1      30.098   5.162  48.363  1.00  0.00    -0.236 OA
HETATM    2  C1  UNL     1      29.392   6.144  47.943  1.00  0.00     0.392 C 
HETATM    3  N1  UNL     1      28.012   6.053  48.229  1.00  0.00    -0.186 N 
HETATM    4  C8  UNL     1      27.442   4.955  48.925  1.00  0.00     0.142 A 
HETATM    5  C9  UNL     1      26.151   4.877  49.192  1.00  0.00     0.059 A 
HETATM    6  C10 UNL     1      25.535   3.841  49.861  1.00  0.00     0.143 A 
HETATM    7  N3  UNL     1      24.214   3.959  50.035  1.00  0.00    -0.223 NA
HETATM    8  C17 UNL     1      23.458   4.980  49.619  1.00  0.00     0.236 A 
HETATM    9  N4  UNL     1      24.057   5.989  48.967  1.00  0.00    -0.239 NA
HETATM   10  C18 UNL     1      25.394   5.933  48.758  1.00  0.00     0.106 A 
HETATM   11  C19 UNL     1      25.859   6.966  48.119  1.00  0.00     0.140 A 
HETATM   12  N5  UNL     1      27.098   7.061  47.841  1.00  0.00    -0.159 NA
ENDROOT
BRANCH   2  13
HETATM   13  O2  UNL     1      29.851   7.263  47.250  1.00  0.00    -0.260 OA
BRANCH  13  14
HETATM   14  C2  UNL     1      30.184   8.459  47.866  1.00  0.00     0.081 A 
HETATM   15  C3  UNL     1      30.079   9.000  49.127  1.00  0.00     0.040 A 
HETATM   16  C4  UNL     1      30.523  10.266  49.416  1.00  0.00     0.045 A 
HETATM   17  C5  UNL     1      31.103  11.067  48.443  1.00  0.00     0.116 A 
HETATM   18  F1  UNL     1      31.502  12.292  48.841  1.00  0.00    -0.206 F 
HETATM   19  C6  UNL     1      31.223  10.562  47.177  1.00  0.00     0.045 A 
HETATM   20  C7  UNL     1      30.771   9.271  46.877  1.00  0.00     0.040 A 
ENDBRANCH  13  14
ENDBRANCH   2  13
BRANCH   6  21
HETATM   21  N2  UNL     1      26.322   2.747  50.295  1.00  0.00    -0.340 N 
HETATM   22  H6  UNL     1      27.004   2.293  49.692  1.00  0.00     0.167 HD
BRANCH  21  23
HETATM   23  C11 UNL     1      26.348   2.085  51.553  1.00  0.00     0.035 A 
HETATM   24  C12 UNL     1      27.385   2.157  52.487  1.00  0.00     0.029 A 
HETATM   25  C13 UNL     1      27.330   1.492  53.689  1.00  0.00     0.004 A 
HETATM   26  C14 UNL     1      26.255   0.718  54.043  1.00  0.00     0.019 A 
HETATM   27  C15 UNL     1      25.211   0.626  53.140  1.00  0.00     0.013 A 
HETATM   28 BR1  UNL     1      23.755  -0.462  53.697  1.00  0.00    -0.051 Br
HETATM   29  C16 UNL     1      25.292   1.298  51.950  1.00  0.00     0.048 A 
ENDBRANCH  21  23
ENDBRANCH   6  21
TORSDOF 4
ENDMDL
