MODEL 1
REMARK VINA RESULT:      -6.3      0.000      0.000
REMARK  4 active torsions:
REMARK  status: ('A' for Active; 'I' for Inactive)
REMARK    1  A    between atoms: C2_2  and  C3_3 
REMARK    2  A    between atoms: C3_3  and  S1_4 
REMARK    3  A    between atoms: S1_4  and  C4_5 
REMARK    4  A    between atoms: C14_18  and  C15_19 
ROOT
HETATM    1  C4  UNL     1      22.727   3.542  50.695  1.00  0.00     0.025 C 
HETATM    2  C5  UNL     1      21.767   4.037  51.480  1.00  0.00     0.016 C 
HETATM    3  C6  UNL     1      21.861   5.537  51.365  1.00  0.00     0.069 C 
HETATM    4  N1  UNL     1      20.705   3.635  52.371  1.00  0.00    -0.388 N 
HETATM    5  C7  UNL     1      20.062   2.343  52.448  1.00  0.00     0.160 C 
HETATM    6  C8  UNL     1      20.933   1.228  52.789  1.00  0.00    -0.025 A 
HETATM    7  C9  UNL     1      20.622   0.884  54.000  1.00  0.00     0.010 A 
HETATM    8  C10 UNL     1      21.171  -0.161  54.831  1.00  0.00     0.001 A 
HETATM    9  C11 UNL     1      22.138  -0.938  54.383  1.00  0.00     0.002 A 
HETATM   10  C12 UNL     1      22.736  -0.837  53.059  1.00  0.00     0.018 A 
HETATM   11  P1  UNL     1      22.223   0.289  52.016  1.00  0.00    -0.038 P 
HETATM   12  N2  UNL     1      23.489   1.420  51.611  1.00  0.00    -0.282 NA
HETATM   13  C13 UNL     1      23.739   2.242  52.755  1.00  0.00     0.116 C 
HETATM   14  C14 UNL     1      23.097   2.129  50.423  1.00  0.00     0.137 C 
HETATM   15  H9  UNL     1      20.390   4.407  53.028  1.00  0.00     0.159 HD
HETATM   16  H16 UNL     1      21.661  -0.305  50.870  1.00  0.00     0.077 HD
ENDROOT
BRANCH   1  17
HETATM   17  S1  UNL     1      23.594   4.940  49.942  1.00  0.00    -0.103 SA
BRANCH  17  18
HETATM   18  C3  UNL     1      25.268   4.385  49.676  1.00  0.00     0.046 C 
BRANCH  18  19
HETATM   19  C2  UNL     1      26.515   4.023  49.406  1.00  0.00    -0.024 C 
HETATM   20  C1  UNL     1      27.540   4.830  48.682  1.00  0.00     0.036 C 
ENDBRANCH  18  19
ENDBRANCH  17  18
ENDBRANCH   1  17
BRANCH  14  21
HETATM   21  C15 UNL     1      22.077   1.398  49.647  1.00  0.00     0.416 C 
HETATM   22  O1  UNL     1      21.243   0.974  48.856  1.00  0.00    -0.428 OA
ENDBRANCH  14  21
TORSDOF 4
ENDMDL
MODEL 2
REMARK VINA RESULT:      -6.2      4.413      6.620
REMARK  4 active torsions:
REMARK  status: ('A' for Active; 'I' for Inactive)
REMARK    1  A    between atoms: C2_2  and  C3_3 
REMARK    2  A    between atoms: C3_3  and  S1_4 
REMARK    3  A    between atoms: S1_4  and  C4_5 
REMARK    4  A    between atoms: C14_18  and  C15_19 
ROOT
HETATM    1  C4  UNL     1      24.540   0.893  53.041  1.00  0.00     0.025 C 
HETATM    2  C5  UNL     1      25.206   2.009  53.348  1.00  0.00     0.016 C 
HETATM    3  C6  UNL     1      24.339   3.154  52.890  1.00  0.00     0.069 C 
HETATM    4  N1  UNL     1      26.432   2.475  53.951  1.00  0.00    -0.388 N 
HETATM    5  C7  UNL     1      27.314   1.741  54.829  1.00  0.00     0.160 C 
HETATM    6  C8  UNL     1      27.909   0.540  54.260  1.00  0.00    -0.025 A 
HETATM    7  C9  UNL     1      29.162   0.814  54.068  1.00  0.00     0.010 A 
HETATM    8  C10 UNL     1      30.213  -0.014  53.527  1.00  0.00     0.001 A 
HETATM    9  C11 UNL     1      29.964  -1.251  53.141  1.00  0.00     0.002 A 
HETATM   10  C12 UNL     1      28.660  -1.894  53.213  1.00  0.00     0.018 A 
HETATM   11  P1  UNL     1      27.384  -1.088  53.798  1.00  0.00    -0.038 P 
HETATM   12  N2  UNL     1      26.139  -0.887  52.591  1.00  0.00    -0.282 NA
HETATM   13  C13 UNL     1      26.601   0.058  51.622  1.00  0.00     0.116 C 
HETATM   14  C14 UNL     1      24.917  -0.528  53.260  1.00  0.00     0.137 C 
HETATM   15  H9  UNL     1      26.675   3.476  53.694  1.00  0.00     0.159 HD
HETATM   16  H16 UNL     1      26.892  -1.702  54.964  1.00  0.00     0.077 HD
ENDROOT
BRANCH   1  17
HETATM   17  S1  UNL     1      22.986   1.380  52.253  1.00  0.00    -0.103 SA
BRANCH  17  18
HETATM   18  C3  UNL     1      21.739   0.303  52.936  1.00  0.00     0.046 C 
BRANCH  18  19
HETATM   19  C2  UNL     1      20.873  -0.530  53.497  1.00  0.00    -0.024 C 
HETATM   20  C1  UNL     1      21.191  -1.650  54.430  1.00  0.00     0.036 C 
ENDBRANCH  18  19
ENDBRANCH  17  18
ENDBRANCH   1  17
BRANCH  14  21
HETATM   21  C15 UNL     1      24.925  -0.916  54.683  1.00  0.00     0.416 C 
HETATM   22  O1  UNL     1      24.697  -1.239  55.843  1.00  0.00    -0.428 OA
ENDBRANCH  14  21
TORSDOF 4
ENDMDL
MODEL 3
REMARK VINA RESULT:      -6.1      2.548      6.182
REMARK  4 active torsions:
REMARK  status: ('A' for Active; 'I' for Inactive)
REMARK    1  A    between atoms: C2_2  and  C3_3 
REMARK    2  A    between atoms: C3_3  and  S1_4 
REMARK    3  A    between atoms: S1_4  and  C4_5 
REMARK    4  A    between atoms: C14_18  and  C15_19 
ROOT
HETATM    1  C4  UNL     1      24.537   2.045  51.716  1.00  0.00     0.025 C 
HETATM    2  C5  UNL     1      25.765   2.518  51.487  1.00  0.00     0.016 C 
HETATM    3  C6  UNL     1      26.714   1.576  52.183  1.00  0.00     0.069 C 
HETATM    4  N1  UNL     1      26.467   3.588  50.821  1.00  0.00    -0.388 N 
HETATM    5  C7  UNL     1      25.972   4.441  49.764  1.00  0.00     0.160 C 
HETATM    6  C8  UNL     1      24.812   5.251  50.102  1.00  0.00    -0.025 A 
HETATM    7  C9  UNL     1      25.238   6.473  50.192  1.00  0.00     0.010 A 
HETATM    8  C10 UNL     1      24.512   7.681  50.502  1.00  0.00     0.001 A 
HETATM    9  C11 UNL     1      23.216   7.643  50.748  1.00  0.00     0.002 A 
HETATM   10  C12 UNL     1      22.406   6.433  50.734  1.00  0.00     0.018 A 
HETATM   11  P1  UNL     1      23.083   5.001  50.402  1.00  0.00    -0.038 P 
HETATM   12  N2  UNL     1      22.964   3.902  51.753  1.00  0.00    -0.282 NA
HETATM   13  C13 UNL     1      23.848   4.358  52.781  1.00  0.00     0.116 C 
HETATM   14  C14 UNL     1      23.220   2.571  51.273  1.00  0.00     0.137 C 
HETATM   15  H9  UNL     1      27.456   3.732  51.178  1.00  0.00     0.159 HD
HETATM   16  H16 UNL     1      22.543   4.450  49.226  1.00  0.00     0.077 HD
ENDROOT
BRANCH   1  17
HETATM   17  S1  UNL     1      24.704   0.553  52.725  1.00  0.00    -0.103 SA
BRANCH  17  18
HETATM   18  C3  UNL     1      23.074   0.219  53.368  1.00  0.00     0.046 C 
BRANCH  18  19
HETATM   19  C2  UNL     1      21.891  -0.003  53.924  1.00  0.00    -0.024 C 
HETATM   20  C1  UNL     1      21.444  -1.258  54.598  1.00  0.00     0.036 C 
ENDBRANCH  18  19
ENDBRANCH  17  18
ENDBRANCH   1  17
BRANCH  14  21
HETATM   21  C15 UNL     1      23.002   2.449  49.819  1.00  0.00     0.416 C 
HETATM   22  O1  UNL     1      22.718   2.144  48.667  1.00  0.00    -0.428 OA
ENDBRANCH  14  21
TORSDOF 4
ENDMDL
MODEL 4
REMARK VINA RESULT:      -5.8      8.062     12.219
REMARK  4 active torsions:
REMARK  status: ('A' for Active; 'I' for Inactive)
REMARK    1  A    between atoms: C2_2  and  C3_3 
REMARK    2  A    between atoms: C3_3  and  S1_4 
REMARK    3  A    between atoms: S1_4  and  C4_5 
REMARK    4  A    between atoms: C14_18  and  C15_19 
ROOT
HETATM    1  C4  UNL     1      31.088   7.150  47.479  1.00  0.00     0.025 C 
HETATM    2  C5  UNL     1      31.206   7.309  46.158  1.00  0.00     0.016 C 
HETATM    3  C6  UNL     1      29.906   7.911  45.690  1.00  0.00     0.069 C 
HETATM    4  N1  UNL     1      32.126   7.107  45.064  1.00  0.00    -0.388 N 
HETATM    5  C7  UNL     1      33.557   6.923  45.141  1.00  0.00     0.160 C 
HETATM    6  C8  UNL     1      34.001   5.755  45.887  1.00  0.00    -0.025 A 
HETATM    7  C9  UNL     1      34.454   4.915  45.009  1.00  0.00     0.010 A 
HETATM    8  C10 UNL     1      35.016   3.599  45.197  1.00  0.00     0.001 A 
HETATM    9  C11 UNL     1      35.129   3.083  46.405  1.00  0.00     0.002 A 
HETATM   10  C12 UNL     1      34.718   3.750  47.633  1.00  0.00     0.018 A 
HETATM   11  P1  UNL     1      34.070   5.231  47.579  1.00  0.00    -0.038 P 
HETATM   12  N2  UNL     1      32.429   5.240  48.173  1.00  0.00    -0.282 NA
HETATM   13  C13 UNL     1      31.601   4.576  47.213  1.00  0.00     0.116 C 
HETATM   14  C14 UNL     1      32.061   6.600  48.459  1.00  0.00     0.137 C 
HETATM   15  H9  UNL     1      31.655   7.099  44.112  1.00  0.00     0.159 HD
HETATM   16  H16 UNL     1      34.880   6.160  48.259  1.00  0.00     0.077 HD
ENDROOT
BRANCH   1  17
HETATM   17  S1  UNL     1      29.447   7.741  47.958  1.00  0.00    -0.103 SA
BRANCH  17  18
HETATM   18  C3  UNL     1      28.494   6.279  48.325  1.00  0.00     0.046 C 
BRANCH  18  19
HETATM   19  C2  UNL     1      27.836   5.148  48.542  1.00  0.00    -0.024 C 
HETATM   20  C1  UNL     1      26.447   5.013  49.071  1.00  0.00     0.036 C 
ENDBRANCH  18  19
ENDBRANCH  17  18
ENDBRANCH   1  17
BRANCH  14  21
HETATM   21  C15 UNL     1      33.237   7.466  48.661  1.00  0.00     0.416 C 
HETATM   22  O1  UNL     1      34.056   8.357  48.855  1.00  0.00    -0.428 OA
ENDBRANCH  14  21
TORSDOF 4
ENDMDL
MODEL 5
REMARK VINA RESULT:      -5.7      2.482      6.020
REMARK  4 active torsions:
REMARK  status: ('A' for Active; 'I' for Inactive)
REMARK    1  A    between atoms: C2_2  and  C3_3 
REMARK    2  A    between atoms: C3_3  and  S1_4 
REMARK    3  A    between atoms: S1_4  and  C4_5 
REMARK    4  A    between atoms: C14_18  and  C15_19 
ROOT
HETATM    1  C4  UNL     1      22.301   2.774  51.583  1.00  0.00     0.025 C 
HETATM    2  C5  UNL     1      21.890   4.041  51.481  1.00  0.00     0.016 C 
HETATM    3  C6  UNL     1      20.386   4.003  51.573  1.00  0.00     0.069 C 
HETATM    4  N1  UNL     1      22.382   5.388  51.319  1.00  0.00    -0.388 N 
HETATM    5  C7  UNL     1      23.720   5.872  51.571  1.00  0.00     0.160 C 
HETATM    6  C8  UNL     1      24.770   5.264  50.767  1.00  0.00    -0.025 A 
HETATM    7  C9  UNL     1      25.151   6.172  49.923  1.00  0.00     0.010 A 
HETATM    8  C10 UNL     1      26.161   6.108  48.894  1.00  0.00     0.001 A 
HETATM    9  C11 UNL     1      26.857   5.004  48.703  1.00  0.00     0.002 A 
HETATM   10  C12 UNL     1      26.695   3.779  49.473  1.00  0.00     0.018 A 
HETATM   11  P1  UNL     1      25.599   3.701  50.661  1.00  0.00    -0.038 P 
HETATM   12  N2  UNL     1      24.371   2.506  50.330  1.00  0.00    -0.282 NA
HETATM   13  C13 UNL     1      23.545   2.993  49.267  1.00  0.00     0.116 C 
HETATM   14  C14 UNL     1      23.679   2.219  51.557  1.00  0.00     0.137 C 
HETATM   15  H9  UNL     1      21.644   6.069  50.973  1.00  0.00     0.159 HD
HETATM   16  H16 UNL     1      26.219   3.486  51.906  1.00  0.00     0.077 HD
ENDROOT
BRANCH   1  17
HETATM   17  S1  UNL     1      20.833   1.735  51.771  1.00  0.00    -0.103 SA
BRANCH  17  18
HETATM   18  C3  UNL     1      21.087   0.804  53.272  1.00  0.00     0.046 C 
BRANCH  18  19
HETATM   19  C2  UNL     1      21.302   0.044  54.337  1.00  0.00    -0.024 C 
HETATM   20  C1  UNL     1      21.210  -1.444  54.403  1.00  0.00     0.036 C 
ENDBRANCH  18  19
ENDBRANCH  17  18
ENDBRANCH   1  17
BRANCH  14  21
HETATM   21  C15 UNL     1      24.476   2.579  52.745  1.00  0.00     0.416 C 
HETATM   22  O1  UNL     1      24.941   2.829  53.850  1.00  0.00    -0.428 OA
ENDBRANCH  14  21
TORSDOF 4
ENDMDL
MODEL 6
REMARK VINA RESULT:      -5.7      6.715     11.081
REMARK  4 active torsions:
REMARK  status: ('A' for Active; 'I' for Inactive)
REMARK    1  A    between atoms: C2_2  and  C3_3 
REMARK    2  A    between atoms: C3_3  and  S1_4 
REMARK    3  A    between atoms: S1_4  and  C4_5 
REMARK    4  A    between atoms: C14_18  and  C15_19 
ROOT
HETATM    1  C4  UNL     1      28.200   7.561  48.515  1.00  0.00     0.025 C 
HETATM    2  C5  UNL     1      28.288   8.630  49.310  1.00  0.00     0.016 C 
HETATM    3  C6  UNL     1      26.937   8.780  49.962  1.00  0.00     0.069 C 
HETATM    4  N1  UNL     1      29.208   9.655  49.743  1.00  0.00    -0.388 N 
HETATM    5  C7  UNL     1      30.650   9.636  49.656  1.00  0.00     0.160 C 
HETATM    6  C8  UNL     1      31.197   9.546  48.310  1.00  0.00    -0.025 A 
HETATM    7  C9  UNL     1      31.706  10.709  48.048  1.00  0.00     0.010 A 
HETATM    8  C10 UNL     1      32.376  11.174  46.857  1.00  0.00     0.001 A 
HETATM    9  C11 UNL     1      32.545  10.371  45.824  1.00  0.00     0.002 A 
HETATM   10  C12 UNL     1      32.097   8.987  45.768  1.00  0.00     0.018 A 
HETATM   11  P1  UNL     1      31.330   8.326  47.031  1.00  0.00    -0.038 P 
HETATM   12  N2  UNL     1      29.700   7.853  46.620  1.00  0.00    -0.282 NA
HETATM   13  C13 UNL     1      28.918   9.039  46.452  1.00  0.00     0.116 C 
HETATM   14  C14 UNL     1      29.226   6.948  47.632  1.00  0.00     0.137 C 
HETATM   15  H9  UNL     1      28.728  10.501  50.167  1.00  0.00     0.159 HD
HETATM   16  H16 UNL     1      32.069   7.256  47.565  1.00  0.00     0.077 HD
ENDROOT
BRANCH   1  17
HETATM   17  S1  UNL     1      26.523   6.901  48.667  1.00  0.00    -0.103 SA
BRANCH  17  18
HETATM   18  C3  UNL     1      26.715   5.151  48.956  1.00  0.00     0.046 C 
BRANCH  18  19
HETATM   19  C2  UNL     1      26.837   3.865  49.255  1.00  0.00    -0.024 C 
HETATM   20  C1  UNL     1      26.216   3.157  50.412  1.00  0.00     0.036 C 
ENDBRANCH  18  19
ENDBRANCH  17  18
ENDBRANCH   1  17
BRANCH  14  21
HETATM   21  C15 UNL     1      30.331   6.312  48.375  1.00  0.00     0.416 C 
HETATM   22  O1  UNL     1      31.077   5.667  49.101  1.00  0.00    -0.428 OA
ENDBRANCH  14  21
TORSDOF 4
ENDMDL
MODEL 7
REMARK VINA RESULT:      -5.5      2.906      5.057
REMARK  4 active torsions:
REMARK  status: ('A' for Active; 'I' for Inactive)
REMARK    1  A    between atoms: C2_2  and  C3_3 
REMARK    2  A    between atoms: C3_3  and  S1_4 
REMARK    3  A    between atoms: S1_4  and  C4_5 
REMARK    4  A    between atoms: C14_18  and  C15_19 
ROOT
HETATM    1  C4  UNL     1      22.416   1.210  52.629  1.00  0.00     0.025 C 
HETATM    2  C5  UNL     1      21.115   1.461  52.797  1.00  0.00     0.016 C 
HETATM    3  C6  UNL     1      20.583   0.352  53.668  1.00  0.00     0.069 C 
HETATM    4  N1  UNL     1      20.082   2.404  52.441  1.00  0.00    -0.388 N 
HETATM    5  C7  UNL     1      20.253   3.757  51.963  1.00  0.00     0.160 C 
HETATM    6  C8  UNL     1      20.977   3.893  50.708  1.00  0.00    -0.025 A 
HETATM    7  C9  UNL     1      20.097   4.234  49.818  1.00  0.00     0.010 A 
HETATM    8  C10 UNL     1      20.267   4.499  48.410  1.00  0.00     0.001 A 
HETATM    9  C11 UNL     1      21.456   4.408  47.847  1.00  0.00     0.002 A 
HETATM   10  C12 UNL     1      22.679   4.047  48.549  1.00  0.00     0.018 A 
HETATM   11  P1  UNL     1      22.645   3.721  50.133  1.00  0.00    -0.038 P 
HETATM   12  N2  UNL     1      23.119   2.073  50.464  1.00  0.00    -0.282 NA
HETATM   13  C13 UNL     1      22.074   1.206  50.013  1.00  0.00     0.116 C 
HETATM   14  C14 UNL     1      23.438   1.969  51.863  1.00  0.00     0.137 C 
HETATM   15  H9  UNL     1      19.100   2.019  52.558  1.00  0.00     0.159 HD
HETATM   16  H16 UNL     1      23.421   4.646  50.855  1.00  0.00     0.077 HD
ENDROOT
BRANCH   1  17
HETATM   17  S1  UNL     1      22.802  -0.309  53.533  1.00  0.00    -0.103 SA
BRANCH  17  18
HETATM   18  C3  UNL     1      24.571  -0.510  53.407  1.00  0.00     0.046 C 
BRANCH  18  19
HETATM   19  C2  UNL     1      25.885  -0.593  53.258  1.00  0.00    -0.024 C 
HETATM   20  C1  UNL     1      26.671  -0.204  52.050  1.00  0.00     0.036 C 
ENDBRANCH  18  19
ENDBRANCH  17  18
ENDBRANCH   1  17
BRANCH  14  21
HETATM   21  C15 UNL     1      23.762   3.278  52.461  1.00  0.00     0.416 C 
HETATM   22  O1  UNL     1      23.926   4.278  53.149  1.00  0.00    -0.428 OA
ENDBRANCH  14  21
TORSDOF 4
ENDMDL
MODEL 8
REMARK VINA RESULT:      -5.3      2.523      6.336
REMARK  4 active torsions:
REMARK  status: ('A' for Active; 'I' for Inactive)
REMARK    1  A    between atoms: C2_2  and  C3_3 
REMARK    2  A    between atoms: C3_3  and  S1_4 
REMARK    3  A    between atoms: S1_4  and  C4_5 
REMARK    4  A    between atoms: C14_18  and  C15_19 
ROOT
HETATM    1  C4  UNL     1      23.471   2.426  51.363  1.00  0.00     0.025 C 
HETATM    2  C5  UNL     1      24.790   2.260  51.488  1.00  0.00     0.016 C 
HETATM    3  C6  UNL     1      24.989   1.359  52.680  1.00  0.00     0.069 C 
HETATM    4  N1  UNL     1      26.048   2.637  50.888  1.00  0.00    -0.388 N 
HETATM    5  C7  UNL     1      26.267   3.150  49.555  1.00  0.00     0.160 C 
HETATM    6  C8  UNL     1      25.607   4.410  49.250  1.00  0.00    -0.025 A 
HETATM    7  C9  UNL     1      26.543   5.305  49.196  1.00  0.00     0.010 A 
HETATM    8  C10 UNL     1      26.450   6.721  48.930  1.00  0.00     0.001 A 
HETATM    9  C11 UNL     1      25.282   7.285  48.693  1.00  0.00     0.002 A 
HETATM   10  C12 UNL     1      24.009   6.578  48.673  1.00  0.00     0.018 A 
HETATM   11  P1  UNL     1      23.956   4.986  48.955  1.00  0.00    -0.038 P 
HETATM   12  N2  UNL     1      23.034   4.614  50.390  1.00  0.00    -0.282 NA
HETATM   13  C13 UNL     1      23.787   5.040  51.530  1.00  0.00     0.116 C 
HETATM   14  C14 UNL     1      22.705   3.215  50.364  1.00  0.00     0.137 C 
HETATM   15  H9  UNL     1      26.880   2.507  51.534  1.00  0.00     0.159 HD
HETATM   16  H16 UNL     1      23.479   4.290  47.829  1.00  0.00     0.077 HD
ENDROOT
BRANCH   1  17
HETATM   17  S1  UNL     1      22.672   1.485  52.685  1.00  0.00    -0.103 SA
BRANCH  17  18
HETATM   18  C3  UNL     1      21.206   0.776  51.957  1.00  0.00     0.046 C 
BRANCH  18  19
HETATM   19  C2  UNL     1      20.086   0.331  51.404  1.00  0.00    -0.024 C 
HETATM   20  C1  UNL     1      19.341   0.956  50.273  1.00  0.00     0.036 C 
ENDBRANCH  18  19
ENDBRANCH  17  18
ENDBRANCH   1  17
BRANCH  14  21
HETATM   21  C15 UNL     1      22.769   2.651  49.002  1.00  0.00     0.416 C 
HETATM   22  O1  UNL     1      22.706   2.002  47.965  1.00  0.00    -0.428 OA
ENDBRANCH  14  21
TORSDOF 4
ENDMDL
MODEL 9
REMARK VINA RESULT:      -5.2      2.346      3.679
REMARK  4 active torsions:
REMARK  status: ('A' for Active; 'I' for Inactive)
REMARK    1  A    between atoms: C2_2  and  C3_3 
REMARK    2  A    between atoms: C3_3  and  S1_4 
REMARK    3  A    between atoms: S1_4  and  C4_5 
REMARK    4  A    between atoms: C14_18  and  C15_19 
ROOT
HETATM    1  C4  UNL     1      24.574   2.911  50.978  1.00  0.00     0.025 C 
HETATM    2  C5  UNL     1      24.501   1.767  51.663  1.00  0.00     0.016 C 
HETATM    3  C6  UNL     1      25.904   1.218  51.715  1.00  0.00     0.069 C 
HETATM    4  N1  UNL     1      23.565   0.909  52.349  1.00  0.00    -0.388 N 
HETATM    5  C7  UNL     1      22.251   1.255  52.841  1.00  0.00     0.160 C 
HETATM    6  C8  UNL     1      21.297   1.690  51.831  1.00  0.00    -0.025 A 
HETATM    7  C9  UNL     1      20.437   0.727  51.708  1.00  0.00     0.010 A 
HETATM    8  C10 UNL     1      19.282   0.628  50.849  1.00  0.00     0.001 A 
HETATM    9  C11 UNL     1      18.968   1.611  50.028  1.00  0.00     0.002 A 
HETATM   10  C12 UNL     1      19.716   2.854  49.900  1.00  0.00     0.018 A 
HETATM   11  P1  UNL     1      21.037   3.108  50.800  1.00  0.00    -0.038 P 
HETATM   12  N2  UNL     1      22.467   3.278  49.814  1.00  0.00    -0.282 NA
HETATM   13  C13 UNL     1      22.789   1.996  49.265  1.00  0.00     0.116 C 
HETATM   14  C14 UNL     1      23.500   3.873  50.619  1.00  0.00     0.137 C 
HETATM   15  H9  UNL     1      23.922  -0.081  52.487  1.00  0.00     0.159 HD
HETATM   16  H16 UNL     1      20.857   4.207  51.660  1.00  0.00     0.077 HD
ENDROOT
BRANCH   1  17
HETATM   17  S1  UNL     1      26.302   3.154  50.500  1.00  0.00    -0.103 SA
BRANCH  17  18
HETATM   18  C3  UNL     1      26.334   4.662  49.548  1.00  0.00     0.046 C 
BRANCH  18  19
HETATM   19  C2  UNL     1      26.400   5.739  48.777  1.00  0.00    -0.024 C 
HETATM   20  C1  UNL     1      27.639   6.377  48.244  1.00  0.00     0.036 C 
ENDBRANCH  18  19
ENDBRANCH  17  18
ENDBRANCH   1  17
BRANCH  14  21
HETATM   21  C15 UNL     1      22.954   4.598  51.782  1.00  0.00     0.416 C 
HETATM   22  O1  UNL     1      22.549   5.002  52.865  1.00  0.00    -0.428 OA
ENDBRANCH  14  21
TORSDOF 4
ENDMDL
