MODEL 1
REMARK VINA RESULT:      -8.5      0.000      0.000
REMARK  8 active torsions:
REMARK  status: ('A' for Active; 'I' for Inactive)
REMARK    1  A    between atoms: S1_2  and  C2_3 
REMARK    2  A    between atoms: C6_8  and  C7_9 
REMARK    3  A    between atoms: C7_9  and  C8_10 
REMARK    4  A    between atoms: C8_10  and  N1_12 
REMARK    5  A    between atoms: N1_12  and  C10_13 
REMARK    6  A    between atoms: C10_13  and  C11_14 
REMARK    7  A    between atoms: C15_20  and  N4_21 
REMARK    8  A    between atoms: N4_21  and  C16_22 
ROOT
HETATM    1  C11 UNL     1      27.258   2.442  51.842  1.00  0.00     0.005 C 
HETATM    2  C12 UNL     1      27.626   1.718  52.897  1.00  0.00     0.005 A 
HETATM    3  C13 UNL     1      28.769   2.069  53.756  1.00  0.00     0.192 A 
HETATM    4  N2  UNL     1      28.951   1.164  54.834  1.00  0.00    -0.278 NA
HETATM    5  C14 UNL     1      28.296   0.131  55.137  1.00  0.00     0.229 A 
HETATM    6  N3  UNL     1      27.197  -0.245  54.324  1.00  0.00    -0.224 NA
HETATM    7  C15 UNL     1      26.897   0.499  53.288  1.00  0.00     0.137 A 
ENDROOT
BRANCH   1   8
HETATM    8  C10 UNL     1      26.448   2.796  50.672  1.00  0.00     0.142 C 
BRANCH   8   9
HETATM    9  N1  UNL     1      26.425   4.167  50.375  1.00  0.00    -0.414 N 
HETATM   10  H16 UNL     1      27.054   4.773  50.904  1.00  0.00     0.153 HD
BRANCH   9  11
HETATM   11  C8  UNL     1      26.363   4.589  49.003  1.00  0.00     0.073 C 
HETATM   12  C9  UNL     1      27.609   5.259  48.618  1.00  0.00     0.031 C 
BRANCH  11  13
HETATM   13  C7  UNL     1      25.105   5.384  48.889  1.00  0.00     0.031 C 
BRANCH  13  14
HETATM   14  C6  UNL     1      23.968   5.081  49.782  1.00  0.00     0.012 C 
HETATM   15  C2  UNL     1      23.342   6.052  50.568  1.00  0.00     0.052 C 
HETATM   16  C3  UNL     1      21.971   5.744  50.861  1.00  0.00     0.190 C 
HETATM   17  O1  UNL     1      21.421   4.573  50.471  1.00  0.00    -0.389 OA
HETATM   18  C4  UNL     1      21.737   4.050  49.272  1.00  0.00     0.168 C 
HETATM   19  C5  UNL     1      23.242   3.897  49.223  1.00  0.00     0.032 C 
BRANCH  15  20
HETATM   20  S1  UNL     1      23.923   7.324  50.952  1.00  0.00    -0.154 SA
HETATM   21  C1  UNL     1      23.049   8.220  50.078  1.00  0.00     0.085 C 
ENDBRANCH  15  20
ENDBRANCH  13  14
ENDBRANCH  11  13
ENDBRANCH   9  11
ENDBRANCH   8   9
ENDBRANCH   1   8
BRANCH   7  22
HETATM   22  N4  UNL     1      25.805   0.047  52.530  1.00  0.00    -0.340 N 
HETATM   23  H23 UNL     1      26.072  -0.550  51.703  1.00  0.00     0.167 HD
BRANCH  22  24
HETATM   24  C16 UNL     1      24.448   0.326  52.784  1.00  0.00     0.035 A 
HETATM   25  C17 UNL     1      23.750   1.452  52.447  1.00  0.00     0.032 A 
HETATM   26  C18 UNL     1      22.432   1.686  52.714  1.00  0.00     0.046 A 
HETATM   27  C19 UNL     1      21.701   0.707  53.393  1.00  0.00     0.138 A 
HETATM   28  F1  UNL     1      20.407   0.909  53.669  1.00  0.00    -0.204 F 
HETATM   29  C20 UNL     1      22.354  -0.446  53.757  1.00  0.00     0.074 A 
HETATM   30 CL1  UNL     1      21.415  -1.651  54.604  1.00  0.00    -0.081 Cl
HETATM   31  C21 UNL     1      23.676  -0.621  53.459  1.00  0.00     0.056 A 
ENDBRANCH  22  24
ENDBRANCH   7  22
TORSDOF 8
ENDMDL
MODEL 2
REMARK VINA RESULT:      -8.4      1.744      2.294
REMARK  8 active torsions:
REMARK  status: ('A' for Active; 'I' for Inactive)
REMARK    1  A    between atoms: S1_2  and  C2_3 
REMARK    2  A    between atoms: C6_8  and  C7_9 
REMARK    3  A    between atoms: C7_9  and  C8_10 
REMARK    4  A    between atoms: C8_10  and  N1_12 
REMARK    5  A    between atoms: N1_12  and  C10_13 
REMARK    6  A    between atoms: C10_13  and  C11_14 
REMARK    7  A    between atoms: C15_20  and  N4_21 
REMARK    8  A    between atoms: N4_21  and  C16_22 
ROOT
HETATM    1  C11 UNL     1      26.948   2.496  51.900  1.00  0.00     0.005 C 
HETATM    2  C12 UNL     1      27.449   1.766  52.895  1.00  0.00     0.005 A 
HETATM    3  C13 UNL     1      28.652   2.151  53.649  1.00  0.00     0.192 A 
HETATM    4  N2  UNL     1      28.978   1.231  54.680  1.00  0.00    -0.278 NA
HETATM    5  C14 UNL     1      28.403   0.162  55.016  1.00  0.00     0.229 A 
HETATM    6  N3  UNL     1      27.247  -0.246  54.303  1.00  0.00    -0.224 NA
HETATM    7  C15 UNL     1      26.816   0.506  53.320  1.00  0.00     0.137 A 
ENDROOT
BRANCH   1   8
HETATM    8  C10 UNL     1      26.013   2.839  50.823  1.00  0.00     0.142 C 
BRANCH   8   9
HETATM    9  N1  UNL     1      25.866   4.215  50.598  1.00  0.00    -0.414 N 
HETATM   10  H16 UNL     1      26.483   4.648  49.908  1.00  0.00     0.153 HD
BRANCH   9  11
HETATM   11  C8  UNL     1      24.545   4.776  50.507  1.00  0.00     0.073 C 
HETATM   12  C9  UNL     1      23.825   4.593  51.771  1.00  0.00     0.031 C 
BRANCH  11  13
HETATM   13  C7  UNL     1      23.938   4.164  49.288  1.00  0.00     0.031 C 
BRANCH  13  14
HETATM   14  C6  UNL     1      22.583   3.582  49.363  1.00  0.00     0.012 C 
HETATM   15  C2  UNL     1      21.439   4.265  48.941  1.00  0.00     0.052 C 
HETATM   16  C3  UNL     1      20.381   3.391  48.523  1.00  0.00     0.190 C 
HETATM   17  O1  UNL     1      20.498   2.050  48.639  1.00  0.00    -0.389 OA
HETATM   18  C4  UNL     1      21.678   1.455  48.383  1.00  0.00     0.168 C 
HETATM   19  C5  UNL     1      22.714   2.092  49.284  1.00  0.00     0.032 C 
BRANCH  15  20
HETATM   20  S1  UNL     1      21.332   5.703  48.783  1.00  0.00    -0.154 SA
HETATM   21  C1  UNL     1      20.762   6.018  50.164  1.00  0.00     0.085 C 
ENDBRANCH  15  20
ENDBRANCH  13  14
ENDBRANCH  11  13
ENDBRANCH   9  11
ENDBRANCH   8   9
ENDBRANCH   1   8
BRANCH   7  22
HETATM   22  N4  UNL     1      25.676   0.021  52.659  1.00  0.00    -0.340 N 
HETATM   23  H23 UNL     1      25.870  -0.376  51.702  1.00  0.00     0.167 HD
BRANCH  22  24
HETATM   24  C16 UNL     1      24.360   0.032  53.160  1.00  0.00     0.035 A 
HETATM   25  C17 UNL     1      23.815  -0.805  54.093  1.00  0.00     0.032 A 
HETATM   26  C18 UNL     1      22.530  -0.763  54.552  1.00  0.00     0.046 A 
HETATM   27  C19 UNL     1      21.667   0.211  54.042  1.00  0.00     0.138 A 
HETATM   28  F1  UNL     1      20.401   0.277  54.474  1.00  0.00    -0.204 F 
HETATM   29  C20 UNL     1      22.163   1.080  53.100  1.00  0.00     0.074 A 
HETATM   30 CL1  UNL     1      21.061   2.287  52.482  1.00  0.00    -0.081 Cl
HETATM   31  C21 UNL     1      23.460   0.987  52.682  1.00  0.00     0.056 A 
ENDBRANCH  22  24
ENDBRANCH   7  22
TORSDOF 8
ENDMDL
MODEL 3
REMARK VINA RESULT:      -8.3      1.331      1.727
REMARK  8 active torsions:
REMARK  status: ('A' for Active; 'I' for Inactive)
REMARK    1  A    between atoms: S1_2  and  C2_3 
REMARK    2  A    between atoms: C6_8  and  C7_9 
REMARK    3  A    between atoms: C7_9  and  C8_10 
REMARK    4  A    between atoms: C8_10  and  N1_12 
REMARK    5  A    between atoms: N1_12  and  C10_13 
REMARK    6  A    between atoms: C10_13  and  C11_14 
REMARK    7  A    between atoms: C15_20  and  N4_21 
REMARK    8  A    between atoms: N4_21  and  C16_22 
ROOT
HETATM    1  C11 UNL     1      27.212   2.468  51.810  1.00  0.00     0.005 C 
HETATM    2  C12 UNL     1      27.606   1.751  52.861  1.00  0.00     0.005 A 
HETATM    3  C13 UNL     1      28.756   2.121  53.702  1.00  0.00     0.192 A 
HETATM    4  N2  UNL     1      28.967   1.220  54.780  1.00  0.00    -0.278 NA
HETATM    5  C14 UNL     1      28.332   0.178  55.093  1.00  0.00     0.229 A 
HETATM    6  N3  UNL     1      27.226  -0.215  54.297  1.00  0.00    -0.224 NA
HETATM    7  C15 UNL     1      26.901   0.522  53.264  1.00  0.00     0.137 A 
ENDROOT
BRANCH   1   8
HETATM    8  C10 UNL     1      26.380   2.809  50.652  1.00  0.00     0.142 C 
BRANCH   8   9
HETATM    9  N1  UNL     1      25.924   4.135  50.634  1.00  0.00    -0.414 N 
HETATM   10  H16 UNL     1      26.557   4.854  50.990  1.00  0.00     0.153 HD
BRANCH   9  11
HETATM   11  C8  UNL     1      25.215   4.620  49.482  1.00  0.00     0.073 C 
HETATM   12  C9  UNL     1      25.900   5.786  48.914  1.00  0.00     0.031 C 
BRANCH  11  13
HETATM   13  C7  UNL     1      23.807   4.819  49.937  1.00  0.00     0.031 C 
BRANCH  13  14
HETATM   14  C6  UNL     1      22.809   3.756  49.702  1.00  0.00     0.012 C 
HETATM   15  C2  UNL     1      21.444   3.932  49.945  1.00  0.00     0.052 C 
HETATM   16  C3  UNL     1      20.613   3.094  49.129  1.00  0.00     0.190 C 
HETATM   17  O1  UNL     1      21.152   2.177  48.295  1.00  0.00    -0.389 OA
HETATM   18  C4  UNL     1      22.276   2.469  47.614  1.00  0.00     0.168 C 
HETATM   19  C5  UNL     1      23.333   2.858  48.625  1.00  0.00     0.032 C 
BRANCH  15  20
HETATM   20  S1  UNL     1      20.869   4.942  50.812  1.00  0.00    -0.154 SA
HETATM   21  C1  UNL     1      19.531   5.093  50.090  1.00  0.00     0.085 C 
ENDBRANCH  15  20
ENDBRANCH  13  14
ENDBRANCH  11  13
ENDBRANCH   9  11
ENDBRANCH   8   9
ENDBRANCH   1   8
BRANCH   7  22
HETATM   22  N4  UNL     1      25.804   0.053  52.522  1.00  0.00    -0.340 N 
HETATM   23  H23 UNL     1      26.068  -0.538  51.691  1.00  0.00     0.167 HD
BRANCH  22  24
HETATM   24  C16 UNL     1      24.447   0.310  52.798  1.00  0.00     0.035 A 
HETATM   25  C17 UNL     1      23.729   1.431  52.487  1.00  0.00     0.032 A 
HETATM   26  C18 UNL     1      22.412   1.642  52.775  1.00  0.00     0.046 A 
HETATM   27  C19 UNL     1      21.703   0.643  53.449  1.00  0.00     0.138 A 
HETATM   28  F1  UNL     1      20.410   0.822  53.745  1.00  0.00    -0.204 F 
HETATM   29  C20 UNL     1      22.377  -0.507  53.786  1.00  0.00     0.074 A 
HETATM   30 CL1  UNL     1      21.466  -1.737  54.627  1.00  0.00    -0.081 Cl
HETATM   31  C21 UNL     1      23.697  -0.658  53.469  1.00  0.00     0.056 A 
ENDBRANCH  22  24
ENDBRANCH   7  22
TORSDOF 8
ENDMDL
MODEL 4
REMARK VINA RESULT:      -8.3      2.360      3.592
REMARK  8 active torsions:
REMARK  status: ('A' for Active; 'I' for Inactive)
REMARK    1  A    between atoms: S1_2  and  C2_3 
REMARK    2  A    between atoms: C6_8  and  C7_9 
REMARK    3  A    between atoms: C7_9  and  C8_10 
REMARK    4  A    between atoms: C8_10  and  N1_12 
REMARK    5  A    between atoms: N1_12  and  C10_13 
REMARK    6  A    between atoms: C10_13  and  C11_14 
REMARK    7  A    between atoms: C15_20  and  N4_21 
REMARK    8  A    between atoms: N4_21  and  C16_22 
ROOT
HETATM    1  C11 UNL     1      27.162   2.460  51.894  1.00  0.00     0.005 C 
HETATM    2  C12 UNL     1      27.590   1.730  52.922  1.00  0.00     0.005 A 
HETATM    3  C13 UNL     1      28.767   2.088  53.729  1.00  0.00     0.192 A 
HETATM    4  N2  UNL     1      29.013   1.174  54.787  1.00  0.00    -0.278 NA
HETATM    5  C14 UNL     1      28.388   0.128  55.108  1.00  0.00     0.229 A 
HETATM    6  N3  UNL     1      27.257  -0.255  54.345  1.00  0.00    -0.224 NA
HETATM    7  C15 UNL     1      26.898   0.496  53.332  1.00  0.00     0.137 A 
ENDROOT
BRANCH   1   8
HETATM    8  C10 UNL     1      26.292   2.815  50.768  1.00  0.00     0.142 C 
BRANCH   8   9
HETATM    9  N1  UNL     1      25.587   4.016  50.935  1.00  0.00    -0.414 N 
HETATM   10  H16 UNL     1      25.929   4.667  51.644  1.00  0.00     0.153 HD
BRANCH   9  11
HETATM   11  C8  UNL     1      25.134   4.734  49.776  1.00  0.00     0.073 C 
HETATM   12  C9  UNL     1      23.983   4.056  49.172  1.00  0.00     0.031 C 
BRANCH  11  13
HETATM   13  C7  UNL     1      26.345   4.905  48.918  1.00  0.00     0.031 C 
BRANCH  13  14
HETATM   14  C6  UNL     1      26.820   6.265  48.591  1.00  0.00     0.012 C 
HETATM   15  C2  UNL     1      28.106   6.522  48.109  1.00  0.00     0.052 C 
HETATM   16  C3  UNL     1      28.181   7.710  47.308  1.00  0.00     0.190 C 
HETATM   17  O1  UNL     1      27.106   8.513  47.148  1.00  0.00    -0.389 OA
HETATM   18  C4  UNL     1      25.881   7.973  47.010  1.00  0.00     0.168 C 
HETATM   19  C5  UNL     1      25.631   7.094  48.217  1.00  0.00     0.032 C 
BRANCH  15  20
HETATM   20  S1  UNL     1      29.248   5.640  48.251  1.00  0.00    -0.154 SA
HETATM   21  C1  UNL     1      30.323   6.619  47.783  1.00  0.00     0.085 C 
ENDBRANCH  15  20
ENDBRANCH  13  14
ENDBRANCH  11  13
ENDBRANCH   9  11
ENDBRANCH   8   9
ENDBRANCH   1   8
BRANCH   7  22
HETATM   22  N4  UNL     1      25.777   0.037  52.622  1.00  0.00    -0.340 N 
HETATM   23  H23 UNL     1      26.005  -0.387  51.685  1.00  0.00     0.167 HD
BRANCH  22  24
HETATM   24  C16 UNL     1      24.438   0.104  53.054  1.00  0.00     0.035 A 
HETATM   25  C17 UNL     1      23.788  -0.753  53.897  1.00  0.00     0.032 A 
HETATM   26  C18 UNL     1      22.484  -0.654  54.290  1.00  0.00     0.046 A 
HETATM   27  C19 UNL     1      21.716   0.408  53.805  1.00  0.00     0.138 A 
HETATM   28  F1  UNL     1      20.435   0.531  54.173  1.00  0.00    -0.204 F 
HETATM   29  C20 UNL     1      22.320   1.301  52.952  1.00  0.00     0.074 A 
HETATM   30 CL1  UNL     1      21.335   2.618  52.363  1.00  0.00    -0.081 Cl
HETATM   31  C21 UNL     1      23.630   1.147  52.597  1.00  0.00     0.056 A 
ENDBRANCH  22  24
ENDBRANCH   7  22
TORSDOF 8
ENDMDL
MODEL 5
REMARK VINA RESULT:      -8.2      3.241      5.226
REMARK  8 active torsions:
REMARK  status: ('A' for Active; 'I' for Inactive)
REMARK    1  A    between atoms: S1_2  and  C2_3 
REMARK    2  A    between atoms: C6_8  and  C7_9 
REMARK    3  A    between atoms: C7_9  and  C8_10 
REMARK    4  A    between atoms: C8_10  and  N1_12 
REMARK    5  A    between atoms: N1_12  and  C10_13 
REMARK    6  A    between atoms: C10_13  and  C11_14 
REMARK    7  A    between atoms: C15_20  and  N4_21 
REMARK    8  A    between atoms: N4_21  and  C16_22 
ROOT
HETATM    1  C11 UNL     1      21.783   0.499  51.745  1.00  0.00     0.005 C 
HETATM    2  C12 UNL     1      22.084  -0.104  52.894  1.00  0.00     0.005 A 
HETATM    3  C13 UNL     1      21.068  -0.673  53.794  1.00  0.00     0.192 A 
HETATM    4  N2  UNL     1      21.629  -1.289  54.944  1.00  0.00    -0.278 NA
HETATM    5  C14 UNL     1      22.836  -1.399  55.290  1.00  0.00     0.229 A 
HETATM    6  N3  UNL     1      23.840  -0.852  54.453  1.00  0.00    -0.224 NA
HETATM    7  C15 UNL     1      23.478  -0.253  53.345  1.00  0.00     0.137 A 
ENDROOT
BRANCH   1   8
HETATM    8  C10 UNL     1      22.051   1.205  50.488  1.00  0.00     0.142 C 
BRANCH   8   9
HETATM    9  N1  UNL     1      22.156   2.597  50.614  1.00  0.00    -0.414 N 
HETATM   10  H16 UNL     1      21.529   3.170  50.047  1.00  0.00     0.153 HD
BRANCH   9  11
HETATM   11  C8  UNL     1      22.314   3.175  51.921  1.00  0.00     0.073 C 
HETATM   12  C9  UNL     1      21.227   4.120  52.195  1.00  0.00     0.031 C 
BRANCH  11  13
HETATM   13  C7  UNL     1      23.705   3.717  51.950  1.00  0.00     0.031 C 
BRANCH  13  14
HETATM   14  C6  UNL     1      24.357   4.118  50.686  1.00  0.00     0.012 C 
HETATM   15  C2  UNL     1      24.493   5.452  50.294  1.00  0.00     0.052 C 
HETATM   16  C3  UNL     1      25.618   5.674  49.432  1.00  0.00     0.190 C 
HETATM   17  O1  UNL     1      26.378   4.645  48.997  1.00  0.00    -0.389 OA
HETATM   18  C4  UNL     1      26.663   3.624  49.827  1.00  0.00     0.168 C 
HETATM   19  C5  UNL     1      25.350   3.058  50.321  1.00  0.00     0.032 C 
BRANCH  15  20
HETATM   20  S1  UNL     1      23.700   6.559  50.792  1.00  0.00    -0.154 SA
HETATM   21  C1  UNL     1      24.686   7.679  50.469  1.00  0.00     0.085 C 
ENDBRANCH  15  20
ENDBRANCH  13  14
ENDBRANCH  11  13
ENDBRANCH   9  11
ENDBRANCH   8   9
ENDBRANCH   1   8
BRANCH   7  22
HETATM   22  N4  UNL     1      24.534   0.273  52.583  1.00  0.00    -0.340 N 
HETATM   23  H23 UNL     1      24.224   0.850  51.757  1.00  0.00     0.167 HD
BRANCH  22  24
HETATM   24  C16 UNL     1      25.908   0.088  52.832  1.00  0.00     0.035 A 
HETATM   25  C17 UNL     1      26.618  -1.079  52.773  1.00  0.00     0.032 A 
HETATM   26  C18 UNL     1      27.952  -1.218  53.025  1.00  0.00     0.046 A 
HETATM   27  C19 UNL     1      28.689  -0.084  53.379  1.00  0.00     0.138 A 
HETATM   28  F1  UNL     1      30.000  -0.189  53.632  1.00  0.00    -0.204 F 
HETATM   29  C20 UNL     1      28.025   1.117  53.454  1.00  0.00     0.074 A 
HETATM   30 CL1  UNL     1      28.973   2.516  53.897  1.00  0.00    -0.081 Cl
HETATM   31  C21 UNL     1      26.687   1.190  53.189  1.00  0.00     0.056 A 
ENDBRANCH  22  24
ENDBRANCH   7  22
TORSDOF 8
ENDMDL
MODEL 6
REMARK VINA RESULT:      -8.1      3.007      5.141
REMARK  8 active torsions:
REMARK  status: ('A' for Active; 'I' for Inactive)
REMARK    1  A    between atoms: S1_2  and  C2_3 
REMARK    2  A    between atoms: C6_8  and  C7_9 
REMARK    3  A    between atoms: C7_9  and  C8_10 
REMARK    4  A    between atoms: C8_10  and  N1_12 
REMARK    5  A    between atoms: N1_12  and  C10_13 
REMARK    6  A    between atoms: C10_13  and  C11_14 
REMARK    7  A    between atoms: C15_20  and  N4_21 
REMARK    8  A    between atoms: N4_21  and  C16_22 
ROOT
HETATM    1  C11 UNL     1      25.068  -0.111  53.708  1.00  0.00     0.005 C 
HETATM    2  C12 UNL     1      26.239   0.523  53.720  1.00  0.00     0.005 A 
HETATM    3  C13 UNL     1      27.252   0.323  54.769  1.00  0.00     0.192 A 
HETATM    4  N2  UNL     1      28.430   1.087  54.555  1.00  0.00    -0.278 NA
HETATM    5  C14 UNL     1      28.708   1.893  53.628  1.00  0.00     0.229 A 
HETATM    6  N3  UNL     1      27.751   2.120  52.607  1.00  0.00    -0.224 NA
HETATM    7  C15 UNL     1      26.609   1.479  52.663  1.00  0.00     0.137 A 
ENDROOT
BRANCH   1   8
HETATM    8  C10 UNL     1      23.741  -0.473  53.199  1.00  0.00     0.142 C 
BRANCH   8   9
HETATM    9  N1  UNL     1      22.677  -0.088  54.027  1.00  0.00    -0.414 N 
HETATM   10  H16 UNL     1      22.856   0.650  54.710  1.00  0.00     0.153 HD
BRANCH   9  11
HETATM   11  C8  UNL     1      21.365   0.065  53.461  1.00  0.00     0.073 C 
HETATM   12  C9  UNL     1      20.534  -1.101  53.776  1.00  0.00     0.031 C 
BRANCH  11  13
HETATM   13  C7  UNL     1      21.589   0.364  52.015  1.00  0.00     0.031 C 
BRANCH  13  14
HETATM   14  C6  UNL     1      21.238   1.697  51.484  1.00  0.00     0.012 C 
HETATM   15  C2  UNL     1      21.092   1.954  50.118  1.00  0.00     0.052 C 
HETATM   16  C3  UNL     1      20.200   3.044  49.842  1.00  0.00     0.190 C 
HETATM   17  O1  UNL     1      19.660   3.775  50.842  1.00  0.00    -0.389 OA
HETATM   18  C4  UNL     1      19.265   3.168  51.977  1.00  0.00     0.168 C 
HETATM   19  C5  UNL     1      20.458   2.424  52.536  1.00  0.00     0.032 C 
BRANCH  15  20
HETATM   20  S1  UNL     1      21.643   1.145  49.048  1.00  0.00    -0.154 SA
HETATM   21  C1  UNL     1      21.409   2.132  47.906  1.00  0.00     0.085 C 
ENDBRANCH  15  20
ENDBRANCH  13  14
ENDBRANCH  11  13
ENDBRANCH   9  11
ENDBRANCH   8   9
ENDBRANCH   1   8
BRANCH   7  22
HETATM   22  N4  UNL     1      25.714   1.774  51.622  1.00  0.00    -0.340 N 
HETATM   23  H23 UNL     1      25.740   1.085  50.824  1.00  0.00     0.167 HD
BRANCH  22  24
HETATM   24  C16 UNL     1      24.832   2.871  51.573  1.00  0.00     0.035 A 
HETATM   25  C17 UNL     1      24.212   3.491  52.621  1.00  0.00     0.032 A 
HETATM   26  C18 UNL     1      23.360   4.554  52.532  1.00  0.00     0.046 A 
HETATM   27  C19 UNL     1      23.073   5.079  51.269  1.00  0.00     0.138 A 
HETATM   28  F1  UNL     1      22.240   6.121  51.150  1.00  0.00    -0.204 F 
HETATM   29  C20 UNL     1      23.669   4.493  50.178  1.00  0.00     0.074 A 
HETATM   30 CL1  UNL     1      23.292   5.171  48.613  1.00  0.00    -0.081 Cl
HETATM   31  C21 UNL     1      24.514   3.431  50.334  1.00  0.00     0.056 A 
ENDBRANCH  22  24
ENDBRANCH   7  22
TORSDOF 8
ENDMDL
MODEL 7
REMARK VINA RESULT:      -7.9      3.644      6.292
REMARK  8 active torsions:
REMARK  status: ('A' for Active; 'I' for Inactive)
REMARK    1  A    between atoms: S1_2  and  C2_3 
REMARK    2  A    between atoms: C6_8  and  C7_9 
REMARK    3  A    between atoms: C7_9  and  C8_10 
REMARK    4  A    between atoms: C8_10  and  N1_12 
REMARK    5  A    between atoms: N1_12  and  C10_13 
REMARK    6  A    between atoms: C10_13  and  C11_14 
REMARK    7  A    between atoms: C15_20  and  N4_21 
REMARK    8  A    between atoms: N4_21  and  C16_22 
ROOT
HETATM    1  C11 UNL     1      23.988   4.384  51.442  1.00  0.00     0.005 C 
HETATM    2  C12 UNL     1      25.023   4.463  50.607  1.00  0.00     0.005 A 
HETATM    3  C13 UNL     1      25.393   5.699  49.899  1.00  0.00     0.192 A 
HETATM    4  N2  UNL     1      26.548   5.547  49.086  1.00  0.00    -0.278 NA
HETATM    5  C14 UNL     1      27.264   4.529  48.888  1.00  0.00     0.229 A 
HETATM    6  N3  UNL     1      26.929   3.318  49.544  1.00  0.00    -0.224 NA
HETATM    7  C15 UNL     1      25.886   3.301  50.338  1.00  0.00     0.137 A 
ENDROOT
BRANCH   1   8
HETATM    8  C10 UNL     1      23.066   3.738  52.382  1.00  0.00     0.142 C 
BRANCH   8   9
HETATM    9  N1  UNL     1      21.960   3.122  51.779  1.00  0.00    -0.414 N 
HETATM   10  H16 UNL     1      21.098   3.667  51.709  1.00  0.00     0.153 HD
BRANCH   9  11
HETATM   11  C8  UNL     1      22.152   2.339  50.589  1.00  0.00     0.073 C 
HETATM   12  C9  UNL     1      21.192   2.738  49.555  1.00  0.00     0.031 C 
BRANCH  11  13
HETATM   13  C7  UNL     1      22.109   0.917  51.040  1.00  0.00     0.031 C 
BRANCH  13  14
HETATM   14  C6  UNL     1      21.700   0.603  52.424  1.00  0.00     0.012 C 
HETATM   15  C2  UNL     1      20.420   0.148  52.752  1.00  0.00     0.052 C 
HETATM   16  C3  UNL     1      20.392  -0.649  53.944  1.00  0.00     0.190 C 
HETATM   17  O1  UNL     1      21.506  -0.830  54.688  1.00  0.00    -0.389 OA
HETATM   18  C4  UNL     1      22.697  -0.995  54.084  1.00  0.00     0.168 C 
HETATM   19  C5  UNL     1      22.925   0.204  53.189  1.00  0.00     0.032 C 
BRANCH  15  20
HETATM   20  S1  UNL     1      19.236   0.312  51.931  1.00  0.00    -0.154 SA
HETATM   21  C1  UNL     1      18.344  -0.694  52.656  1.00  0.00     0.085 C 
ENDBRANCH  15  20
ENDBRANCH  13  14
ENDBRANCH  11  13
ENDBRANCH   9  11
ENDBRANCH   8   9
ENDBRANCH   1   8
BRANCH   7  22
HETATM   22  N4  UNL     1      25.617   2.058  50.935  1.00  0.00    -0.340 N 
HETATM   23  H23 UNL     1      24.667   1.666  50.703  1.00  0.00     0.167 HD
BRANCH  22  24
HETATM   24  C16 UNL     1      26.484   1.341  51.782  1.00  0.00     0.035 A 
HETATM   25  C17 UNL     1      26.535  -0.011  51.973  1.00  0.00     0.032 A 
HETATM   26  C18 UNL     1      27.392  -0.670  52.807  1.00  0.00     0.046 A 
HETATM   27  C19 UNL     1      28.313   0.076  53.548  1.00  0.00     0.138 A 
HETATM   28  F1  UNL     1      29.166  -0.542  54.374  1.00  0.00    -0.204 F 
HETATM   29  C20 UNL     1      28.306   1.442  53.395  1.00  0.00     0.074 A 
HETATM   30 CL1  UNL     1      29.469   2.347  54.332  1.00  0.00    -0.081 Cl
HETATM   31  C21 UNL     1      27.423   2.042  52.542  1.00  0.00     0.056 A 
ENDBRANCH  22  24
ENDBRANCH   7  22
TORSDOF 8
ENDMDL
MODEL 8
REMARK VINA RESULT:      -7.9      1.860      2.358
REMARK  8 active torsions:
REMARK  status: ('A' for Active; 'I' for Inactive)
REMARK    1  A    between atoms: S1_2  and  C2_3 
REMARK    2  A    between atoms: C6_8  and  C7_9 
REMARK    3  A    between atoms: C7_9  and  C8_10 
REMARK    4  A    between atoms: C8_10  and  N1_12 
REMARK    5  A    between atoms: N1_12  and  C10_13 
REMARK    6  A    between atoms: C10_13  and  C11_14 
REMARK    7  A    between atoms: C15_20  and  N4_21 
REMARK    8  A    between atoms: N4_21  and  C16_22 
ROOT
HETATM    1  C11 UNL     1      27.199   2.512  51.847  1.00  0.00     0.005 C 
HETATM    2  C12 UNL     1      27.601   1.767  52.875  1.00  0.00     0.005 A 
HETATM    3  C13 UNL     1      28.757   2.113  53.716  1.00  0.00     0.192 A 
HETATM    4  N2  UNL     1      28.977   1.183  54.767  1.00  0.00    -0.278 NA
HETATM    5  C14 UNL     1      28.343   0.133  55.057  1.00  0.00     0.229 A 
HETATM    6  N3  UNL     1      27.231  -0.238  54.260  1.00  0.00    -0.224 NA
HETATM    7  C15 UNL     1      26.898   0.528  53.250  1.00  0.00     0.137 A 
ENDROOT
BRANCH   1   8
HETATM    8  C10 UNL     1      26.357   2.885  50.705  1.00  0.00     0.142 C 
BRANCH   8   9
HETATM    9  N1  UNL     1      25.839   4.186  50.766  1.00  0.00    -0.414 N 
HETATM   10  H16 UNL     1      26.505   4.954  50.869  1.00  0.00     0.153 HD
BRANCH   9  11
HETATM   11  C8  UNL     1      24.778   4.564  49.873  1.00  0.00     0.073 C 
HETATM   12  C9  UNL     1      24.133   3.371  49.313  1.00  0.00     0.031 C 
BRANCH  11  13
HETATM   13  C7  UNL     1      25.396   5.516  48.903  1.00  0.00     0.031 C 
BRANCH  13  14
HETATM   14  C6  UNL     1      24.771   6.835  48.678  1.00  0.00     0.012 C 
HETATM   15  C2  UNL     1      25.457   8.039  48.857  1.00  0.00     0.052 C 
HETATM   16  C3  UNL     1      24.943   9.107  48.048  1.00  0.00     0.190 C 
HETATM   17  O1  UNL     1      23.843   8.934  47.281  1.00  0.00    -0.389 OA
HETATM   18  C4  UNL     1      23.654   7.770  46.633  1.00  0.00     0.168 C 
HETATM   19  C5  UNL     1      23.680   6.664  47.666  1.00  0.00     0.032 C 
BRANCH  15  20
HETATM   20  S1  UNL     1      26.658   8.211  49.650  1.00  0.00    -0.154 SA
HETATM   21  C1  UNL     1      26.834   9.712  49.433  1.00  0.00     0.085 C 
ENDBRANCH  15  20
ENDBRANCH  13  14
ENDBRANCH  11  13
ENDBRANCH   9  11
ENDBRANCH   8   9
ENDBRANCH   1   8
BRANCH   7  22
HETATM   22  N4  UNL     1      25.795   0.079  52.505  1.00  0.00    -0.340 N 
HETATM   23  H23 UNL     1      26.052  -0.488  51.655  1.00  0.00     0.167 HD
BRANCH  22  24
HETATM   24  C16 UNL     1      24.440   0.327  52.800  1.00  0.00     0.035 A 
HETATM   25  C17 UNL     1      23.717   1.452  52.521  1.00  0.00     0.032 A 
HETATM   26  C18 UNL     1      22.402   1.655  52.827  1.00  0.00     0.046 A 
HETATM   27  C19 UNL     1      21.702   0.640  53.486  1.00  0.00     0.138 A 
HETATM   28  F1  UNL     1      20.412   0.810  53.799  1.00  0.00    -0.204 F 
HETATM   29  C20 UNL     1      22.382  -0.515  53.792  1.00  0.00     0.074 A 
HETATM   30 CL1  UNL     1      21.482  -1.766  54.614  1.00  0.00    -0.081 Cl
HETATM   31  C21 UNL     1      23.699  -0.657  53.457  1.00  0.00     0.056 A 
ENDBRANCH  22  24
ENDBRANCH   7  22
TORSDOF 8
ENDMDL
MODEL 9
REMARK VINA RESULT:      -7.8      1.866      2.744
REMARK  8 active torsions:
REMARK  status: ('A' for Active; 'I' for Inactive)
REMARK    1  A    between atoms: S1_2  and  C2_3 
REMARK    2  A    between atoms: C6_8  and  C7_9 
REMARK    3  A    between atoms: C7_9  and  C8_10 
REMARK    4  A    between atoms: C8_10  and  N1_12 
REMARK    5  A    between atoms: N1_12  and  C10_13 
REMARK    6  A    between atoms: C10_13  and  C11_14 
REMARK    7  A    between atoms: C15_20  and  N4_21 
REMARK    8  A    between atoms: N4_21  and  C16_22 
ROOT
HETATM    1  C11 UNL     1      26.941   2.388  51.820  1.00  0.00     0.005 C 
HETATM    2  C12 UNL     1      27.423   1.697  52.851  1.00  0.00     0.005 A 
HETATM    3  C13 UNL     1      28.628   2.096  53.595  1.00  0.00     0.192 A 
HETATM    4  N2  UNL     1      28.932   1.219  54.669  1.00  0.00    -0.278 NA
HETATM    5  C14 UNL     1      28.336   0.176  55.050  1.00  0.00     0.229 A 
HETATM    6  N3  UNL     1      27.178  -0.245  54.349  1.00  0.00    -0.224 NA
HETATM    7  C15 UNL     1      26.765   0.469  53.330  1.00  0.00     0.137 A 
ENDROOT
BRANCH   1   8
HETATM    8  C10 UNL     1      26.018   2.697  50.722  1.00  0.00     0.142 C 
BRANCH   8   9
HETATM    9  N1  UNL     1      24.818   3.300  51.125  1.00  0.00    -0.414 N 
HETATM   10  H16 UNL     1      24.455   3.055  52.048  1.00  0.00     0.153 HD
BRANCH   9  11
HETATM   11  C8  UNL     1      24.609   4.697  50.862  1.00  0.00     0.073 C 
HETATM   12  C9  UNL     1      23.581   5.237  51.756  1.00  0.00     0.031 C 
BRANCH  11  13
HETATM   13  C7  UNL     1      24.346   4.789  49.395  1.00  0.00     0.031 C 
BRANCH  13  14
HETATM   14  C6  UNL     1      24.903   5.920  48.625  1.00  0.00     0.012 C 
HETATM   15  C2  UNL     1      24.199   7.107  48.405  1.00  0.00     0.052 C 
HETATM   16  C3  UNL     1      25.054   8.242  48.207  1.00  0.00     0.190 C 
HETATM   17  O1  UNL     1      26.397   8.102  48.151  1.00  0.00    -0.389 OA
HETATM   18  C4  UNL     1      27.014   7.232  48.972  1.00  0.00     0.168 C 
HETATM   19  C5  UNL     1      26.395   5.871  48.742  1.00  0.00     0.032 C 
BRANCH  15  20
HETATM   20  S1  UNL     1      22.760   7.260  48.503  1.00  0.00    -0.154 SA
HETATM   21  C1  UNL     1      22.738   8.247  49.668  1.00  0.00     0.085 C 
ENDBRANCH  15  20
ENDBRANCH  13  14
ENDBRANCH  11  13
ENDBRANCH   9  11
ENDBRANCH   8   9
ENDBRANCH   1   8
BRANCH   7  22
HETATM   22  N4  UNL     1      25.621  -0.027  52.684  1.00  0.00    -0.340 N 
HETATM   23  H23 UNL     1      25.808  -0.433  51.729  1.00  0.00     0.167 HD
BRANCH  22  24
HETATM   24  C16 UNL     1      24.310  -0.016  53.197  1.00  0.00     0.035 A 
HETATM   25  C17 UNL     1      23.774  -0.851  54.137  1.00  0.00     0.032 A 
HETATM   26  C18 UNL     1      22.493  -0.809  54.608  1.00  0.00     0.046 A 
HETATM   27  C19 UNL     1      21.625   0.164  54.104  1.00  0.00     0.138 A 
HETATM   28  F1  UNL     1      20.363   0.229  54.547  1.00  0.00    -0.204 F 
HETATM   29  C20 UNL     1      22.112   1.031  53.155  1.00  0.00     0.074 A 
HETATM   30 CL1  UNL     1      21.004   2.235  52.544  1.00  0.00    -0.081 Cl
HETATM   31  C21 UNL     1      23.405   0.937  52.725  1.00  0.00     0.056 A 
ENDBRANCH  22  24
ENDBRANCH   7  22
TORSDOF 8
ENDMDL
