MODEL 1
REMARK VINA RESULT:      -6.8      0.000      0.000
REMARK  5 active torsions:
REMARK  status: ('A' for Active; 'I' for Inactive)
REMARK    1  A    between atoms: C2_3  and  C3_4 
REMARK    2  A    between atoms: C10_13  and  O1_14 
REMARK    3  A    between atoms: C12_16  and  O2_17 
REMARK    4  A    between atoms: C15_20  and  O3_21 
REMARK    5  A    between atoms: C15_20  and  O4_22 
ROOT
HETATM    1  C3  UNL     1      23.536   2.912  51.077  1.00  0.00     0.144 C 
HETATM    2  C4  UNL     1      22.679   2.044  50.282  1.00  0.00     0.042 C 
HETATM    3  N2  UNL     1      22.651   1.984  48.965  1.00  0.00    -0.304 NA
HETATM    4  C5  UNL     1      21.656   1.059  50.725  1.00  0.00     0.044 C 
HETATM    5  C6  UNL     1      21.583   0.279  51.824  1.00  0.00     0.090 C 
HETATM    6  N3  UNL     1      22.456   0.098  52.975  1.00  0.00    -0.365 N 
HETATM    7  C7  UNL     1      23.863   0.299  53.081  1.00  0.00     0.046 A 
HETATM    8  C8  UNL     1      24.280  -0.749  53.913  1.00  0.00     0.033 A 
HETATM    9  C9  UNL     1      25.629  -0.852  54.187  1.00  0.00     0.042 A 
HETATM   10  C10 UNL     1      26.507   0.074  53.635  1.00  0.00     0.102 A 
HETATM   11  C12 UNL     1      26.091   1.114  52.810  1.00  0.00     0.115 A 
HETATM   12  C14 UNL     1      24.717   1.228  52.525  1.00  0.00     0.067 A 
HETATM   13  C15 UNL     1      24.777   2.428  51.657  1.00  0.00     0.209 C 
HETATM   14  H6  UNL     1      23.312   2.629  48.487  1.00  0.00     0.186 HD
HETATM   15  H9  UNL     1      22.036  -0.233  53.866  1.00  0.00     0.165 HD
ENDROOT
BRANCH  13  16
HETATM   16  O3  UNL     1      25.225   3.457  52.539  1.00  0.00    -0.360 OA
HETATM   17  H18 UNL     1      25.032   4.308  52.063  1.00  0.00     0.213 HD
ENDBRANCH  13  16
BRANCH  13  18
HETATM   18  O4  UNL     1      25.804   2.215  50.772  1.00  0.00    -0.355 OA
HETATM   19  C16 UNL     1      25.966   3.275  49.912  1.00  0.00     0.206 C 
ENDBRANCH  13  18
BRANCH   1  20
HETATM   20  C2  UNL     1      22.712   3.564  52.194  1.00  0.00     0.262 C 
HETATM   21  N1  UNL     1      22.218   4.759  52.352  1.00  0.00    -0.427 NA
HETATM   22  C1  UNL     1      22.399   5.799  51.362  1.00  0.00     0.131 C 
ENDBRANCH   1  20
BRANCH  11  23
HETATM   23  O2  UNL     1      27.209   1.828  52.443  1.00  0.00    -0.352 OA
HETATM   24  C13 UNL     1      28.150   2.457  53.263  1.00  0.00     0.210 C 
ENDBRANCH  11  23
BRANCH  10  25
HETATM   25  O1  UNL     1      27.818  -0.196  54.024  1.00  0.00    -0.353 OA
HETATM   26  C11 UNL     1      28.642  -1.138  53.419  1.00  0.00     0.210 C 
ENDBRANCH  10  25
TORSDOF 5
ENDMDL
MODEL 2
REMARK VINA RESULT:      -6.5      3.268      4.326
REMARK  5 active torsions:
REMARK  status: ('A' for Active; 'I' for Inactive)
REMARK    1  A    between atoms: C2_3  and  C3_4 
REMARK    2  A    between atoms: C10_13  and  O1_14 
REMARK    3  A    between atoms: C12_16  and  O2_17 
REMARK    4  A    between atoms: C15_20  and  O3_21 
REMARK    5  A    between atoms: C15_20  and  O4_22 
ROOT
HETATM    1  C3  UNL     1      19.034   1.407  50.872  1.00  0.00     0.144 C 
HETATM    2  C4  UNL     1      18.103   0.304  50.681  1.00  0.00     0.042 C 
HETATM    3  N2  UNL     1      17.705  -0.179  49.520  1.00  0.00    -0.304 NA
HETATM    4  C5  UNL     1      17.384  -0.514  51.695  1.00  0.00     0.044 C 
HETATM    5  C6  UNL     1      17.730  -0.900  52.941  1.00  0.00     0.090 C 
HETATM    6  N3  UNL     1      18.913  -0.674  53.760  1.00  0.00    -0.365 N 
HETATM    7  C7  UNL     1      20.254  -0.409  53.355  1.00  0.00     0.046 A 
HETATM    8  C8  UNL     1      21.022  -1.119  54.288  1.00  0.00     0.033 A 
HETATM    9  C9  UNL     1      22.394  -1.089  54.143  1.00  0.00     0.042 A 
HETATM   10  C10 UNL     1      22.952  -0.366  53.095  1.00  0.00     0.102 A 
HETATM   11  C12 UNL     1      22.187   0.340  52.170  1.00  0.00     0.115 A 
HETATM   12  C14 UNL     1      20.786   0.315  52.310  1.00  0.00     0.067 A 
HETATM   13  C15 UNL     1      20.441   1.172  51.150  1.00  0.00     0.209 C 
HETATM   14  H6  UNL     1      18.114   0.296  48.690  1.00  0.00     0.186 HD
HETATM   15  H9  UNL     1      18.813  -0.713  54.794  1.00  0.00     0.165 HD
ENDROOT
BRANCH  13  16
HETATM   16  O3  UNL     1      20.989   2.444  51.500  1.00  0.00    -0.360 OA
HETATM   17  H18 UNL     1      21.636   2.654  50.775  1.00  0.00     0.213 HD
ENDBRANCH  13  16
BRANCH  13  18
HETATM   18  O4  UNL     1      21.189   0.715  50.095  1.00  0.00    -0.355 OA
HETATM   19  C16 UNL     1      20.921   1.411  48.939  1.00  0.00     0.206 C 
ENDBRANCH  13  18
BRANCH   1  20
HETATM   20  C2  UNL     1      18.490   2.360  51.943  1.00  0.00     0.262 C 
HETATM   21  N1  UNL     1      18.054   3.586  51.902  1.00  0.00    -0.427 NA
HETATM   22  C1  UNL     1      18.012   4.343  50.668  1.00  0.00     0.131 C 
ENDBRANCH   1  20
BRANCH  11  23
HETATM   23  O2  UNL     1      23.052   0.929  51.277  1.00  0.00    -0.352 OA
HETATM   24  C13 UNL     1      24.057   1.868  51.527  1.00  0.00     0.210 C 
ENDBRANCH  11  23
BRANCH  10  25
HETATM   25  O1  UNL     1      24.342  -0.457  53.115  1.00  0.00    -0.353 OA
HETATM   26  C11 UNL     1      25.104  -0.640  54.264  1.00  0.00     0.210 C 
ENDBRANCH  10  25
TORSDOF 5
ENDMDL
MODEL 3
REMARK VINA RESULT:      -6.2      2.254      4.073
REMARK  5 active torsions:
REMARK  status: ('A' for Active; 'I' for Inactive)
REMARK    1  A    between atoms: C2_3  and  C3_4 
REMARK    2  A    between atoms: C10_13  and  O1_14 
REMARK    3  A    between atoms: C12_16  and  O2_17 
REMARK    4  A    between atoms: C15_20  and  O3_21 
REMARK    5  A    between atoms: C15_20  and  O4_22 
ROOT
HETATM    1  C3  UNL     1      22.721   3.552  50.044  1.00  0.00     0.144 C 
HETATM    2  C4  UNL     1      23.321   4.879  50.052  1.00  0.00     0.042 C 
HETATM    3  N2  UNL     1      22.752   5.981  50.501  1.00  0.00    -0.304 NA
HETATM    4  C5  UNL     1      24.659   5.316  49.570  1.00  0.00     0.044 C 
HETATM    5  C6  UNL     1      25.847   4.678  49.529  1.00  0.00     0.090 C 
HETATM    6  N3  UNL     1      26.275   3.346  49.932  1.00  0.00    -0.365 N 
HETATM    7  C7  UNL     1      25.727   2.484  50.926  1.00  0.00     0.046 A 
HETATM    8  C8  UNL     1      26.857   1.886  51.499  1.00  0.00     0.033 A 
HETATM    9  C9  UNL     1      26.656   1.002  52.540  1.00  0.00     0.042 A 
HETATM   10  C10 UNL     1      25.360   0.743  52.972  1.00  0.00     0.102 A 
HETATM   11  C12 UNL     1      24.239   1.338  52.400  1.00  0.00     0.115 A 
HETATM   12  C14 UNL     1      24.433   2.240  51.338  1.00  0.00     0.067 A 
HETATM   13  C15 UNL     1      23.013   2.581  51.084  1.00  0.00     0.209 C 
HETATM   14  H6  UNL     1      21.790   5.851  50.873  1.00  0.00     0.186 HD
HETATM   15  H9  UNL     1      27.102   2.929  49.460  1.00  0.00     0.165 HD
ENDROOT
BRANCH  13  16
HETATM   16  O3  UNL     1      22.448   1.348  50.639  1.00  0.00    -0.360 OA
HETATM   17  H18 UNL     1      23.193   0.692  50.682  1.00  0.00     0.213 HD
ENDBRANCH  13  16
BRANCH  13  18
HETATM   18  O4  UNL     1      22.450   2.834  52.310  1.00  0.00    -0.355 OA
HETATM   19  C16 UNL     1      21.128   3.194  52.201  1.00  0.00     0.206 C 
ENDBRANCH  13  18
BRANCH   1  20
HETATM   20  C2  UNL     1      22.970   2.885  48.686  1.00  0.00     0.262 C 
HETATM   21  N1  UNL     1      22.176   2.467  47.742  1.00  0.00    -0.427 NA
HETATM   22  C1  UNL     1      20.737   2.584  47.846  1.00  0.00     0.131 C 
ENDBRANCH   1  20
BRANCH  11  23
HETATM   23  O2  UNL     1      23.132   0.865  53.067  1.00  0.00    -0.352 OA
HETATM   24  C13 UNL     1      22.683  -0.453  53.187  1.00  0.00     0.210 C 
ENDBRANCH  11  23
BRANCH  10  25
HETATM   25  O1  UNL     1      25.363  -0.168  54.026  1.00  0.00    -0.353 OA
HETATM   26  C11 UNL     1      26.205  -0.094  55.130  1.00  0.00     0.210 C 
ENDBRANCH  10  25
TORSDOF 5
ENDMDL
MODEL 4
REMARK VINA RESULT:      -6.2      3.198      5.431
REMARK  5 active torsions:
REMARK  status: ('A' for Active; 'I' for Inactive)
REMARK    1  A    between atoms: C2_3  and  C3_4 
REMARK    2  A    between atoms: C10_13  and  O1_14 
REMARK    3  A    between atoms: C12_16  and  O2_17 
REMARK    4  A    between atoms: C15_20  and  O3_21 
REMARK    5  A    between atoms: C15_20  and  O4_22 
ROOT
HETATM    1  C3  UNL     1      22.750   3.340  51.457  1.00  0.00     0.144 C 
HETATM    2  C4  UNL     1      23.645   3.774  52.520  1.00  0.00     0.042 C 
HETATM    3  N2  UNL     1      23.647   4.963  53.091  1.00  0.00    -0.304 NA
HETATM    4  C5  UNL     1      24.743   3.032  53.196  1.00  0.00     0.044 C 
HETATM    5  C6  UNL     1      24.895   1.721  53.478  1.00  0.00     0.090 C 
HETATM    6  N3  UNL     1      24.064   0.549  53.239  1.00  0.00    -0.365 N 
HETATM    7  C7  UNL     1      22.649   0.462  53.089  1.00  0.00     0.046 A 
HETATM    8  C8  UNL     1      22.324  -0.732  53.746  1.00  0.00     0.033 A 
HETATM    9  C9  UNL     1      20.992  -1.089  53.806  1.00  0.00     0.042 A 
HETATM   10  C10 UNL     1      20.040  -0.263  53.219  1.00  0.00     0.102 A 
HETATM   11  C12 UNL     1      20.365   0.922  52.565  1.00  0.00     0.115 A 
HETATM   12  C14 UNL     1      21.721   1.295  52.499  1.00  0.00     0.067 A 
HETATM   13  C15 UNL     1      21.559   2.558  51.742  1.00  0.00     0.209 C 
HETATM   14  H6  UNL     1      22.932   5.622  52.722  1.00  0.00     0.186 HD
HETATM   15  H9  UNL     1      24.526  -0.379  53.171  1.00  0.00     0.165 HD
ENDROOT
BRANCH  13  16
HETATM   16  O3  UNL     1      21.062   2.126  50.474  1.00  0.00    -0.360 OA
HETATM   17  H18 UNL     1      20.252   2.679  50.312  1.00  0.00     0.213 HD
ENDBRANCH  13  16
BRANCH  13  18
HETATM   18  O4  UNL     1      20.528   3.239  52.339  1.00  0.00    -0.355 OA
HETATM   19  C16 UNL     1      20.158   4.347  51.612  1.00  0.00     0.206 C 
ENDBRANCH  13  18
BRANCH   1  20
HETATM   20  C2  UNL     1      23.554   2.607  50.376  1.00  0.00     0.262 C 
HETATM   21  N1  UNL     1      23.777   2.851  49.117  1.00  0.00    -0.427 NA
HETATM   22  C1  UNL     1      23.223   4.011  48.452  1.00  0.00     0.131 C 
ENDBRANCH   1  20
BRANCH  11  23
HETATM   23  O2  UNL     1      19.193   1.484  52.114  1.00  0.00    -0.352 OA
HETATM   24  C13 UNL     1      18.267   0.959  51.208  1.00  0.00     0.210 C 
ENDBRANCH  11  23
BRANCH  10  25
HETATM   25  O1  UNL     1      18.760  -0.789  53.385  1.00  0.00    -0.353 OA
HETATM   26  C11 UNL     1      18.486  -2.122  53.667  1.00  0.00     0.210 C 
ENDBRANCH  10  25
TORSDOF 5
ENDMDL
MODEL 5
REMARK VINA RESULT:      -6.1     16.686     19.494
REMARK  5 active torsions:
REMARK  status: ('A' for Active; 'I' for Inactive)
REMARK    1  A    between atoms: C2_3  and  C3_4 
REMARK    2  A    between atoms: C10_13  and  O1_14 
REMARK    3  A    between atoms: C12_16  and  O2_17 
REMARK    4  A    between atoms: C15_20  and  O3_21 
REMARK    5  A    between atoms: C15_20  and  O4_22 
ROOT
HETATM    1  C3  UNL     1      43.230   9.919  50.116  1.00  0.00     0.144 C 
HETATM    2  C4  UNL     1      43.801  10.982  50.930  1.00  0.00     0.042 C 
HETATM    3  N2  UNL     1      43.627  12.277  50.743  1.00  0.00    -0.304 NA
HETATM    4  C5  UNL     1      44.696  10.891  52.116  1.00  0.00     0.044 C 
HETATM    5  C6  UNL     1      44.794   9.965  53.092  1.00  0.00     0.090 C 
HETATM    6  N3  UNL     1      44.081   8.725  53.363  1.00  0.00    -0.365 N 
HETATM    7  C7  UNL     1      42.759   8.345  52.989  1.00  0.00     0.046 A 
HETATM    8  C8  UNL     1      42.296   7.635  54.105  1.00  0.00     0.033 A 
HETATM    9  C9  UNL     1      41.004   7.151  54.066  1.00  0.00     0.042 A 
HETATM   10  C10 UNL     1      40.224   7.383  52.938  1.00  0.00     0.102 A 
HETATM   11  C12 UNL     1      40.687   8.087  51.830  1.00  0.00     0.115 A 
HETATM   12  C14 UNL     1      42.004   8.584  51.860  1.00  0.00     0.067 A 
HETATM   13  C15 UNL     1      42.023   9.220  50.521  1.00  0.00     0.209 C 
HETATM   14  H6  UNL     1      43.022  12.520  49.933  1.00  0.00     0.186 HD
HETATM   15  H9  UNL     1      44.563   7.987  53.913  1.00  0.00     0.165 HD
ENDROOT
BRANCH  13  16
HETATM   16  O3  UNL     1      41.890   8.116  49.625  1.00  0.00    -0.360 OA
HETATM   17  H18 UNL     1      41.550   7.368  50.184  1.00  0.00     0.213 HD
ENDBRANCH  13  16
BRANCH  13  18
HETATM   18  O4  UNL     1      40.856   9.934  50.415  1.00  0.00    -0.355 OA
HETATM   19  C16 UNL     1      40.799  10.649  49.241  1.00  0.00     0.206 C 
ENDBRANCH  13  18
BRANCH   1  20
HETATM   20  C2  UNL     1      44.307   8.871  49.811  1.00  0.00     0.262 C 
HETATM   21  N1  UNL     1      44.883   8.484  48.709  1.00  0.00    -0.427 NA
HETATM   22  C1  UNL     1      44.545   9.062  47.425  1.00  0.00     0.131 C 
ENDBRANCH   1  20
BRANCH  11  23
HETATM   23  O2  UNL     1      39.666   8.131  50.909  1.00  0.00    -0.352 OA
HETATM   24  C13 UNL     1      39.113   7.083  50.168  1.00  0.00     0.210 C 
ENDBRANCH  11  23
BRANCH  10  25
HETATM   25  O1  UNL     1      38.958   6.822  53.088  1.00  0.00    -0.353 OA
HETATM   26  C11 UNL     1      38.485   6.245  54.262  1.00  0.00     0.210 C 
ENDBRANCH  10  25
TORSDOF 5
ENDMDL
MODEL 6
REMARK VINA RESULT:      -5.9      2.931      4.682
REMARK  5 active torsions:
REMARK  status: ('A' for Active; 'I' for Inactive)
REMARK    1  A    between atoms: C2_3  and  C3_4 
REMARK    2  A    between atoms: C10_13  and  O1_14 
REMARK    3  A    between atoms: C12_16  and  O2_17 
REMARK    4  A    between atoms: C15_20  and  O3_21 
REMARK    5  A    between atoms: C15_20  and  O4_22 
ROOT
HETATM    1  C3  UNL     1      22.582   3.588  49.951  1.00  0.00     0.144 C 
HETATM    2  C4  UNL     1      23.650   4.532  50.243  1.00  0.00     0.042 C 
HETATM    3  N2  UNL     1      23.498   5.819  50.491  1.00  0.00    -0.304 NA
HETATM    4  C5  UNL     1      25.119   4.307  50.322  1.00  0.00     0.044 C 
HETATM    5  C6  UNL     1      25.839   3.232  50.705  1.00  0.00     0.090 C 
HETATM    6  N3  UNL     1      25.471   1.906  51.183  1.00  0.00    -0.365 N 
HETATM    7  C7  UNL     1      24.287   1.487  51.857  1.00  0.00     0.046 A 
HETATM    8  C8  UNL     1      24.757   0.551  52.788  1.00  0.00     0.033 A 
HETATM    9  C9  UNL     1      23.835  -0.027  53.637  1.00  0.00     0.042 A 
HETATM   10  C10 UNL     1      22.496   0.335  53.535  1.00  0.00     0.102 A 
HETATM   11  C12 UNL     1      22.032   1.264  52.608  1.00  0.00     0.115 A 
HETATM   12  C14 UNL     1      22.965   1.859  51.738  1.00  0.00     0.067 A 
HETATM   13  C15 UNL     1      22.030   2.725  50.982  1.00  0.00     0.209 C 
HETATM   14  H6  UNL     1      22.512   6.151  50.466  1.00  0.00     0.186 HD
HETATM   15  H9  UNL     1      26.143   1.126  51.041  1.00  0.00     0.165 HD
ENDROOT
BRANCH  13  16
HETATM   16  O3  UNL     1      21.187   1.794  50.303  1.00  0.00    -0.360 OA
HETATM   17  H18 UNL     1      21.369   1.937  49.336  1.00  0.00     0.213 HD
ENDBRANCH  13  16
BRANCH  13  18
HETATM   18  O4  UNL     1      21.235   3.344  51.913  1.00  0.00    -0.355 OA
HETATM   19  C16 UNL     1      20.335   4.204  51.328  1.00  0.00     0.206 C 
ENDBRANCH  13  18
BRANCH   1  20
HETATM   20  C2  UNL     1      22.985   2.709  48.760  1.00  0.00     0.262 C 
HETATM   21  N1  UNL     1      22.503   2.564  47.560  1.00  0.00    -0.427 NA
HETATM   22  C1  UNL     1      21.351   3.313  47.102  1.00  0.00     0.131 C 
ENDBRANCH   1  20
BRANCH  11  23
HETATM   23  O2  UNL     1      20.673   1.386  52.786  1.00  0.00    -0.352 OA
HETATM   24  C13 UNL     1      19.670   0.453  52.506  1.00  0.00     0.210 C 
ENDBRANCH  11  23
BRANCH  10  25
HETATM   25  O1  UNL     1      21.726  -0.351  54.472  1.00  0.00    -0.353 OA
HETATM   26  C11 UNL     1      21.697  -1.734  54.607  1.00  0.00     0.210 C 
ENDBRANCH  10  25
TORSDOF 5
ENDMDL
MODEL 7
REMARK VINA RESULT:      -5.6      5.491      8.109
REMARK  5 active torsions:
REMARK  status: ('A' for Active; 'I' for Inactive)
REMARK    1  A    between atoms: C2_3  and  C3_4 
REMARK    2  A    between atoms: C10_13  and  O1_14 
REMARK    3  A    between atoms: C12_16  and  O2_17 
REMARK    4  A    between atoms: C15_20  and  O3_21 
REMARK    5  A    between atoms: C15_20  and  O4_22 
ROOT
HETATM    1  C3  UNL     1      28.355   8.485  48.291  1.00  0.00     0.144 C 
HETATM    2  C4  UNL     1      29.674   8.093  48.765  1.00  0.00     0.042 C 
HETATM    3  N2  UNL     1      30.443   8.793  49.576  1.00  0.00    -0.304 NA
HETATM    4  C5  UNL     1      30.463   6.868  48.462  1.00  0.00     0.044 C 
HETATM    5  C6  UNL     1      30.081   5.602  48.194  1.00  0.00     0.090 C 
HETATM    6  N3  UNL     1      28.780   4.954  48.099  1.00  0.00    -0.365 N 
HETATM    7  C7  UNL     1      27.550   5.305  48.727  1.00  0.00     0.046 A 
HETATM    8  C8  UNL     1      26.982   4.064  49.047  1.00  0.00     0.033 A 
HETATM    9  C9  UNL     1      25.771   4.066  49.710  1.00  0.00     0.042 A 
HETATM   10  C10 UNL     1      25.172   5.279  50.029  1.00  0.00     0.102 A 
HETATM   11  C12 UNL     1      25.737   6.510  49.708  1.00  0.00     0.115 A 
HETATM   12  C14 UNL     1      26.971   6.519  49.032  1.00  0.00     0.067 A 
HETATM   13  C15 UNL     1      27.144   7.987  48.921  1.00  0.00     0.209 C 
HETATM   14  H6  UNL     1      30.038   9.700  49.883  1.00  0.00     0.186 HD
HETATM   15  H9  UNL     1      28.693   4.104  47.507  1.00  0.00     0.165 HD
ENDROOT
BRANCH  13  16
HETATM   16  O3  UNL     1      26.068   8.386  48.071  1.00  0.00    -0.360 OA
HETATM   17  H18 UNL     1      25.935   9.353  48.260  1.00  0.00     0.213 HD
ENDBRANCH  13  16
BRANCH  13  18
HETATM   18  O4  UNL     1      26.859   8.506  50.159  1.00  0.00    -0.355 OA
HETATM   19  C16 UNL     1      27.044   9.868  50.198  1.00  0.00     0.206 C 
ENDBRANCH  13  18
BRANCH   1  20
HETATM   20  C2  UNL     1      28.250   8.222  46.784  1.00  0.00     0.262 C 
HETATM   21  N1  UNL     1      28.098   9.004  45.754  1.00  0.00    -0.427 NA
HETATM   22  C1  UNL     1      27.987  10.441  45.893  1.00  0.00     0.131 C 
ENDBRANCH   1  20
BRANCH  11  23
HETATM   23  O2  UNL     1      24.889   7.490  50.170  1.00  0.00    -0.352 OA
HETATM   24  C13 UNL     1      23.565   7.743  49.801  1.00  0.00     0.210 C 
ENDBRANCH  11  23
BRANCH  10  25
HETATM   25  O1  UNL     1      23.964   5.074  50.694  1.00  0.00    -0.353 OA
HETATM   26  C11 UNL     1      23.202   3.916  50.605  1.00  0.00     0.210 C 
ENDBRANCH  10  25
TORSDOF 5
ENDMDL
MODEL 8
REMARK VINA RESULT:      -5.6      8.073     10.828
REMARK  5 active torsions:
REMARK  status: ('A' for Active; 'I' for Inactive)
REMARK    1  A    between atoms: C2_3  and  C3_4 
REMARK    2  A    between atoms: C10_13  and  O1_14 
REMARK    3  A    between atoms: C12_16  and  O2_17 
REMARK    4  A    between atoms: C15_20  and  O3_21 
REMARK    5  A    between atoms: C15_20  and  O4_22 
ROOT
HETATM    1  C3  UNL     1      16.462  -0.529  51.531  1.00  0.00     0.144 C 
HETATM    2  C4  UNL     1      16.902  -0.100  50.212  1.00  0.00     0.042 C 
HETATM    3  N2  UNL     1      16.645  -0.716  49.074  1.00  0.00    -0.304 NA
HETATM    4  C5  UNL     1      17.724   1.078  49.824  1.00  0.00     0.044 C 
HETATM    5  C6  UNL     1      17.829   2.312  50.361  1.00  0.00     0.090 C 
HETATM    6  N3  UNL     1      17.192   2.958  51.500  1.00  0.00    -0.365 N 
HETATM    7  C7  UNL     1      15.928   2.688  52.100  1.00  0.00     0.046 A 
HETATM    8  C8  UNL     1      15.449   3.960  52.438  1.00  0.00     0.033 A 
HETATM    9  C9  UNL     1      14.200   4.041  53.021  1.00  0.00     0.042 A 
HETATM   10  C10 UNL     1      13.478   2.874  53.248  1.00  0.00     0.102 A 
HETATM   11  C12 UNL     1      13.957   1.611  52.913  1.00  0.00     0.115 A 
HETATM   12  C14 UNL     1      15.229   1.518  52.318  1.00  0.00     0.067 A 
HETATM   13  C15 UNL     1      15.286   0.045  52.162  1.00  0.00     0.209 C 
HETATM   14  H6  UNL     1      16.076  -1.581  49.168  1.00  0.00     0.186 HD
HETATM   15  H9  UNL     1      17.692   3.740  51.968  1.00  0.00     0.165 HD
ENDROOT
BRANCH  13  16
HETATM   16  O3  UNL     1      15.291  -0.433  53.508  1.00  0.00    -0.360 OA
HETATM   17  H18 UNL     1      15.383  -1.419  53.431  1.00  0.00     0.213 HD
ENDBRANCH  13  16
BRANCH  13  18
HETATM   18  O4  UNL     1      14.079  -0.335  51.631  1.00  0.00    -0.355 OA
HETATM   19  C16 UNL     1      14.019  -1.692  51.418  1.00  0.00     0.206 C 
ENDBRANCH  13  18
BRANCH   1  20
HETATM   20  C2  UNL     1      17.630  -0.427  52.520  1.00  0.00     0.262 C 
HETATM   21  N1  UNL     1      18.177  -1.279  53.338  1.00  0.00    -0.427 NA
HETATM   22  C1  UNL     1      17.700  -2.641  53.458  1.00  0.00     0.131 C 
ENDBRANCH   1  20
BRANCH  11  23
HETATM   23  O2  UNL     1      12.995   0.694  53.268  1.00  0.00    -0.352 OA
HETATM   24  C13 UNL     1      12.479   0.419  54.537  1.00  0.00     0.210 C 
ENDBRANCH  11  23
BRANCH  10  25
HETATM   25  O1  UNL     1      12.249   3.161  53.839  1.00  0.00    -0.353 OA
HETATM   26  C11 UNL     1      11.994   4.277  54.627  1.00  0.00     0.210 C 
ENDBRANCH  10  25
TORSDOF 5
ENDMDL
MODEL 9
REMARK VINA RESULT:      -5.6      7.186      9.830
REMARK  5 active torsions:
REMARK  status: ('A' for Active; 'I' for Inactive)
REMARK    1  A    between atoms: C2_3  and  C3_4 
REMARK    2  A    between atoms: C10_13  and  O1_14 
REMARK    3  A    between atoms: C12_16  and  O2_17 
REMARK    4  A    between atoms: C15_20  and  O3_21 
REMARK    5  A    between atoms: C15_20  and  O4_22 
ROOT
HETATM    1  C3  UNL     1      31.052   8.416  47.499  1.00  0.00     0.144 C 
HETATM    2  C4  UNL     1      32.046   7.593  48.173  1.00  0.00     0.042 C 
HETATM    3  N2  UNL     1      32.975   8.029  49.002  1.00  0.00    -0.304 NA
HETATM    4  C5  UNL     1      32.270   6.124  48.096  1.00  0.00     0.044 C 
HETATM    5  C6  UNL     1      31.414   5.098  47.908  1.00  0.00     0.090 C 
HETATM    6  N3  UNL     1      29.972   5.028  47.713  1.00  0.00    -0.365 N 
HETATM    7  C7  UNL     1      28.959   5.934  48.142  1.00  0.00     0.046 A 
HETATM    8  C8  UNL     1      27.902   5.091  48.509  1.00  0.00     0.033 A 
HETATM    9  C9  UNL     1      26.757   5.678  49.009  1.00  0.00     0.042 A 
HETATM   10  C10 UNL     1      26.699   7.063  49.126  1.00  0.00     0.102 A 
HETATM   11  C12 UNL     1      27.750   7.899  48.760  1.00  0.00     0.115 A 
HETATM   12  C14 UNL     1      28.922   7.309  48.249  1.00  0.00     0.067 A 
HETATM   13  C15 UNL     1      29.701   8.548  48.016  1.00  0.00     0.209 C 
HETATM   14  H6  UNL     1      32.966   9.056  49.163  1.00  0.00     0.186 HD
HETATM   15  H9  UNL     1      29.582   4.212  47.202  1.00  0.00     0.165 HD
ENDROOT
BRANCH  13  16
HETATM   16  O3  UNL     1      28.958   9.224  47.001  1.00  0.00    -0.360 OA
HETATM   17  H18 UNL     1      28.109   9.497  47.440  1.00  0.00     0.213 HD
ENDBRANCH  13  16
BRANCH  13  18
HETATM   18  O4  UNL     1      29.568   9.308  49.150  1.00  0.00    -0.355 OA
HETATM   19  C16 UNL     1      30.286  10.478  49.068  1.00  0.00     0.206 C 
ENDBRANCH  13  18
BRANCH   1  20
HETATM   20  C2  UNL     1      30.960   8.005  46.024  1.00  0.00     0.262 C 
HETATM   21  N1  UNL     1      31.222   8.627  44.911  1.00  0.00    -0.427 NA
HETATM   22  C1  UNL     1      31.707   9.991  44.891  1.00  0.00     0.131 C 
ENDBRANCH   1  20
BRANCH  11  23
HETATM   23  O2  UNL     1      27.359   9.193  49.011  1.00  0.00    -0.352 OA
HETATM   24  C13 UNL     1      26.279   9.899  48.471  1.00  0.00     0.210 C 
ENDBRANCH  11  23
BRANCH  10  25
HETATM   25  O1  UNL     1      25.471   7.463  49.649  1.00  0.00    -0.353 OA
HETATM   26  C11 UNL     1      24.792   6.799  50.664  1.00  0.00     0.210 C 
ENDBRANCH  10  25
TORSDOF 5
ENDMDL
