MODEL 1
REMARK VINA RESULT:     -10.1      0.000      0.000
REMARK  4 active torsions:
REMARK  status: ('A' for Active; 'I' for Inactive)
REMARK    1  A    between atoms: C5_5  and  N1_6 
REMARK    2  A    between atoms: N1_6  and  C6_7 
REMARK    3  A    between atoms: C22_27  and  S1_28 
REMARK    4  A    between atoms: S1_28  and  N6_29 
ROOT
HETATM    1  C6  UNL     1      23.445   4.909  51.483  1.00  0.00     0.727 A 
HETATM    2  N2  UNL     1      22.199   5.247  51.145  1.00  0.00    -0.074 NA
HETATM    3  C7  UNL     1      21.227   4.320  51.194  1.00  0.00     0.149 A 
HETATM    4  C8  UNL     1      21.640   3.084  51.598  1.00  0.00     0.007 A 
HETATM    5  C9  UNL     1      22.881   2.635  51.964  1.00  0.00     0.065 A 
HETATM    6  N3  UNL     1      23.734   3.671  51.864  1.00  0.00    -0.067 NA
HETATM    7  C10 UNL     1      23.660   1.496  52.417  1.00  0.00     0.065 C 
HETATM    8  C11 UNL     1      22.956   0.194  52.613  1.00  0.00     0.033 C 
HETATM    9  C12 UNL     1      21.887   0.162  53.595  1.00  0.00    -0.024 C 
HETATM   10  C13 UNL     1      20.634  -0.018  53.987  1.00  0.00     0.030 C 
HETATM   11  C14 UNL     1      19.431  -0.394  53.280  1.00  0.00     0.089 A 
HETATM   12  N4  UNL     1      18.399  -1.192  53.594  1.00  0.00    -0.172 NA
HETATM   13  N5  UNL     1      17.518  -1.225  52.613  1.00  0.00    -0.277 N 
HETATM   14  C15 UNL     1      16.258  -1.964  52.538  1.00  0.00     0.179 C 
HETATM   15  C16 UNL     1      17.896  -0.458  51.577  1.00  0.00     0.039 A 
HETATM   16  C17 UNL     1      17.383  -0.085  50.238  1.00  0.00     0.071 C 
HETATM   17  C18 UNL     1      19.082   0.037  52.028  1.00  0.00     0.018 A 
HETATM   18  C19 UNL     1      20.070   0.915  51.468  1.00  0.00     0.017 C 
HETATM   19  C20 UNL     1      20.745   1.978  51.691  1.00  0.00     0.016 C 
ENDROOT
BRANCH   1  20
HETATM   20  N1  UNL     1      24.289   6.063  51.347  1.00  0.00    -0.188 N 
HETATM   21  H6  UNL     1      23.948   6.693  52.102  1.00  0.00     0.184 HD
BRANCH  20  22
HETATM   22  C5  UNL     1      25.332   6.340  50.443  1.00  0.00     0.050 A 
HETATM   23  C4  UNL     1      25.749   5.277  49.673  1.00  0.00     0.030 A 
HETATM   24  C3  UNL     1      26.759   5.479  48.766  1.00  0.00     0.010 A 
HETATM   25  C2  UNL     1      27.330   6.732  48.644  1.00  0.00    -0.039 A 
HETATM   26  C1  UNL     1      28.425   6.926  47.651  1.00  0.00     0.050 C 
HETATM   27  C22 UNL     1      26.881   7.769  49.436  1.00  0.00     0.082 A 
HETATM   28  C21 UNL     1      25.864   7.600  50.361  1.00  0.00     0.055 A 
BRANCH  27  29
HETATM   29  S1  UNL     1      27.668   9.326  49.209  1.00  0.00     0.239 S 
HETATM   30  O1  UNL     1      27.710   9.553  47.706  1.00  0.00    -0.206 OA
HETATM   31  O2  UNL     1      26.784  10.393  49.813  1.00  0.00    -0.206 OA
BRANCH  29  32
HETATM   32  N6  UNL     1      29.230   9.382  49.895  1.00  0.00    -0.225 NA
HETATM   33  H23 UNL     1      29.198   9.278  50.943  1.00  0.00     0.136 HD
HETATM   34  H24 UNL     1      29.667  10.325  49.681  1.00  0.00     0.136 HD
ENDBRANCH  29  32
ENDBRANCH  27  29
ENDBRANCH  20  22
ENDBRANCH   1  20
TORSDOF 4
ENDMDL
MODEL 2
REMARK VINA RESULT:     -10.0      5.796     10.330
REMARK  4 active torsions:
REMARK  status: ('A' for Active; 'I' for Inactive)
REMARK    1  A    between atoms: C5_5  and  N1_6 
REMARK    2  A    between atoms: N1_6  and  C6_7 
REMARK    3  A    between atoms: C22_27  and  S1_28 
REMARK    4  A    between atoms: S1_28  and  N6_29 
ROOT
HETATM    1  C6  UNL     1      20.181  -0.639  53.649  1.00  0.00     0.727 A 
HETATM    2  N2  UNL     1      20.843  -1.634  54.244  1.00  0.00    -0.074 NA
HETATM    3  C7  UNL     1      22.186  -1.662  54.185  1.00  0.00     0.149 A 
HETATM    4  C8  UNL     1      22.745  -0.627  53.494  1.00  0.00     0.007 A 
HETATM    5  C9  UNL     1      22.164   0.433  52.852  1.00  0.00     0.065 A 
HETATM    6  N3  UNL     1      20.831   0.318  53.002  1.00  0.00    -0.067 NA
HETATM    7  C10 UNL     1      22.392   1.637  52.072  1.00  0.00     0.065 C 
HETATM    8  C11 UNL     1      23.802   2.010  51.750  1.00  0.00     0.033 C 
HETATM    9  C12 UNL     1      24.688   2.275  52.869  1.00  0.00    -0.024 C 
HETATM   10  C13 UNL     1      25.762   2.061  53.615  1.00  0.00     0.030 C 
HETATM   11  C14 UNL     1      26.844   1.106  53.523  1.00  0.00     0.089 A 
HETATM   12  N4  UNL     1      28.165   1.200  53.740  1.00  0.00    -0.172 NA
HETATM   13  N5  UNL     1      28.757   0.041  53.527  1.00  0.00    -0.277 N 
HETATM   14  C15 UNL     1      30.175  -0.298  53.643  1.00  0.00     0.179 C 
HETATM   15  C16 UNL     1      27.880  -0.905  53.152  1.00  0.00     0.039 A 
HETATM   16  C17 UNL     1      27.900  -2.339  52.780  1.00  0.00     0.071 C 
HETATM   17  C18 UNL     1      26.711  -0.207  53.162  1.00  0.00     0.018 A 
HETATM   18  C19 UNL     1      25.349  -0.546  52.861  1.00  0.00     0.017 C 
HETATM   19  C20 UNL     1      24.155  -0.508  53.316  1.00  0.00     0.016 C 
ENDROOT
BRANCH   1  20
HETATM   20  N1  UNL     1      18.773  -0.838  53.852  1.00  0.00    -0.188 N 
HETATM   21  H6  UNL     1      18.674  -0.777  54.887  1.00  0.00     0.184 HD
BRANCH  20  22
HETATM   22  C5  UNL     1      17.732  -1.063  52.931  1.00  0.00     0.050 A 
HETATM   23  C4  UNL     1      16.914  -2.135  53.208  1.00  0.00     0.030 A 
HETATM   24  C3  UNL     1      15.876  -2.408  52.355  1.00  0.00     0.010 A 
HETATM   25  C2  UNL     1      15.674  -1.609  51.245  1.00  0.00    -0.039 A 
HETATM   26  C1  UNL     1      14.537  -1.926  50.332  1.00  0.00     0.050 C 
HETATM   27  C22 UNL     1      16.517  -0.544  51.004  1.00  0.00     0.082 A 
HETATM   28  C21 UNL     1      17.575  -0.241  51.847  1.00  0.00     0.055 A 
BRANCH  27  29
HETATM   29  S1  UNL     1      16.181   0.415  49.569  1.00  0.00     0.239 S 
HETATM   30  O1  UNL     1      14.869   1.132  49.848  1.00  0.00    -0.206 OA
HETATM   31  O2  UNL     1      17.262   1.464  49.439  1.00  0.00    -0.206 OA
BRANCH  29  32
HETATM   32  N6  UNL     1      16.088  -0.530  48.151  1.00  0.00    -0.225 NA
HETATM   33  H23 UNL     1      16.322  -1.539  48.340  1.00  0.00     0.136 HD
HETATM   34  H24 UNL     1      16.794  -0.166  47.447  1.00  0.00     0.136 HD
ENDBRANCH  29  32
ENDBRANCH  27  29
ENDBRANCH  20  22
ENDBRANCH   1  20
TORSDOF 4
ENDMDL
MODEL 3
REMARK VINA RESULT:      -9.9      7.136     11.215
REMARK  4 active torsions:
REMARK  status: ('A' for Active; 'I' for Inactive)
REMARK    1  A    between atoms: C5_5  and  N1_6 
REMARK    2  A    between atoms: N1_6  and  C6_7 
REMARK    3  A    between atoms: C22_27  and  S1_28 
REMARK    4  A    between atoms: S1_28  and  N6_29 
ROOT
HETATM    1  C6  UNL     1      20.159  -0.629  53.647  1.00  0.00     0.727 A 
HETATM    2  N2  UNL     1      20.816  -1.630  54.237  1.00  0.00    -0.074 NA
HETATM    3  C7  UNL     1      22.158  -1.665  54.179  1.00  0.00     0.149 A 
HETATM    4  C8  UNL     1      22.724  -0.631  53.492  1.00  0.00     0.007 A 
HETATM    5  C9  UNL     1      22.149   0.436  52.855  1.00  0.00     0.065 A 
HETATM    6  N3  UNL     1      20.815   0.328  53.004  1.00  0.00    -0.067 NA
HETATM    7  C10 UNL     1      22.384   1.642  52.081  1.00  0.00     0.065 C 
HETATM    8  C11 UNL     1      23.797   2.008  51.761  1.00  0.00     0.033 C 
HETATM    9  C12 UNL     1      24.683   2.263  52.881  1.00  0.00    -0.024 C 
HETATM   10  C13 UNL     1      25.756   2.040  53.627  1.00  0.00     0.030 C 
HETATM   11  C14 UNL     1      26.832   1.080  53.532  1.00  0.00     0.089 A 
HETATM   12  N4  UNL     1      28.154   1.165  53.750  1.00  0.00    -0.172 NA
HETATM   13  N5  UNL     1      28.739   0.004  53.531  1.00  0.00    -0.277 N 
HETATM   14  C15 UNL     1      30.155  -0.344  53.647  1.00  0.00     0.179 C 
HETATM   15  C16 UNL     1      27.857  -0.936  53.152  1.00  0.00     0.039 A 
HETATM   16  C17 UNL     1      27.870  -2.368  52.774  1.00  0.00     0.071 C 
HETATM   17  C18 UNL     1      26.692  -0.232  53.165  1.00  0.00     0.018 A 
HETATM   18  C19 UNL     1      25.328  -0.561  52.861  1.00  0.00     0.017 C 
HETATM   19  C20 UNL     1      24.135  -0.518  53.316  1.00  0.00     0.016 C 
ENDROOT
BRANCH   1  20
HETATM   20  N1  UNL     1      18.750  -0.820  53.848  1.00  0.00    -0.188 N 
HETATM   21  H6  UNL     1      18.647  -0.734  54.880  1.00  0.00     0.184 HD
BRANCH  20  22
HETATM   22  C5  UNL     1      17.713  -1.066  52.928  1.00  0.00     0.050 A 
HETATM   23  C4  UNL     1      17.647  -0.199  51.860  1.00  0.00     0.030 A 
HETATM   24  C3  UNL     1      16.664  -0.386  50.922  1.00  0.00     0.010 A 
HETATM   25  C2  UNL     1      15.769  -1.429  51.066  1.00  0.00    -0.039 A 
HETATM   26  C1  UNL     1      14.709  -1.611  50.032  1.00  0.00     0.050 C 
HETATM   27  C22 UNL     1      15.871  -2.274  52.151  1.00  0.00     0.082 A 
HETATM   28  C21 UNL     1      16.852  -2.115  53.117  1.00  0.00     0.055 A 
BRANCH  27  29
HETATM   29  S1  UNL     1      14.688  -3.573  52.249  1.00  0.00     0.239 S 
HETATM   30  O1  UNL     1      15.009  -4.329  53.529  1.00  0.00    -0.206 OA
HETATM   31  O2  UNL     1      13.319  -2.953  52.408  1.00  0.00    -0.206 OA
BRANCH  29  32
HETATM   32  N6  UNL     1      14.726  -4.603  50.888  1.00  0.00    -0.225 NA
HETATM   33  H23 UNL     1      15.713  -4.829  50.599  1.00  0.00     0.136 HD
HETATM   34  H24 UNL     1      14.259  -4.112  50.071  1.00  0.00     0.136 HD
ENDBRANCH  29  32
ENDBRANCH  27  29
ENDBRANCH  20  22
ENDBRANCH   1  20
TORSDOF 4
ENDMDL
MODEL 4
REMARK VINA RESULT:      -9.8      3.378      4.873
REMARK  4 active torsions:
REMARK  status: ('A' for Active; 'I' for Inactive)
REMARK    1  A    between atoms: C5_5  and  N1_6 
REMARK    2  A    between atoms: N1_6  and  C6_7 
REMARK    3  A    between atoms: C22_27  and  S1_28 
REMARK    4  A    between atoms: S1_28  and  N6_29 
ROOT
HETATM    1  C6  UNL     1      26.427   5.299  49.142  1.00  0.00     0.727 A 
HETATM    2  N2  UNL     1      26.905   4.053  49.096  1.00  0.00    -0.074 NA
HETATM    3  C7  UNL     1      26.342   3.101  49.860  1.00  0.00     0.149 A 
HETATM    4  C8  UNL     1      25.302   3.532  50.630  1.00  0.00     0.007 A 
HETATM    5  C9  UNL     1      24.738   4.773  50.752  1.00  0.00     0.065 A 
HETATM    6  N3  UNL     1      25.406   5.605  49.931  1.00  0.00    -0.067 NA
HETATM    7  C10 UNL     1      23.711   5.567  51.404  1.00  0.00     0.065 C 
HETATM    8  C11 UNL     1      22.811   4.887  52.383  1.00  0.00     0.033 C 
HETATM    9  C12 UNL     1      21.994   3.798  51.883  1.00  0.00    -0.024 C 
HETATM   10  C13 UNL     1      21.576   2.540  51.845  1.00  0.00     0.030 C 
HETATM   11  C14 UNL     1      21.950   1.362  52.595  1.00  0.00     0.089 A 
HETATM   12  N4  UNL     1      21.243   0.340  53.103  1.00  0.00    -0.172 NA
HETATM   13  N5  UNL     1      22.036  -0.517  53.717  1.00  0.00    -0.277 N 
HETATM   14  C15 UNL     1      21.683  -1.759  54.405  1.00  0.00     0.179 C 
HETATM   15  C16 UNL     1      23.321  -0.132  53.666  1.00  0.00     0.039 A 
HETATM   16  C17 UNL     1      24.637  -0.622  54.140  1.00  0.00     0.071 C 
HETATM   17  C18 UNL     1      23.226   1.032  52.966  1.00  0.00     0.018 A 
HETATM   18  C19 UNL     1      24.181   2.013  52.534  1.00  0.00     0.017 C 
HETATM   19  C20 UNL     1      24.600   2.659  51.514  1.00  0.00     0.016 C 
ENDROOT
BRANCH   1  20
HETATM   20  N1  UNL     1      27.192   6.119  48.246  1.00  0.00    -0.188 N 
HETATM   21  H6  UNL     1      26.524   6.306  47.470  1.00  0.00     0.184 HD
BRANCH  20  22
HETATM   22  C5  UNL     1      28.516   6.591  48.333  1.00  0.00     0.050 A 
HETATM   23  C4  UNL     1      28.653   7.921  48.662  1.00  0.00     0.030 A 
HETATM   24  C3  UNL     1      29.917   8.444  48.770  1.00  0.00     0.010 A 
HETATM   25  C2  UNL     1      31.015   7.635  48.548  1.00  0.00    -0.039 A 
HETATM   26  C1  UNL     1      32.378   8.228  48.671  1.00  0.00     0.050 C 
HETATM   27  C22 UNL     1      30.832   6.308  48.219  1.00  0.00     0.082 A 
HETATM   28  C21 UNL     1      29.570   5.747  48.103  1.00  0.00     0.055 A 
BRANCH  27  29
HETATM   29  S1  UNL     1      32.288   5.356  47.956  1.00  0.00     0.239 S 
HETATM   30  O1  UNL     1      31.813   3.932  47.712  1.00  0.00    -0.206 OA
HETATM   31  O2  UNL     1      32.949   5.847  46.688  1.00  0.00    -0.206 OA
BRANCH  29  32
HETATM   32  N6  UNL     1      33.375   5.437  49.269  1.00  0.00    -0.225 NA
HETATM   33  H23 UNL     1      33.417   6.406  49.681  1.00  0.00     0.136 HD
HETATM   34  H24 UNL     1      34.349   5.195  48.926  1.00  0.00     0.136 HD
ENDBRANCH  29  32
ENDBRANCH  27  29
ENDBRANCH  20  22
ENDBRANCH   1  20
TORSDOF 4
ENDMDL
MODEL 5
REMARK VINA RESULT:      -9.8      4.781     10.698
REMARK  4 active torsions:
REMARK  status: ('A' for Active; 'I' for Inactive)
REMARK    1  A    between atoms: C5_5  and  N1_6 
REMARK    2  A    between atoms: N1_6  and  C6_7 
REMARK    3  A    between atoms: C22_27  and  S1_28 
REMARK    4  A    between atoms: S1_28  and  N6_29 
ROOT
HETATM    1  C6  UNL     1      25.178   3.830  50.036  1.00  0.00     0.727 A 
HETATM    2  N2  UNL     1      26.294   3.433  49.419  1.00  0.00    -0.074 NA
HETATM    3  C7  UNL     1      27.114   4.352  48.881  1.00  0.00     0.149 A 
HETATM    4  C8  UNL     1      26.696   5.642  49.029  1.00  0.00     0.007 A 
HETATM    5  C9  UNL     1      25.581   6.154  49.637  1.00  0.00     0.065 A 
HETATM    6  N3  UNL     1      24.871   5.118  50.121  1.00  0.00    -0.067 NA
HETATM    7  C10 UNL     1      24.844   7.358  49.977  1.00  0.00     0.065 C 
HETATM    8  C11 UNL     1      25.410   8.673  49.552  1.00  0.00     0.033 C 
HETATM    9  C12 UNL     1      26.714   9.032  50.078  1.00  0.00    -0.024 C 
HETATM   10  C13 UNL     1      27.996   9.353  49.970  1.00  0.00     0.030 C 
HETATM   11  C14 UNL     1      28.870   9.521  48.832  1.00  0.00     0.089 A 
HETATM   12  N4  UNL     1      29.844  10.400  48.550  1.00  0.00    -0.172 NA
HETATM   13  N5  UNL     1      30.373  10.149  47.368  1.00  0.00    -0.277 N 
HETATM   14  C15 UNL     1      31.451  10.858  46.679  1.00  0.00     0.179 C 
HETATM   15  C16 UNL     1      29.794   9.091  46.777  1.00  0.00     0.039 A 
HETATM   16  C17 UNL     1      29.916   8.336  45.509  1.00  0.00     0.071 C 
HETATM   17  C18 UNL     1      28.872   8.733  47.712  1.00  0.00     0.018 A 
HETATM   18  C19 UNL     1      27.875   7.701  47.781  1.00  0.00     0.017 C 
HETATM   19  C20 UNL     1      27.435   6.744  48.505  1.00  0.00     0.016 C 
ENDROOT
BRANCH   1  20
HETATM   20  N1  UNL     1      24.481   2.671  50.517  1.00  0.00    -0.188 N 
HETATM   21  H6  UNL     1      23.679   2.589  49.857  1.00  0.00     0.184 HD
BRANCH  20  22
HETATM   22  C5  UNL     1      24.755   1.815  51.600  1.00  0.00     0.050 A 
HETATM   23  C4  UNL     1      23.656   1.234  52.192  1.00  0.00     0.030 A 
HETATM   24  C3  UNL     1      23.852   0.383  53.250  1.00  0.00     0.010 A 
HETATM   25  C2  UNL     1      25.134   0.129  53.697  1.00  0.00    -0.039 A 
HETATM   26  C1  UNL     1      25.321  -0.800  54.849  1.00  0.00     0.050 C 
HETATM   27  C22 UNL     1      26.208   0.733  53.075  1.00  0.00     0.082 A 
HETATM   28  C21 UNL     1      26.046   1.597  52.004  1.00  0.00     0.055 A 
BRANCH  27  29
HETATM   29  S1  UNL     1      27.802   0.350  53.713  1.00  0.00     0.239 S 
HETATM   30  O1  UNL     1      28.772   1.264  52.980  1.00  0.00    -0.206 OA
HETATM   31  O2  UNL     1      27.828   0.727  55.177  1.00  0.00    -0.206 OA
BRANCH  29  32
HETATM   32  N6  UNL     1      28.216  -1.294  53.510  1.00  0.00    -0.225 NA
HETATM   33  H23 UNL     1      27.945  -1.648  52.556  1.00  0.00     0.136 HD
HETATM   34  H24 UNL     1      27.689  -1.873  54.226  1.00  0.00     0.136 HD
ENDBRANCH  29  32
ENDBRANCH  27  29
ENDBRANCH  20  22
ENDBRANCH   1  20
TORSDOF 4
ENDMDL
MODEL 6
REMARK VINA RESULT:      -9.6      2.634      4.257
REMARK  4 active torsions:
REMARK  status: ('A' for Active; 'I' for Inactive)
REMARK    1  A    between atoms: C5_5  and  N1_6 
REMARK    2  A    between atoms: N1_6  and  C6_7 
REMARK    3  A    between atoms: C22_27  and  S1_28 
REMARK    4  A    between atoms: S1_28  and  N6_29 
ROOT
HETATM    1  C6  UNL     1      26.500   5.084  49.133  1.00  0.00     0.727 A 
HETATM    2  N2  UNL     1      26.978   3.838  49.125  1.00  0.00    -0.074 NA
HETATM    3  C7  UNL     1      26.415   2.910  49.918  1.00  0.00     0.149 A 
HETATM    4  C8  UNL     1      25.375   3.365  50.675  1.00  0.00     0.007 A 
HETATM    5  C9  UNL     1      24.812   4.610  50.758  1.00  0.00     0.065 A 
HETATM    6  N3  UNL     1      25.480   5.416  49.913  1.00  0.00    -0.067 NA
HETATM    7  C10 UNL     1      23.785   5.424  51.385  1.00  0.00     0.065 C 
HETATM    8  C11 UNL     1      22.885   4.775  52.385  1.00  0.00     0.033 C 
HETATM    9  C12 UNL     1      22.067   3.671  51.919  1.00  0.00    -0.024 C 
HETATM   10  C13 UNL     1      21.649   2.413  51.920  1.00  0.00     0.030 C 
HETATM   11  C14 UNL     1      22.022   1.259  52.706  1.00  0.00     0.089 A 
HETATM   12  N4  UNL     1      21.314   0.253  53.245  1.00  0.00    -0.172 NA
HETATM   13  N5  UNL     1      22.106  -0.585  53.885  1.00  0.00    -0.277 N 
HETATM   14  C15 UNL     1      21.753  -1.805  54.611  1.00  0.00     0.179 C 
HETATM   15  C16 UNL     1      23.392  -0.202  53.823  1.00  0.00     0.039 A 
HETATM   16  C17 UNL     1      24.707  -0.679  54.311  1.00  0.00     0.071 C 
HETATM   17  C18 UNL     1      23.297   0.939  53.087  1.00  0.00     0.018 A 
HETATM   18  C19 UNL     1      24.253   1.906  52.624  1.00  0.00     0.017 C 
HETATM   19  C20 UNL     1      24.673   2.521  51.585  1.00  0.00     0.016 C 
ENDROOT
BRANCH   1  20
HETATM   20  N1  UNL     1      27.266   5.877  48.212  1.00  0.00    -0.188 N 
HETATM   21  H6  UNL     1      26.656   5.912  47.369  1.00  0.00     0.184 HD
BRANCH  20  22
HETATM   22  C5  UNL     1      28.530   6.483  48.349  1.00  0.00     0.050 A 
HETATM   23  C4  UNL     1      29.611   5.648  48.180  1.00  0.00     0.030 A 
HETATM   24  C3  UNL     1      30.873   6.176  48.293  1.00  0.00     0.010 A 
HETATM   25  C2  UNL     1      31.031   7.520  48.571  1.00  0.00    -0.039 A 
HETATM   26  C1  UNL     1      32.412   8.070  48.689  1.00  0.00     0.050 C 
HETATM   27  C22 UNL     1      29.919   8.321  48.733  1.00  0.00     0.082 A 
HETATM   28  C21 UNL     1      28.631   7.821  48.625  1.00  0.00     0.055 A 
BRANCH  27  29
HETATM   29  S1  UNL     1      30.219  10.019  49.084  1.00  0.00     0.239 S 
HETATM   30  O1  UNL     1      31.063  10.537  47.929  1.00  0.00    -0.206 OA
HETATM   31  O2  UNL     1      28.895  10.748  49.052  1.00  0.00    -0.206 OA
BRANCH  29  32
HETATM   32  N6  UNL     1      30.998  10.255  50.584  1.00  0.00    -0.225 NA
HETATM   33  H23 UNL     1      32.030  10.432  50.463  1.00  0.00     0.136 HD
HETATM   34  H24 UNL     1      30.891   9.377  51.170  1.00  0.00     0.136 HD
ENDBRANCH  29  32
ENDBRANCH  27  29
ENDBRANCH  20  22
ENDBRANCH   1  20
TORSDOF 4
ENDMDL
MODEL 7
REMARK VINA RESULT:      -9.3      4.467     10.549
REMARK  4 active torsions:
REMARK  status: ('A' for Active; 'I' for Inactive)
REMARK    1  A    between atoms: C5_5  and  N1_6 
REMARK    2  A    between atoms: N1_6  and  C6_7 
REMARK    3  A    between atoms: C22_27  and  S1_28 
REMARK    4  A    between atoms: S1_28  and  N6_29 
ROOT
HETATM    1  C6  UNL     1      24.264   3.051  50.195  1.00  0.00     0.727 A 
HETATM    2  N2  UNL     1      25.476   2.561  50.468  1.00  0.00    -0.074 NA
HETATM    3  C7  UNL     1      26.567   3.251  50.093  1.00  0.00     0.149 A 
HETATM    4  C8  UNL     1      26.303   4.423  49.446  1.00  0.00     0.007 A 
HETATM    5  C9  UNL     1      25.111   5.010  49.118  1.00  0.00     0.065 A 
HETATM    6  N3  UNL     1      24.126   4.206  49.558  1.00  0.00    -0.067 NA
HETATM    7  C10 UNL     1      24.467   6.150  48.488  1.00  0.00     0.065 C 
HETATM    8  C11 UNL     1      25.336   7.214  47.901  1.00  0.00     0.033 C 
HETATM    9  C12 UNL     1      26.229   7.912  48.807  1.00  0.00    -0.024 C 
HETATM   10  C13 UNL     1      27.418   8.303  49.242  1.00  0.00     0.030 C 
HETATM   11  C14 UNL     1      28.762   8.069  48.762  1.00  0.00     0.089 A 
HETATM   12  N4  UNL     1      29.849   8.850  48.675  1.00  0.00    -0.172 NA
HETATM   13  N5  UNL     1      30.865   8.182  48.164  1.00  0.00    -0.277 N 
HETATM   14  C15 UNL     1      32.225   8.648  47.895  1.00  0.00     0.179 C 
HETATM   15  C16 UNL     1      30.532   6.914  47.873  1.00  0.00     0.039 A 
HETATM   16  C17 UNL     1      31.179   5.709  47.304  1.00  0.00     0.071 C 
HETATM   17  C18 UNL     1      29.226   6.884  48.257  1.00  0.00     0.018 A 
HETATM   18  C19 UNL     1      28.207   5.873  48.238  1.00  0.00     0.017 C 
HETATM   19  C20 UNL     1      27.341   5.272  48.962  1.00  0.00     0.016 C 
ENDROOT
BRANCH   1  20
HETATM   20  N1  UNL     1      23.275   2.136  50.692  1.00  0.00    -0.188 N 
HETATM   21  H6  UNL     1      22.490   2.250  50.018  1.00  0.00     0.184 HD
BRANCH  20  22
HETATM   22  C5  UNL     1      23.295   1.272  51.803  1.00  0.00     0.050 A 
HETATM   23  C4  UNL     1      22.084   0.711  52.142  1.00  0.00     0.030 A 
HETATM   24  C3  UNL     1      22.034  -0.147  53.212  1.00  0.00     0.010 A 
HETATM   25  C2  UNL     1      23.187  -0.427  53.921  1.00  0.00    -0.039 A 
HETATM   26  C1  UNL     1      23.106  -1.363  55.079  1.00  0.00     0.050 C 
HETATM   27  C22 UNL     1      24.379   0.157  53.547  1.00  0.00     0.082 A 
HETATM   28  C21 UNL     1      24.466   1.027  52.471  1.00  0.00     0.055 A 
BRANCH  27  29
HETATM   29  S1  UNL     1      25.793  -0.260  54.507  1.00  0.00     0.239 S 
HETATM   30  O1  UNL     1      26.593  -1.238  53.662  1.00  0.00    -0.206 OA
HETATM   31  O2  UNL     1      26.627   0.988  54.685  1.00  0.00    -0.206 OA
BRANCH  29  32
HETATM   32  N6  UNL     1      25.386  -0.930  56.024  1.00  0.00    -0.225 NA
HETATM   33  H23 UNL     1      26.211  -0.943  56.677  1.00  0.00     0.136 HD
HETATM   34  H24 UNL     1      25.073  -1.934  55.884  1.00  0.00     0.136 HD
ENDBRANCH  29  32
ENDBRANCH  27  29
ENDBRANCH  20  22
ENDBRANCH   1  20
TORSDOF 4
ENDMDL
MODEL 8
REMARK VINA RESULT:      -9.1      6.452     10.236
REMARK  4 active torsions:
REMARK  status: ('A' for Active; 'I' for Inactive)
REMARK    1  A    between atoms: C5_5  and  N1_6 
REMARK    2  A    between atoms: N1_6  and  C6_7 
REMARK    3  A    between atoms: C22_27  and  S1_28 
REMARK    4  A    between atoms: S1_28  and  N6_29 
ROOT
HETATM    1  C6  UNL     1      19.018   1.579  51.228  1.00  0.00     0.727 A 
HETATM    2  N2  UNL     1      19.303   0.431  51.848  1.00  0.00    -0.074 NA
HETATM    3  C7  UNL     1      20.566   0.185  52.235  1.00  0.00     0.149 A 
HETATM    4  C8  UNL     1      21.455   1.177  51.937  1.00  0.00     0.007 A 
HETATM    5  C9  UNL     1      21.270   2.380  51.310  1.00  0.00     0.065 A 
HETATM    6  N3  UNL     1      19.967   2.476  50.990  1.00  0.00    -0.067 NA
HETATM    7  C10 UNL     1      21.904   3.602  50.847  1.00  0.00     0.065 C 
HETATM    8  C11 UNL     1      23.371   3.764  51.073  1.00  0.00     0.033 C 
HETATM    9  C12 UNL     1      23.832   3.760  52.449  1.00  0.00    -0.024 C 
HETATM   10  C13 UNL     1      24.540   3.294  53.468  1.00  0.00     0.030 C 
HETATM   11  C14 UNL     1      25.460   2.186  53.594  1.00  0.00     0.089 A 
HETATM   12  N4  UNL     1      26.621   2.034  54.250  1.00  0.00    -0.172 NA
HETATM   13  N5  UNL     1      27.104   0.820  54.069  1.00  0.00    -0.277 N 
HETATM   14  C15 UNL     1      28.338   0.238  54.596  1.00  0.00     0.179 C 
HETATM   15  C16 UNL     1      26.307   0.078  53.283  1.00  0.00     0.039 A 
HETATM   16  C17 UNL     1      26.282  -1.293  52.722  1.00  0.00     0.071 C 
HETATM   17  C18 UNL     1      25.304   0.957  53.011  1.00  0.00     0.018 A 
HETATM   18  C19 UNL     1      24.104   0.885  52.226  1.00  0.00     0.017 C 
HETATM   19  C20 UNL     1      22.840   1.076  52.259  1.00  0.00     0.016 C 
ENDROOT
BRANCH   1  20
HETATM   20  N1  UNL     1      17.616   1.600  50.918  1.00  0.00    -0.188 N 
HETATM   21  H6  UNL     1      17.556   1.008  50.064  1.00  0.00     0.184 HD
BRANCH  20  22
HETATM   22  C5  UNL     1      16.540   2.239  51.563  1.00  0.00     0.050 A 
HETATM   23  C4  UNL     1      16.748   3.557  51.902  1.00  0.00     0.030 A 
HETATM   24  C3  UNL     1      15.737   4.243  52.527  1.00  0.00     0.010 A 
HETATM   25  C2  UNL     1      14.544   3.603  52.802  1.00  0.00    -0.039 A 
HETATM   26  C1  UNL     1      13.460   4.369  53.482  1.00  0.00     0.050 C 
HETATM   27  C22 UNL     1      14.377   2.280  52.445  1.00  0.00     0.082 A 
HETATM   28  C21 UNL     1      15.377   1.559  51.811  1.00  0.00     0.055 A 
BRANCH  27  29
HETATM   29  S1  UNL     1      12.824   1.551  52.834  1.00  0.00     0.239 S 
HETATM   30  O1  UNL     1      12.904   0.117  52.334  1.00  0.00    -0.206 OA
HETATM   31  O2  UNL     1      12.687   1.509  54.339  1.00  0.00    -0.206 OA
BRANCH  29  32
HETATM   32  N6  UNL     1      11.510   2.386  52.135  1.00  0.00    -0.225 NA
HETATM   33  H23 UNL     1      11.352   2.094  51.135  1.00  0.00     0.136 HD
HETATM   34  H24 UNL     1      11.723   3.425  52.135  1.00  0.00     0.136 HD
ENDBRANCH  29  32
ENDBRANCH  27  29
ENDBRANCH  20  22
ENDBRANCH   1  20
TORSDOF 4
ENDMDL
MODEL 9
REMARK VINA RESULT:      -9.0      2.929      5.004
REMARK  4 active torsions:
REMARK  status: ('A' for Active; 'I' for Inactive)
REMARK    1  A    between atoms: C5_5  and  N1_6 
REMARK    2  A    between atoms: N1_6  and  C6_7 
REMARK    3  A    between atoms: C22_27  and  S1_28 
REMARK    4  A    between atoms: S1_28  and  N6_29 
ROOT
HETATM    1  C6  UNL     1      27.088   6.236  48.636  1.00  0.00     0.727 A 
HETATM    2  N2  UNL     1      27.586   5.001  48.532  1.00  0.00    -0.074 NA
HETATM    3  C7  UNL     1      27.014   3.999  49.220  1.00  0.00     0.149 A 
HETATM    4  C8  UNL     1      25.945   4.370  49.981  1.00  0.00     0.007 A 
HETATM    5  C9  UNL     1      25.359   5.595  50.159  1.00  0.00     0.065 A 
HETATM    6  N3  UNL     1      26.040   6.483  49.410  1.00  0.00    -0.067 NA
HETATM    7  C10 UNL     1      24.301   6.336  50.823  1.00  0.00     0.065 C 
HETATM    8  C11 UNL     1      23.382   5.587  51.732  1.00  0.00     0.033 C 
HETATM    9  C12 UNL     1      22.596   4.519  51.143  1.00  0.00    -0.024 C 
HETATM   10  C13 UNL     1      22.198   3.261  51.019  1.00  0.00     0.030 C 
HETATM   11  C14 UNL     1      22.566   2.046  51.710  1.00  0.00     0.089 A 
HETATM   12  N4  UNL     1      21.858   0.987  52.134  1.00  0.00    -0.172 NA
HETATM   13  N5  UNL     1      22.644   0.105  52.721  1.00  0.00    -0.277 N 
HETATM   14  C15 UNL     1      22.288  -1.180  53.323  1.00  0.00     0.179 C 
HETATM   15  C16 UNL     1      23.925   0.508  52.733  1.00  0.00     0.039 A 
HETATM   16  C17 UNL     1      25.232   0.007  53.218  1.00  0.00     0.071 C 
HETATM   17  C18 UNL     1      23.834   1.710  52.100  1.00  0.00     0.018 A 
HETATM   18  C19 UNL     1      24.788   2.727  51.756  1.00  0.00     0.017 C 
HETATM   19  C20 UNL     1      25.229   3.438  50.790  1.00  0.00     0.016 C 
ENDROOT
BRANCH   1  20
HETATM   20  N1  UNL     1      27.869   7.118  47.815  1.00  0.00    -0.188 N 
HETATM   21  H6  UNL     1      27.827   6.665  46.878  1.00  0.00     0.184 HD
BRANCH  20  22
HETATM   22  C5  UNL     1      28.548   8.310  48.130  1.00  0.00     0.050 A 
HETATM   23  C4  UNL     1      29.834   8.156  48.600  1.00  0.00     0.030 A 
HETATM   24  C3  UNL     1      30.555   9.278  48.920  1.00  0.00     0.010 A 
HETATM   25  C2  UNL     1      29.984  10.527  48.768  1.00  0.00    -0.039 A 
HETATM   26  C1  UNL     1      30.789  11.731  49.122  1.00  0.00     0.050 C 
HETATM   27  C22 UNL     1      28.692  10.636  48.294  1.00  0.00     0.082 A 
HETATM   28  C21 UNL     1      27.936   9.524  47.960  1.00  0.00     0.055 A 
BRANCH  27  29
HETATM   29  S1  UNL     1      28.051  12.266  48.132  1.00  0.00     0.239 S 
HETATM   30  O1  UNL     1      26.571  12.099  47.825  1.00  0.00    -0.206 OA
HETATM   31  O2  UNL     1      28.170  12.955  49.472  1.00  0.00    -0.206 OA
BRANCH  29  32
HETATM   32  N6  UNL     1      28.843  13.169  46.920  1.00  0.00    -0.225 NA
HETATM   33  H23 UNL     1      29.623  13.754  47.319  1.00  0.00     0.136 HD
HETATM   34  H24 UNL     1      28.145  13.831  46.472  1.00  0.00     0.136 HD
ENDBRANCH  29  32
ENDBRANCH  27  29
ENDBRANCH  20  22
ENDBRANCH   1  20
TORSDOF 4
ENDMDL
