MODEL 1
REMARK VINA RESULT:      -6.2      0.000      0.000
REMARK  8 active torsions:
REMARK  status: ('A' for Active; 'I' for Inactive)
REMARK    1  A    between atoms: O1_2  and  C2_3 
REMARK    2  A    between atoms: C2_3  and  C3_4 
REMARK    3  A    between atoms: C3_4  and  O2_5 
REMARK    4  A    between atoms: O2_5  and  C4_6 
REMARK    5  A    between atoms: C11_15  and  O3_16 
REMARK    6  A    between atoms: O3_16  and  C12_17 
REMARK    7  A    between atoms: C12_17  and  C13_18 
REMARK    8  A    between atoms: C13_18  and  O4_19 
ROOT
HETATM    1  C4  UNL     1      25.514   1.947  53.453  1.00  0.00     0.103 A 
HETATM    2  C5  UNL     1      26.887   1.973  53.488  1.00  0.00     0.055 A 
HETATM    3  C6  UNL     1      27.720   0.884  53.508  1.00  0.00     0.013 A 
HETATM    4  C7  UNL     1      29.064   1.144  53.544  1.00  0.00     0.132 A 
HETATM    5  N1  UNL     1      29.885   0.057  53.564  1.00  0.00    -0.253 NA
HETATM    6  C8  UNL     1      29.392  -1.192  53.549  1.00  0.00     0.233 A 
HETATM    7  N2  UNL     1      28.063  -1.388  53.515  1.00  0.00    -0.241 NA
HETATM    8  C9  UNL     1      27.177  -0.379  53.493  1.00  0.00     0.072 A 
HETATM    9  C10 UNL     1      25.807  -0.497  53.456  1.00  0.00     0.072 A 
HETATM   10  C11 UNL     1      24.998   0.645  53.437  1.00  0.00     0.104 A 
ENDROOT
BRANCH   1  11
HETATM   11  O2  UNL     1      24.491   2.832  53.431  1.00  0.00    -0.346 OA
BRANCH  11  12
HETATM   12  C3  UNL     1      24.137   3.632  52.359  1.00  0.00     0.201 C 
BRANCH  12  13
HETATM   13  C2  UNL     1      24.552   3.145  50.996  1.00  0.00     0.193 C 
BRANCH  13  14
HETATM   14  O1  UNL     1      25.558   4.051  50.574  1.00  0.00    -0.394 OA
HETATM   15  C1  UNL     1      26.516   3.322  49.876  1.00  0.00     0.201 C 
ENDBRANCH  13  14
ENDBRANCH  12  13
ENDBRANCH  11  12
ENDBRANCH   1  11
BRANCH  10  16
HETATM   16  O3  UNL     1      23.648   0.325  53.401  1.00  0.00    -0.346 OA
BRANCH  16  17
HETATM   17  C12 UNL     1      23.143  -0.956  53.596  1.00  0.00     0.201 C 
BRANCH  17  18
HETATM   18  C13 UNL     1      22.535  -1.086  54.987  1.00  0.00     0.193 C 
BRANCH  18  19
HETATM   19  O4  UNL     1      21.331  -1.779  54.934  1.00  0.00    -0.394 OA
HETATM   20  C14 UNL     1      20.484  -1.240  53.990  1.00  0.00     0.201 C 
ENDBRANCH  18  19
ENDBRANCH  17  18
ENDBRANCH  16  17
ENDBRANCH  10  16
TORSDOF 8
ENDMDL
MODEL 2
REMARK VINA RESULT:      -6.1      2.687      5.831
REMARK  8 active torsions:
REMARK  status: ('A' for Active; 'I' for Inactive)
REMARK    1  A    between atoms: O1_2  and  C2_3 
REMARK    2  A    between atoms: C2_3  and  C3_4 
REMARK    3  A    between atoms: C3_4  and  O2_5 
REMARK    4  A    between atoms: O2_5  and  C4_6 
REMARK    5  A    between atoms: C11_15  and  O3_16 
REMARK    6  A    between atoms: O3_16  and  C12_17 
REMARK    7  A    between atoms: C12_17  and  C13_18 
REMARK    8  A    between atoms: C13_18  and  O4_19 
ROOT
HETATM    1  C4  UNL     1      24.898   0.763  52.935  1.00  0.00     0.103 A 
HETATM    2  C5  UNL     1      24.342   1.873  52.347  1.00  0.00     0.055 A 
HETATM    3  C6  UNL     1      24.953   2.710  51.449  1.00  0.00     0.013 A 
HETATM    4  C7  UNL     1      24.209   3.763  50.991  1.00  0.00     0.132 A 
HETATM    5  N1  UNL     1      24.823   4.589  50.099  1.00  0.00    -0.253 NA
HETATM    6  C8  UNL     1      26.087   4.372  49.700  1.00  0.00     0.233 A 
HETATM    7  N2  UNL     1      26.772   3.322  50.184  1.00  0.00    -0.241 NA
HETATM    8  C9  UNL     1      26.249   2.455  51.066  1.00  0.00     0.072 A 
HETATM    9  C10 UNL     1      26.882   1.359  51.606  1.00  0.00     0.072 A 
HETATM   10  C11 UNL     1      26.216   0.535  52.520  1.00  0.00     0.104 A 
ENDROOT
BRANCH   1  11
HETATM   11  O2  UNL     1      24.536  -0.195  53.819  1.00  0.00    -0.346 OA
BRANCH  11  12
HETATM   12  C3  UNL     1      23.287  -0.783  53.907  1.00  0.00     0.201 C 
BRANCH  12  13
HETATM   13  C2  UNL     1      22.851  -1.226  55.279  1.00  0.00     0.193 C 
BRANCH  13  14
HETATM   14  O1  UNL     1      21.730  -2.064  55.054  1.00  0.00    -0.394 OA
HETATM   15  C1  UNL     1      20.876  -1.399  54.179  1.00  0.00     0.201 C 
ENDBRANCH  13  14
ENDBRANCH  12  13
ENDBRANCH  11  12
ENDBRANCH   1  11
BRANCH  10  16
HETATM   16  O3  UNL     1      27.015  -0.515  52.952  1.00  0.00    -0.346 OA
BRANCH  16  17
HETATM   17  C12 UNL     1      28.372  -0.399  53.235  1.00  0.00     0.201 C 
BRANCH  17  18
HETATM   18  C13 UNL     1      28.589  -0.158  54.723  1.00  0.00     0.193 C 
BRANCH  18  19
HETATM   19  O4  UNL     1      28.461   1.193  55.027  1.00  0.00    -0.394 OA
HETATM   20  C14 UNL     1      29.343   1.956  54.292  1.00  0.00     0.201 C 
ENDBRANCH  18  19
ENDBRANCH  17  18
ENDBRANCH  16  17
ENDBRANCH  10  16
TORSDOF 8
ENDMDL
MODEL 3
REMARK VINA RESULT:      -6.0      0.992      4.767
REMARK  8 active torsions:
REMARK  status: ('A' for Active; 'I' for Inactive)
REMARK    1  A    between atoms: O1_2  and  C2_3 
REMARK    2  A    between atoms: C2_3  and  C3_4 
REMARK    3  A    between atoms: C3_4  and  O2_5 
REMARK    4  A    between atoms: O2_5  and  C4_6 
REMARK    5  A    between atoms: C11_15  and  O3_16 
REMARK    6  A    between atoms: O3_16  and  C12_17 
REMARK    7  A    between atoms: C12_17  and  C13_18 
REMARK    8  A    between atoms: C13_18  and  O4_19 
ROOT
HETATM    1  C4  UNL     1      24.508   0.463  52.817  1.00  0.00     0.103 A 
HETATM    2  C5  UNL     1      25.682  -0.237  52.954  1.00  0.00     0.055 A 
HETATM    3  C6  UNL     1      26.884   0.268  53.379  1.00  0.00     0.013 A 
HETATM    4  C7  UNL     1      27.930  -0.612  53.437  1.00  0.00     0.132 A 
HETATM    5  N1  UNL     1      29.121  -0.103  53.861  1.00  0.00    -0.253 NA
HETATM    6  C8  UNL     1      29.247   1.191  54.199  1.00  0.00     0.233 A 
HETATM    7  N2  UNL     1      28.185   2.011  54.121  1.00  0.00    -0.241 NA
HETATM    8  C9  UNL     1      26.973   1.599  53.715  1.00  0.00     0.072 A 
HETATM    9  C10 UNL     1      25.841   2.373  53.609  1.00  0.00     0.072 A 
HETATM   10  C11 UNL     1      24.637   1.812  53.169  1.00  0.00     0.104 A 
ENDROOT
BRANCH   1  11
HETATM   11  O2  UNL     1      23.233   0.222  52.432  1.00  0.00    -0.346 OA
BRANCH  11  12
HETATM   12  C3  UNL     1      22.374  -0.697  53.007  1.00  0.00     0.201 C 
BRANCH  12  13
HETATM   13  C2  UNL     1      21.601  -0.228  54.211  1.00  0.00     0.193 C 
BRANCH  13  14
HETATM   14  O1  UNL     1      21.648  -1.313  55.122  1.00  0.00    -0.394 OA
HETATM   15  C1  UNL     1      22.979  -1.503  55.482  1.00  0.00     0.201 C 
ENDBRANCH  13  14
ENDBRANCH  12  13
ENDBRANCH  11  12
ENDBRANCH   1  11
BRANCH  10  16
HETATM   16  O3  UNL     1      23.612   2.746  53.128  1.00  0.00    -0.346 OA
BRANCH  16  17
HETATM   17  C12 UNL     1      23.695   3.969  52.472  1.00  0.00     0.201 C 
BRANCH  17  18
HETATM   18  C13 UNL     1      23.905   3.762  50.978  1.00  0.00     0.193 C 
BRANCH  18  19
HETATM   19  O4  UNL     1      25.079   4.377  50.555  1.00  0.00    -0.394 OA
HETATM   20  C14 UNL     1      25.966   3.458  50.037  1.00  0.00     0.201 C 
ENDBRANCH  18  19
ENDBRANCH  17  18
ENDBRANCH  16  17
ENDBRANCH  10  16
TORSDOF 8
ENDMDL
MODEL 4
REMARK VINA RESULT:      -6.0      3.193      5.514
REMARK  8 active torsions:
REMARK  status: ('A' for Active; 'I' for Inactive)
REMARK    1  A    between atoms: O1_2  and  C2_3 
REMARK    2  A    between atoms: C2_3  and  C3_4 
REMARK    3  A    between atoms: C3_4  and  O2_5 
REMARK    4  A    between atoms: O2_5  and  C4_6 
REMARK    5  A    between atoms: C11_15  and  O3_16 
REMARK    6  A    between atoms: O3_16  and  C12_17 
REMARK    7  A    between atoms: C12_17  and  C13_18 
REMARK    8  A    between atoms: C13_18  and  O4_19 
ROOT
HETATM    1  C4  UNL     1      25.189   0.888  52.773  1.00  0.00     0.103 A 
HETATM    2  C5  UNL     1      24.717   0.028  53.734  1.00  0.00     0.055 A 
HETATM    3  C6  UNL     1      23.421  -0.397  53.879  1.00  0.00     0.013 A 
HETATM    4  C7  UNL     1      23.172  -1.257  54.915  1.00  0.00     0.132 A 
HETATM    5  N1  UNL     1      21.883  -1.674  55.051  1.00  0.00    -0.253 NA
HETATM    6  C8  UNL     1      20.921  -1.258  54.212  1.00  0.00     0.233 A 
HETATM    7  N2  UNL     1      21.222  -0.412  53.213  1.00  0.00    -0.241 NA
HETATM    8  C9  UNL     1      22.464   0.053  53.000  1.00  0.00     0.072 A 
HETATM    9  C10 UNL     1      22.852   0.917  52.003  1.00  0.00     0.072 A 
HETATM   10  C11 UNL     1      24.187   1.323  51.896  1.00  0.00     0.104 A 
ENDROOT
BRANCH   1  11
HETATM   11  O2  UNL     1      26.368   1.451  52.418  1.00  0.00    -0.346 OA
BRANCH  11  12
HETATM   12  C3  UNL     1      27.607   1.131  52.943  1.00  0.00     0.201 C 
BRANCH  12  13
HETATM   13  C2  UNL     1      28.393   2.268  53.542  1.00  0.00     0.193 C 
BRANCH  13  14
HETATM   14  O1  UNL     1      28.897   1.760  54.766  1.00  0.00    -0.394 OA
HETATM   15  C1  UNL     1      28.678   0.386  54.773  1.00  0.00     0.201 C 
ENDBRANCH  13  14
ENDBRANCH  12  13
ENDBRANCH  11  12
ENDBRANCH   1  11
BRANCH  10  16
HETATM   16  O3  UNL     1      24.384   2.191  50.833  1.00  0.00    -0.346 OA
BRANCH  16  17
HETATM   17  C12 UNL     1      23.404   3.036  50.322  1.00  0.00     0.201 C 
BRANCH  17  18
HETATM   18  C13 UNL     1      23.755   4.492  50.597  1.00  0.00     0.193 C 
BRANCH  18  19
HETATM   19  O4  UNL     1      23.655   4.775  51.955  1.00  0.00    -0.394 OA
HETATM   20  C14 UNL     1      22.340   4.778  52.369  1.00  0.00     0.201 C 
ENDBRANCH  18  19
ENDBRANCH  17  18
ENDBRANCH  16  17
ENDBRANCH  10  16
TORSDOF 8
ENDMDL
MODEL 5
REMARK VINA RESULT:      -6.0      1.795      2.047
REMARK  8 active torsions:
REMARK  status: ('A' for Active; 'I' for Inactive)
REMARK    1  A    between atoms: O1_2  and  C2_3 
REMARK    2  A    between atoms: C2_3  and  C3_4 
REMARK    3  A    between atoms: C3_4  and  O2_5 
REMARK    4  A    between atoms: O2_5  and  C4_6 
REMARK    5  A    between atoms: C11_15  and  O3_16 
REMARK    6  A    between atoms: O3_16  and  C12_17 
REMARK    7  A    between atoms: C12_17  and  C13_18 
REMARK    8  A    between atoms: C13_18  and  O4_19 
ROOT
HETATM    1  C4  UNL     1      24.346   1.110  52.612  1.00  0.00     0.103 A 
HETATM    2  C5  UNL     1      25.559   1.742  52.744  1.00  0.00     0.055 A 
HETATM    3  C6  UNL     1      26.623   1.311  53.492  1.00  0.00     0.013 A 
HETATM    4  C7  UNL     1      27.739   2.104  53.482  1.00  0.00     0.132 A 
HETATM    5  N1  UNL     1      28.793   1.668  54.227  1.00  0.00    -0.253 NA
HETATM    6  C8  UNL     1      28.727   0.524  54.927  1.00  0.00     0.233 A 
HETATM    7  N2  UNL     1      27.605  -0.215  54.903  1.00  0.00    -0.241 NA
HETATM    8  C9  UNL     1      26.518   0.135  54.197  1.00  0.00     0.072 A 
HETATM    9  C10 UNL     1      25.336  -0.565  54.119  1.00  0.00     0.072 A 
HETATM   10  C11 UNL     1      24.276  -0.083  53.342  1.00  0.00     0.104 A 
ENDROOT
BRANCH   1  11
HETATM   11  O2  UNL     1      23.172   1.309  51.969  1.00  0.00    -0.346 OA
BRANCH  11  12
HETATM   12  C3  UNL     1      22.790   2.473  51.327  1.00  0.00     0.201 C 
BRANCH  12  13
HETATM   13  C2  UNL     1      22.012   3.467  52.149  1.00  0.00     0.193 C 
BRANCH  13  14
HETATM   14  O1  UNL     1      22.980   4.392  52.615  1.00  0.00    -0.394 OA
HETATM   15  C1  UNL     1      23.678   4.865  51.508  1.00  0.00     0.201 C 
ENDBRANCH  13  14
ENDBRANCH  12  13
ENDBRANCH  11  12
ENDBRANCH   1  11
BRANCH  10  16
HETATM   16  O3  UNL     1      23.173  -0.923  53.389  1.00  0.00    -0.346 OA
BRANCH  16  17
HETATM   17  C12 UNL     1      22.435  -1.180  54.539  1.00  0.00     0.201 C 
BRANCH  17  18
HETATM   18  C13 UNL     1      20.944  -1.030  54.263  1.00  0.00     0.193 C 
BRANCH  18  19
HETATM   19  O4  UNL     1      20.640   0.279  53.904  1.00  0.00    -0.394 OA
HETATM   20  C14 UNL     1      19.870   0.319  52.761  1.00  0.00     0.201 C 
ENDBRANCH  18  19
ENDBRANCH  17  18
ENDBRANCH  16  17
ENDBRANCH  10  16
TORSDOF 8
ENDMDL
MODEL 6
REMARK VINA RESULT:      -6.0      2.856      4.553
REMARK  8 active torsions:
REMARK  status: ('A' for Active; 'I' for Inactive)
REMARK    1  A    between atoms: O1_2  and  C2_3 
REMARK    2  A    between atoms: C2_3  and  C3_4 
REMARK    3  A    between atoms: C3_4  and  O2_5 
REMARK    4  A    between atoms: O2_5  and  C4_6 
REMARK    5  A    between atoms: C11_15  and  O3_16 
REMARK    6  A    between atoms: O3_16  and  C12_17 
REMARK    7  A    between atoms: C12_17  and  C13_18 
REMARK    8  A    between atoms: C13_18  and  O4_19 
ROOT
HETATM    1  C4  UNL     1      26.151   0.550  52.280  1.00  0.00     0.103 A 
HETATM    2  C5  UNL     1      26.501   1.522  51.375  1.00  0.00     0.055 A 
HETATM    3  C6  UNL     1      25.822   2.688  51.131  1.00  0.00     0.013 A 
HETATM    4  C7  UNL     1      26.352   3.516  50.178  1.00  0.00     0.132 A 
HETATM    5  N1  UNL     1      25.671   4.672  49.942  1.00  0.00    -0.253 NA
HETATM    6  C8  UNL     1      24.546   4.970  50.612  1.00  0.00     0.233 A 
HETATM    7  N2  UNL     1      24.070   4.119  51.536  1.00  0.00    -0.241 NA
HETATM    8  C9  UNL     1      24.673   2.957  51.836  1.00  0.00     0.072 A 
HETATM    9  C10 UNL     1      24.251   2.035  52.767  1.00  0.00     0.072 A 
HETATM   10  C11 UNL     1      24.978   0.859  52.979  1.00  0.00     0.104 A 
ENDROOT
BRANCH   1  11
HETATM   11  O2  UNL     1      26.620  -0.648  52.702  1.00  0.00    -0.346 OA
BRANCH  11  12
HETATM   12  C3  UNL     1      27.822  -0.862  53.352  1.00  0.00     0.201 C 
BRANCH  12  13
HETATM   13  C2  UNL     1      28.101   0.012  54.547  1.00  0.00     0.193 C 
BRANCH  13  14
HETATM   14  O1  UNL     1      29.353   0.617  54.272  1.00  0.00    -0.394 OA
HETATM   15  C1  UNL     1      30.096  -0.279  53.509  1.00  0.00     0.201 C 
ENDBRANCH  13  14
ENDBRANCH  12  13
ENDBRANCH  11  12
ENDBRANCH   1  11
BRANCH  10  16
HETATM   16  O3  UNL     1      24.399   0.058  53.952  1.00  0.00    -0.346 OA
BRANCH  16  17
HETATM   17  C12 UNL     1      23.214  -0.650  53.778  1.00  0.00     0.201 C 
BRANCH  17  18
HETATM   18  C13 UNL     1      22.760  -1.266  55.095  1.00  0.00     0.193 C 
BRANCH  18  19
HETATM   19  O4  UNL     1      21.505  -1.850  54.958  1.00  0.00    -0.394 OA
HETATM   20  C14 UNL     1      20.738  -1.177  54.031  1.00  0.00     0.201 C 
ENDBRANCH  18  19
ENDBRANCH  17  18
ENDBRANCH  16  17
ENDBRANCH  10  16
TORSDOF 8
ENDMDL
MODEL 7
REMARK VINA RESULT:      -5.6      2.859      5.230
REMARK  8 active torsions:
REMARK  status: ('A' for Active; 'I' for Inactive)
REMARK    1  A    between atoms: O1_2  and  C2_3 
REMARK    2  A    between atoms: C2_3  and  C3_4 
REMARK    3  A    between atoms: C3_4  and  O2_5 
REMARK    4  A    between atoms: O2_5  and  C4_6 
REMARK    5  A    between atoms: C11_15  and  O3_16 
REMARK    6  A    between atoms: O3_16  and  C12_17 
REMARK    7  A    between atoms: C12_17  and  C13_18 
REMARK    8  A    between atoms: C13_18  and  O4_19 
ROOT
HETATM    1  C4  UNL     1      24.300   1.899  52.543  1.00  0.00     0.103 A 
HETATM    2  C5  UNL     1      22.953   1.631  52.576  1.00  0.00     0.055 A 
HETATM    3  C6  UNL     1      22.355   0.545  53.161  1.00  0.00     0.013 A 
HETATM    4  C7  UNL     1      20.991   0.476  53.071  1.00  0.00     0.132 A 
HETATM    5  N1  UNL     1      20.404  -0.605  53.655  1.00  0.00    -0.253 NA
HETATM    6  C8  UNL     1      21.134  -1.544  54.280  1.00  0.00     0.233 A 
HETATM    7  N2  UNL     1      22.471  -1.427  54.337  1.00  0.00    -0.241 NA
HETATM    8  C9  UNL     1      23.137  -0.396  53.790  1.00  0.00     0.072 A 
HETATM    9  C10 UNL     1      24.499  -0.203  53.806  1.00  0.00     0.072 A 
HETATM   10  C11 UNL     1      25.063   0.921  53.194  1.00  0.00     0.104 A 
ENDROOT
BRANCH   1  11
HETATM   11  O2  UNL     1      25.124   2.854  52.052  1.00  0.00    -0.346 OA
BRANCH  11  12
HETATM   12  C3  UNL     1      25.188   3.266  50.733  1.00  0.00     0.201 C 
BRANCH  12  13
HETATM   13  C2  UNL     1      26.464   2.953  49.996  1.00  0.00     0.193 C 
BRANCH  13  14
HETATM   14  O1  UNL     1      26.702   4.087  49.179  1.00  0.00    -0.394 OA
HETATM   15  C1  UNL     1      25.684   5.004  49.424  1.00  0.00     0.201 C 
ENDBRANCH  13  14
ENDBRANCH  12  13
ENDBRANCH  11  12
ENDBRANCH   1  11
BRANCH  10  16
HETATM   16  O3  UNL     1      26.444   0.941  53.314  1.00  0.00    -0.346 OA
BRANCH  16  17
HETATM   17  C12 UNL     1      27.225  -0.187  53.547  1.00  0.00     0.201 C 
BRANCH  17  18
HETATM   18  C13 UNL     1      28.284   0.104  54.603  1.00  0.00     0.193 C 
BRANCH  18  19
HETATM   19  O4  UNL     1      29.474  -0.550  54.299  1.00  0.00    -0.394 OA
HETATM   20  C14 UNL     1      29.272  -1.549  53.371  1.00  0.00     0.201 C 
ENDBRANCH  18  19
ENDBRANCH  17  18
ENDBRANCH  16  17
ENDBRANCH  10  16
TORSDOF 8
ENDMDL
MODEL 8
REMARK VINA RESULT:      -5.6      2.107      5.452
REMARK  8 active torsions:
REMARK  status: ('A' for Active; 'I' for Inactive)
REMARK    1  A    between atoms: O1_2  and  C2_3 
REMARK    2  A    between atoms: C2_3  and  C3_4 
REMARK    3  A    between atoms: C3_4  and  O2_5 
REMARK    4  A    between atoms: O2_5  and  C4_6 
REMARK    5  A    between atoms: C11_15  and  O3_16 
REMARK    6  A    between atoms: O3_16  and  C12_17 
REMARK    7  A    between atoms: C12_17  and  C13_18 
REMARK    8  A    between atoms: C13_18  and  O4_19 
ROOT
HETATM    1  C4  UNL     1      24.470   1.735  51.858  1.00  0.00     0.103 A 
HETATM    2  C5  UNL     1      24.829   0.966  52.938  1.00  0.00     0.055 A 
HETATM    3  C6  UNL     1      26.099   0.785  53.421  1.00  0.00     0.013 A 
HETATM    4  C7  UNL     1      26.227  -0.030  54.514  1.00  0.00     0.132 A 
HETATM    5  N1  UNL     1      27.492  -0.205  54.987  1.00  0.00    -0.253 NA
HETATM    6  C8  UNL     1      28.545   0.394  54.406  1.00  0.00     0.233 A 
HETATM    7  N2  UNL     1      28.361   1.183  53.334  1.00  0.00    -0.241 NA
HETATM    8  C9  UNL     1      27.152   1.414  52.798  1.00  0.00     0.072 A 
HETATM    9  C10 UNL     1      26.881   2.207  51.707  1.00  0.00     0.072 A 
HETATM   10  C11 UNL     1      25.567   2.360  51.251  1.00  0.00     0.104 A 
ENDROOT
BRANCH   1  11
HETATM   11  O2  UNL     1      23.341   2.072  51.193  1.00  0.00    -0.346 OA
BRANCH  11  12
HETATM   12  C3  UNL     1      22.270   1.232  50.943  1.00  0.00     0.201 C 
BRANCH  12  13
HETATM   13  C2  UNL     1      20.937   1.667  51.494  1.00  0.00     0.193 C 
BRANCH  13  14
HETATM   14  O1  UNL     1      21.128   1.744  52.896  1.00  0.00    -0.394 OA
HETATM   15  C1  UNL     1      21.010   0.456  53.409  1.00  0.00     0.201 C 
ENDBRANCH  13  14
ENDBRANCH  12  13
ENDBRANCH  11  12
ENDBRANCH   1  11
BRANCH  10  16
HETATM   16  O3  UNL     1      25.494   3.194  50.145  1.00  0.00    -0.346 OA
BRANCH  16  17
HETATM   17  C12 UNL     1      25.625   4.577  50.198  1.00  0.00     0.201 C 
BRANCH  17  18
HETATM   18  C13 UNL     1      26.395   5.090  48.988  1.00  0.00     0.193 C 
BRANCH  18  19
HETATM   19  O4  UNL     1      27.642   4.479  48.903  1.00  0.00    -0.394 OA
HETATM   20  C14 UNL     1      28.578   5.328  48.353  1.00  0.00     0.201 C 
ENDBRANCH  18  19
ENDBRANCH  17  18
ENDBRANCH  16  17
ENDBRANCH  10  16
TORSDOF 8
ENDMDL
MODEL 9
REMARK VINA RESULT:      -5.5      3.460      5.386
REMARK  8 active torsions:
REMARK  status: ('A' for Active; 'I' for Inactive)
REMARK    1  A    between atoms: O1_2  and  C2_3 
REMARK    2  A    between atoms: C2_3  and  C3_4 
REMARK    3  A    between atoms: C3_4  and  O2_5 
REMARK    4  A    between atoms: O2_5  and  C4_6 
REMARK    5  A    between atoms: C11_15  and  O3_16 
REMARK    6  A    between atoms: O3_16  and  C12_17 
REMARK    7  A    between atoms: C12_17  and  C13_18 
REMARK    8  A    between atoms: C13_18  and  O4_19 
ROOT
HETATM    1  C4  UNL     1      24.222   1.644  53.033  1.00  0.00     0.103 A 
HETATM    2  C5  UNL     1      24.272   2.999  52.813  1.00  0.00     0.055 A 
HETATM    3  C6  UNL     1      23.282   3.769  52.259  1.00  0.00     0.013 A 
HETATM    4  C7  UNL     1      23.548   5.106  52.131  1.00  0.00     0.132 A 
HETATM    5  N1  UNL     1      22.559   5.864  51.580  1.00  0.00    -0.253 NA
HETATM    6  C8  UNL     1      21.396   5.319  51.189  1.00  0.00     0.233 A 
HETATM    7  N2  UNL     1      21.189   4.000  51.338  1.00  0.00    -0.241 NA
HETATM    8  C9  UNL     1      22.105   3.174  51.871  1.00  0.00     0.072 A 
HETATM    9  C10 UNL     1      21.970   1.818  52.057  1.00  0.00     0.072 A 
HETATM   10  C11 UNL     1      23.009   1.074  52.627  1.00  0.00     0.104 A 
ENDROOT
BRANCH   1  11
HETATM   11  O2  UNL     1      25.022   0.677  53.539  1.00  0.00    -0.346 OA
BRANCH  11  12
HETATM   12  C3  UNL     1      26.284   0.349  53.077  1.00  0.00     0.201 C 
BRANCH  12  13
HETATM   13  C2  UNL     1      26.523  -1.103  52.756  1.00  0.00     0.193 C 
BRANCH  13  14
HETATM   14  O1  UNL     1      27.642  -1.473  53.543  1.00  0.00    -0.394 OA
HETATM   15  C1  UNL     1      28.493  -0.373  53.607  1.00  0.00     0.201 C 
ENDBRANCH  13  14
ENDBRANCH  12  13
ENDBRANCH  11  12
ENDBRANCH   1  11
BRANCH  10  16
HETATM   16  O3  UNL     1      22.688  -0.271  52.733  1.00  0.00    -0.346 OA
BRANCH  16  17
HETATM   17  C12 UNL     1      21.543  -0.754  53.357  1.00  0.00     0.201 C 
BRANCH  17  18
HETATM   18  C13 UNL     1      21.659  -0.620  54.870  1.00  0.00     0.193 C 
BRANCH  18  19
HETATM   19  O4  UNL     1      22.249  -1.753  55.421  1.00  0.00    -0.394 OA
HETATM   20  C14 UNL     1      23.570  -1.523  55.742  1.00  0.00     0.201 C 
ENDBRANCH  18  19
ENDBRANCH  17  18
ENDBRANCH  16  17
ENDBRANCH  10  16
TORSDOF 8
ENDMDL
