MODEL 1
REMARK VINA RESULT:      -7.1      0.000      0.000
REMARK  6 active torsions:
REMARK  status: ('A' for Active; 'I' for Inactive)
REMARK    1  A    between atoms: C6_7  and  C7_8 
REMARK    2  A    between atoms: C7_8  and  C8_9 
REMARK    3  A    between atoms: C8_9  and  C9_10 
REMARK    4  A    between atoms: C9_10  and  O1_11 
REMARK    5  A    between atoms: O1_11  and  C10_12 
REMARK    6  A    between atoms: C10_12  and  C12_14 
ROOT
HETATM    1  O1  UNL     1      22.649   0.083  52.361  1.00  0.00    -0.353 OA
ENDROOT
BRANCH   1   2
HETATM    2  C9  UNL     1      23.556  -0.518  53.202  1.00  0.00     0.135 C 
BRANCH   2   3
HETATM    3  C8  UNL     1      24.733  -0.071  53.652  1.00  0.00     0.026 C 
BRANCH   3   4
HETATM    4  C7  UNL     1      25.872   0.020  52.771  1.00  0.00     0.034 C 
BRANCH   4   5
HETATM    5  C6  UNL     1      27.143  -0.168  53.040  1.00  0.00     0.062 A 
HETATM    6  C2  UNL     1      28.097   0.787  53.288  1.00  0.00    -0.029 A 
HETATM    7  C1  UNL     1      27.729   2.046  53.261  1.00  0.00     0.045 C 
HETATM    8  C3  UNL     1      29.423   0.565  53.569  1.00  0.00     0.011 A 
HETATM    9  C4  UNL     1      29.844  -0.747  53.606  1.00  0.00     0.020 A 
HETATM   10  C5  UNL     1      28.892  -1.707  53.358  1.00  0.00     0.117 A 
HETATM   11  N1  UNL     1      27.614  -1.426  53.091  1.00  0.00    -0.261 NA
ENDBRANCH   4   5
ENDBRANCH   3   4
ENDBRANCH   2   3
ENDBRANCH   1   2
BRANCH   1  12
HETATM   12  C10 UNL     1      22.350   1.441  52.489  1.00  0.00     0.160 C 
HETATM   13  C11 UNL     1      20.902   1.727  52.673  1.00  0.00     0.045 C 
BRANCH  12  14
HETATM   14  C12 UNL     1      22.971   2.192  51.374  1.00  0.00     0.014 A 
HETATM   15  C13 UNL     1      22.695   2.025  50.033  1.00  0.00     0.044 A 
HETATM   16 CL1  UNL     1      21.501   0.822  49.609  1.00  0.00    -0.084 Cl
HETATM   17  C14 UNL     1      23.314   2.757  49.042  1.00  0.00     0.024 A 
HETATM   18  C15 UNL     1      24.250   3.695  49.440  1.00  0.00     0.003 A 
HETATM   19  C16 UNL     1      24.566   3.902  50.786  1.00  0.00     0.024 A 
HETATM   20  C17 UNL     1      23.921   3.146  51.750  1.00  0.00     0.044 A 
HETATM   21 CL2  UNL     1      24.422   3.515  53.398  1.00  0.00    -0.084 Cl
ENDBRANCH  12  14
ENDBRANCH   1  12
TORSDOF 6
ENDMDL
MODEL 2
REMARK VINA RESULT:      -6.9      2.620      3.580
REMARK  6 active torsions:
REMARK  status: ('A' for Active; 'I' for Inactive)
REMARK    1  A    between atoms: C6_7  and  C7_8 
REMARK    2  A    between atoms: C7_8  and  C8_9 
REMARK    3  A    between atoms: C8_9  and  C9_10 
REMARK    4  A    between atoms: C9_10  and  O1_11 
REMARK    5  A    between atoms: O1_11  and  C10_12 
REMARK    6  A    between atoms: C10_12  and  C12_14 
ROOT
HETATM    1  O1  UNL     1      24.953   3.585  51.777  1.00  0.00    -0.353 OA
ENDROOT
BRANCH   1   2
HETATM    2  C9  UNL     1      24.218   2.689  52.517  1.00  0.00     0.135 C 
BRANCH   2   3
HETATM    3  C8  UNL     1      24.528   1.452  52.919  1.00  0.00     0.026 C 
BRANCH   3   4
HETATM    4  C7  UNL     1      25.594   0.716  52.283  1.00  0.00     0.034 C 
BRANCH   4   5
HETATM    5  C6  UNL     1      26.812   0.488  52.714  1.00  0.00     0.062 A 
HETATM    6  C2  UNL     1      27.440  -0.726  52.844  1.00  0.00    -0.029 A 
HETATM    7  C1  UNL     1      26.773  -1.804  52.505  1.00  0.00     0.045 C 
HETATM    8  C3  UNL     1      28.719  -0.941  53.297  1.00  0.00     0.011 A 
HETATM    9  C4  UNL     1      29.449   0.170  53.662  1.00  0.00     0.020 A 
HETATM   10  C5  UNL     1      28.824   1.387  53.534  1.00  0.00     0.117 A 
HETATM   11  N1  UNL     1      27.575   1.530  53.084  1.00  0.00    -0.261 NA
ENDBRANCH   4   5
ENDBRANCH   3   4
ENDBRANCH   2   3
ENDBRANCH   1   2
BRANCH   1  12
HETATM   12  C10 UNL     1      24.395   4.218  50.664  1.00  0.00     0.160 C 
HETATM   13  C11 UNL     1      23.549   3.330  49.824  1.00  0.00     0.045 C 
BRANCH  12  14
HETATM   14  C12 UNL     1      25.458   4.921  49.910  1.00  0.00     0.014 A 
HETATM   15  C13 UNL     1      26.554   4.332  49.316  1.00  0.00     0.044 A 
HETATM   16 CL1  UNL     1      26.702   2.597  49.461  1.00  0.00    -0.084 Cl
HETATM   17  C14 UNL     1      27.511   5.047  48.629  1.00  0.00     0.024 A 
HETATM   18  C15 UNL     1      27.340   6.417  48.547  1.00  0.00     0.003 A 
HETATM   19  C16 UNL     1      26.246   7.063  49.132  1.00  0.00     0.024 A 
HETATM   20  C17 UNL     1      25.307   6.308  49.814  1.00  0.00     0.044 A 
HETATM   21 CL2  UNL     1      23.990   7.256  50.497  1.00  0.00    -0.084 Cl
ENDBRANCH  12  14
ENDBRANCH   1  12
TORSDOF 6
ENDMDL
MODEL 3
REMARK VINA RESULT:      -6.9      3.752      7.210
REMARK  6 active torsions:
REMARK  status: ('A' for Active; 'I' for Inactive)
REMARK    1  A    between atoms: C6_7  and  C7_8 
REMARK    2  A    between atoms: C7_8  and  C8_9 
REMARK    3  A    between atoms: C8_9  and  C9_10 
REMARK    4  A    between atoms: C9_10  and  O1_11 
REMARK    5  A    between atoms: O1_11  and  C10_12 
REMARK    6  A    between atoms: C10_12  and  C12_14 
ROOT
HETATM    1  O1  UNL     1      26.492   1.947  52.062  1.00  0.00    -0.353 OA
ENDROOT
BRANCH   1   2
HETATM    2  C9  UNL     1      26.339   2.162  50.713  1.00  0.00     0.135 C 
BRANCH   2   3
HETATM    3  C8  UNL     1      25.984   3.273  50.058  1.00  0.00     0.026 C 
BRANCH   3   4
HETATM    4  C7  UNL     1      26.966   4.050  49.341  1.00  0.00     0.034 C 
BRANCH   4   5
HETATM    5  C6  UNL     1      26.845   5.242  48.805  1.00  0.00     0.062 A 
HETATM    6  C2  UNL     1      27.838   6.021  48.264  1.00  0.00    -0.029 A 
HETATM    7  C1  UNL     1      29.061   5.548  48.265  1.00  0.00     0.045 C 
HETATM    8  C3  UNL     1      27.687   7.268  47.708  1.00  0.00     0.011 A 
HETATM    9  C4  UNL     1      26.414   7.796  47.690  1.00  0.00     0.020 A 
HETATM   10  C5  UNL     1      25.417   7.020  48.231  1.00  0.00     0.117 A 
HETATM   11  N1  UNL     1      25.629   5.811  48.758  1.00  0.00    -0.261 NA
ENDBRANCH   4   5
ENDBRANCH   3   4
ENDBRANCH   2   3
ENDBRANCH   1   2
BRANCH   1  12
HETATM   12  C10 UNL     1      26.329   0.670  52.604  1.00  0.00     0.160 C 
HETATM   13  C11 UNL     1      25.296   0.594  53.671  1.00  0.00     0.045 C 
BRANCH  12  14
HETATM   14  C12 UNL     1      27.648   0.132  53.008  1.00  0.00     0.014 A 
HETATM   15  C13 UNL     1      28.697   0.863  53.524  1.00  0.00     0.044 A 
HETATM   16 CL1  UNL     1      28.448   2.581  53.726  1.00  0.00    -0.084 Cl
HETATM   17  C14 UNL     1      29.903   0.299  53.878  1.00  0.00     0.024 A 
HETATM   18  C15 UNL     1      30.041  -1.066  53.697  1.00  0.00     0.003 A 
HETATM   19  C16 UNL     1      29.008  -1.852  53.177  1.00  0.00     0.024 A 
HETATM   20  C17 UNL     1      27.811  -1.245  52.834  1.00  0.00     0.044 A 
HETATM   21 CL2  UNL     1      26.607  -2.358  52.192  1.00  0.00    -0.084 Cl
ENDBRANCH  12  14
ENDBRANCH   1  12
TORSDOF 6
ENDMDL
MODEL 4
REMARK VINA RESULT:      -6.8      1.843      3.820
REMARK  6 active torsions:
REMARK  status: ('A' for Active; 'I' for Inactive)
REMARK    1  A    between atoms: C6_7  and  C7_8 
REMARK    2  A    between atoms: C7_8  and  C8_9 
REMARK    3  A    between atoms: C8_9  and  C9_10 
REMARK    4  A    between atoms: C9_10  and  O1_11 
REMARK    5  A    between atoms: O1_11  and  C10_12 
REMARK    6  A    between atoms: C10_12  and  C12_14 
ROOT
HETATM    1  O1  UNL     1      24.291   3.232  49.584  1.00  0.00    -0.353 OA
ENDROOT
BRANCH   1   2
HETATM    2  C9  UNL     1      25.472   3.730  50.083  1.00  0.00     0.135 C 
BRANCH   2   3
HETATM    3  C8  UNL     1      26.607   3.094  50.392  1.00  0.00     0.026 C 
BRANCH   3   4
HETATM    4  C7  UNL     1      26.579   1.850  51.123  1.00  0.00     0.034 C 
BRANCH   4   5
HETATM    5  C6  UNL     1      27.249   1.508  52.198  1.00  0.00     0.062 A 
HETATM    6  C2  UNL     1      27.175   0.325  52.889  1.00  0.00    -0.029 A 
HETATM    7  C1  UNL     1      26.348  -0.595  52.450  1.00  0.00     0.045 C 
HETATM    8  C3  UNL     1      27.888  -0.011  54.014  1.00  0.00     0.011 A 
HETATM    9  C4  UNL     1      28.768   0.931  54.503  1.00  0.00     0.020 A 
HETATM   10  C5  UNL     1      28.845   2.118  53.814  1.00  0.00     0.117 A 
HETATM   11  N1  UNL     1      28.122   2.385  52.723  1.00  0.00    -0.261 NA
ENDBRANCH   4   5
ENDBRANCH   3   4
ENDBRANCH   2   3
ENDBRANCH   1   2
BRANCH   1  12
HETATM   12  C10 UNL     1      23.085   3.453  50.252  1.00  0.00     0.160 C 
HETATM   13  C11 UNL     1      23.024   4.750  50.976  1.00  0.00     0.045 C 
BRANCH  12  14
HETATM   14  C12 UNL     1      22.766   2.280  51.097  1.00  0.00     0.014 A 
HETATM   15  C13 UNL     1      23.165   2.091  52.403  1.00  0.00     0.044 A 
HETATM   16 CL1  UNL     1      24.131   3.351  53.132  1.00  0.00    -0.084 Cl
HETATM   17  C14 UNL     1      22.834   0.971  53.135  1.00  0.00     0.024 A 
HETATM   18  C15 UNL     1      22.066   0.007  52.505  1.00  0.00     0.003 A 
HETATM   19  C16 UNL     1      21.636   0.151  51.182  1.00  0.00     0.024 A 
HETATM   20  C17 UNL     1      21.991   1.292  50.482  1.00  0.00     0.044 A 
HETATM   21 CL2  UNL     1      21.381   1.333  48.831  1.00  0.00    -0.084 Cl
ENDBRANCH  12  14
ENDBRANCH   1  12
TORSDOF 6
ENDMDL
MODEL 5
REMARK VINA RESULT:      -6.8      2.071      3.778
REMARK  6 active torsions:
REMARK  status: ('A' for Active; 'I' for Inactive)
REMARK    1  A    between atoms: C6_7  and  C7_8 
REMARK    2  A    between atoms: C7_8  and  C8_9 
REMARK    3  A    between atoms: C8_9  and  C9_10 
REMARK    4  A    between atoms: C9_10  and  O1_11 
REMARK    5  A    between atoms: O1_11  and  C10_12 
REMARK    6  A    between atoms: C10_12  and  C12_14 
ROOT
HETATM    1  O1  UNL     1      22.760   2.423  52.615  1.00  0.00    -0.353 OA
ENDROOT
BRANCH   1   2
HETATM    2  C9  UNL     1      23.978   3.036  52.795  1.00  0.00     0.135 C 
BRANCH   2   3
HETATM    3  C8  UNL     1      25.067   2.604  53.439  1.00  0.00     0.026 C 
BRANCH   3   4
HETATM    4  C7  UNL     1      26.204   2.099  52.709  1.00  0.00     0.034 C 
BRANCH   4   5
HETATM    5  C6  UNL     1      27.201   1.361  53.138  1.00  0.00     0.062 A 
HETATM    6  C2  UNL     1      27.481   0.058  52.807  1.00  0.00    -0.029 A 
HETATM    7  C1  UNL     1      26.679  -0.550  51.966  1.00  0.00     0.045 C 
HETATM    8  C3  UNL     1      28.533  -0.695  53.270  1.00  0.00     0.011 A 
HETATM    9  C4  UNL     1      29.396  -0.087  54.156  1.00  0.00     0.020 A 
HETATM   10  C5  UNL     1      29.120   1.217  54.490  1.00  0.00     0.117 A 
HETATM   11  N1  UNL     1      28.078   1.897  54.003  1.00  0.00    -0.261 NA
ENDBRANCH   4   5
ENDBRANCH   3   4
ENDBRANCH   2   3
ENDBRANCH   1   2
BRANCH   1  12
HETATM   12  C10 UNL     1      22.669   1.200  51.947  1.00  0.00     0.160 C 
HETATM   13  C11 UNL     1      22.447   1.327  50.482  1.00  0.00     0.045 C 
BRANCH  12  14
HETATM   14  C12 UNL     1      21.680   0.336  52.630  1.00  0.00     0.014 A 
HETATM   15  C13 UNL     1      20.315   0.355  52.432  1.00  0.00     0.044 A 
HETATM   16 CL1  UNL     1      19.695   1.501  51.267  1.00  0.00    -0.084 Cl
HETATM   17  C14 UNL     1      19.447  -0.477  53.105  1.00  0.00     0.024 A 
HETATM   18  C15 UNL     1      19.997  -1.364  54.014  1.00  0.00     0.003 A 
HETATM   19  C16 UNL     1      21.373  -1.423  54.251  1.00  0.00     0.024 A 
HETATM   20  C17 UNL     1      22.211  -0.568  53.554  1.00  0.00     0.044 A 
HETATM   21 CL2  UNL     1      23.915  -0.755  53.957  1.00  0.00    -0.084 Cl
ENDBRANCH  12  14
ENDBRANCH   1  12
TORSDOF 6
ENDMDL
MODEL 6
REMARK VINA RESULT:      -6.8      1.029      2.269
REMARK  6 active torsions:
REMARK  status: ('A' for Active; 'I' for Inactive)
REMARK    1  A    between atoms: C6_7  and  C7_8 
REMARK    2  A    between atoms: C7_8  and  C8_9 
REMARK    3  A    between atoms: C8_9  and  C9_10 
REMARK    4  A    between atoms: C9_10  and  O1_11 
REMARK    5  A    between atoms: O1_11  and  C10_12 
REMARK    6  A    between atoms: C10_12  and  C12_14 
ROOT
HETATM    1  O1  UNL     1      22.033   0.047  52.472  1.00  0.00    -0.353 OA
ENDROOT
BRANCH   1   2
HETATM    2  C9  UNL     1      23.012  -0.624  53.166  1.00  0.00     0.135 C 
BRANCH   2   3
HETATM    3  C8  UNL     1      24.131  -0.161  53.732  1.00  0.00     0.026 C 
BRANCH   3   4
HETATM    4  C7  UNL     1      25.364  -0.100  52.985  1.00  0.00     0.034 C 
BRANCH   4   5
HETATM    5  C6  UNL     1      26.554   0.285  53.383  1.00  0.00     0.062 A 
HETATM    6  C2  UNL     1      27.363   1.233  52.808  1.00  0.00    -0.029 A 
HETATM    7  C1  UNL     1      26.926   1.845  51.733  1.00  0.00     0.045 C 
HETATM    8  C3  UNL     1      28.606   1.620  53.244  1.00  0.00     0.011 A 
HETATM    9  C4  UNL     1      29.096   0.998  54.372  1.00  0.00     0.020 A 
HETATM   10  C5  UNL     1      28.290   0.048  54.952  1.00  0.00     0.117 A 
HETATM   11  N1  UNL     1      27.086  -0.285  54.478  1.00  0.00    -0.261 NA
ENDBRANCH   4   5
ENDBRANCH   3   4
ENDBRANCH   2   3
ENDBRANCH   1   2
BRANCH   1  12
HETATM   12  C10 UNL     1      21.897   1.432  52.591  1.00  0.00     0.160 C 
HETATM   13  C11 UNL     1      20.502   1.883  52.837  1.00  0.00     0.045 C 
BRANCH  12  14
HETATM   14  C12 UNL     1      22.546   2.093  51.435  1.00  0.00     0.014 A 
HETATM   15  C13 UNL     1      23.546   3.040  51.502  1.00  0.00     0.044 A 
HETATM   16 CL1  UNL     1      24.102   3.501  53.093  1.00  0.00    -0.084 Cl
HETATM   17  C14 UNL     1      24.106   3.620  50.385  1.00  0.00     0.024 A 
HETATM   18  C15 UNL     1      23.625   3.215  49.152  1.00  0.00     0.003 A 
HETATM   19  C16 UNL     1      22.613   2.258  49.031  1.00  0.00     0.024 A 
HETATM   20  C17 UNL     1      22.076   1.700  50.179  1.00  0.00     0.044 A 
HETATM   21 CL2  UNL     1      20.811   0.514  49.870  1.00  0.00    -0.084 Cl
ENDBRANCH  12  14
ENDBRANCH   1  12
TORSDOF 6
ENDMDL
MODEL 7
REMARK VINA RESULT:      -6.8      2.786      3.957
REMARK  6 active torsions:
REMARK  status: ('A' for Active; 'I' for Inactive)
REMARK    1  A    between atoms: C6_7  and  C7_8 
REMARK    2  A    between atoms: C7_8  and  C8_9 
REMARK    3  A    between atoms: C8_9  and  C9_10 
REMARK    4  A    between atoms: C9_10  and  O1_11 
REMARK    5  A    between atoms: O1_11  and  C10_12 
REMARK    6  A    between atoms: C10_12  and  C12_14 
ROOT
HETATM    1  O1  UNL     1      25.134   3.694  51.509  1.00  0.00    -0.353 OA
ENDROOT
BRANCH   1   2
HETATM    2  C9  UNL     1      24.362   2.867  52.290  1.00  0.00     0.135 C 
BRANCH   2   3
HETATM    3  C8  UNL     1      24.568   1.599  52.659  1.00  0.00     0.026 C 
BRANCH   3   4
HETATM    4  C7  UNL     1      25.658   0.836  52.098  1.00  0.00     0.034 C 
BRANCH   4   5
HETATM    5  C6  UNL     1      26.841   0.586  52.609  1.00  0.00     0.062 A 
HETATM    6  C2  UNL     1      27.415  -0.641  52.830  1.00  0.00    -0.029 A 
HETATM    7  C1  UNL     1      26.728  -1.710  52.503  1.00  0.00     0.045 C 
HETATM    8  C3  UNL     1      28.657  -0.878  53.366  1.00  0.00     0.011 A 
HETATM    9  C4  UNL     1      29.407   0.224  53.720  1.00  0.00     0.020 A 
HETATM   10  C5  UNL     1      28.835   1.455  53.501  1.00  0.00     0.117 A 
HETATM   11  N1  UNL     1      27.619   1.619  52.974  1.00  0.00    -0.261 NA
ENDBRANCH   4   5
ENDBRANCH   3   4
ENDBRANCH   2   3
ENDBRANCH   1   2
BRANCH   1  12
HETATM   12  C10 UNL     1      24.545   4.552  50.579  1.00  0.00     0.160 C 
HETATM   13  C11 UNL     1      23.553   3.890  49.690  1.00  0.00     0.045 C 
BRANCH  12  14
HETATM   14  C12 UNL     1      25.600   5.294  49.851  1.00  0.00     0.014 A 
HETATM   15  C13 UNL     1      25.669   6.663  49.700  1.00  0.00     0.044 A 
HETATM   16 CL1  UNL     1      24.400   7.611  50.437  1.00  0.00    -0.084 Cl
HETATM   17  C14 UNL     1      26.681   7.292  49.007  1.00  0.00     0.024 A 
HETATM   18  C15 UNL     1      27.658   6.488  48.446  1.00  0.00     0.003 A 
HETATM   19  C16 UNL     1      27.633   5.096  48.570  1.00  0.00     0.024 A 
HETATM   20  C17 UNL     1      26.599   4.503  49.276  1.00  0.00     0.044 A 
HETATM   21 CL2  UNL     1      26.699   2.747  49.346  1.00  0.00    -0.084 Cl
ENDBRANCH  12  14
ENDBRANCH   1  12
TORSDOF 6
ENDMDL
MODEL 8
REMARK VINA RESULT:      -6.8      2.895      6.358
REMARK  6 active torsions:
REMARK  status: ('A' for Active; 'I' for Inactive)
REMARK    1  A    between atoms: C6_7  and  C7_8 
REMARK    2  A    between atoms: C7_8  and  C8_9 
REMARK    3  A    between atoms: C8_9  and  C9_10 
REMARK    4  A    between atoms: C9_10  and  O1_11 
REMARK    5  A    between atoms: O1_11  and  C10_12 
REMARK    6  A    between atoms: C10_12  and  C12_14 
ROOT
HETATM    1  O1  UNL     1      25.808   1.696  53.593  1.00  0.00    -0.353 OA
ENDROOT
BRANCH   1   2
HETATM    2  C9  UNL     1      24.775   2.587  53.421  1.00  0.00     0.135 C 
BRANCH   2   3
HETATM    3  C8  UNL     1      23.598   2.425  52.807  1.00  0.00     0.026 C 
BRANCH   3   4
HETATM    4  C7  UNL     1      23.152   1.115  52.401  1.00  0.00     0.034 C 
BRANCH   4   5
HETATM    5  C6  UNL     1      22.141   0.409  52.851  1.00  0.00     0.062 A 
HETATM    6  C2  UNL     1      22.162  -0.551  53.832  1.00  0.00    -0.029 A 
HETATM    7  C1  UNL     1      23.309  -0.818  54.409  1.00  0.00     0.045 C 
HETATM    8  C3  UNL     1      21.088  -1.277  54.288  1.00  0.00     0.011 A 
HETATM    9  C4  UNL     1      19.866  -1.021  53.704  1.00  0.00     0.020 A 
HETATM   10  C5  UNL     1      19.841  -0.061  52.721  1.00  0.00     0.117 A 
HETATM   11  N1  UNL     1      20.923   0.613  52.322  1.00  0.00    -0.261 NA
ENDBRANCH   4   5
ENDBRANCH   3   4
ENDBRANCH   2   3
ENDBRANCH   1   2
BRANCH   1  12
HETATM   12  C10 UNL     1      26.978   1.807  52.839  1.00  0.00     0.160 C 
HETATM   13  C11 UNL     1      26.745   2.100  51.400  1.00  0.00     0.045 C 
BRANCH  12  14
HETATM   14  C12 UNL     1      27.835   0.623  53.077  1.00  0.00     0.014 A 
HETATM   15  C13 UNL     1      27.519  -0.682  52.762  1.00  0.00     0.044 A 
HETATM   16 CL1  UNL     1      25.968  -0.966  52.008  1.00  0.00    -0.084 Cl
HETATM   17  C14 UNL     1      28.364  -1.741  53.014  1.00  0.00     0.024 A 
HETATM   18  C15 UNL     1      29.578  -1.454  53.612  1.00  0.00     0.003 A 
HETATM   19  C16 UNL     1      29.946  -0.148  53.951  1.00  0.00     0.024 A 
HETATM   20  C17 UNL     1      29.068   0.888  53.681  1.00  0.00     0.044 A 
HETATM   21 CL2  UNL     1      29.665   2.472  54.164  1.00  0.00    -0.084 Cl
ENDBRANCH  12  14
ENDBRANCH   1  12
TORSDOF 6
ENDMDL
MODEL 9
REMARK VINA RESULT:      -6.6      3.748      5.830
REMARK  6 active torsions:
REMARK  status: ('A' for Active; 'I' for Inactive)
REMARK    1  A    between atoms: C6_7  and  C7_8 
REMARK    2  A    between atoms: C7_8  and  C8_9 
REMARK    3  A    between atoms: C8_9  and  C9_10 
REMARK    4  A    between atoms: C9_10  and  O1_11 
REMARK    5  A    between atoms: O1_11  and  C10_12 
REMARK    6  A    between atoms: C10_12  and  C12_14 
ROOT
HETATM    1  O1  UNL     1      23.616   3.169  52.477  1.00  0.00    -0.353 OA
ENDROOT
BRANCH   1   2
HETATM    2  C9  UNL     1      23.234   4.285  51.770  1.00  0.00     0.135 C 
BRANCH   2   3
HETATM    3  C8  UNL     1      23.982   5.249  51.223  1.00  0.00     0.026 C 
BRANCH   3   4
HETATM    4  C7  UNL     1      24.425   5.151  49.853  1.00  0.00     0.034 C 
BRANCH   4   5
HETATM    5  C6  UNL     1      25.615   5.383  49.351  1.00  0.00     0.062 A 
HETATM    6  C2  UNL     1      26.634   4.483  49.162  1.00  0.00    -0.029 A 
HETATM    7  C1  UNL     1      26.428   3.236  49.512  1.00  0.00     0.045 C 
HETATM    8  C3  UNL     1      27.873   4.751  48.632  1.00  0.00     0.011 A 
HETATM    9  C4  UNL     1      28.124   6.052  48.252  1.00  0.00     0.020 A 
HETATM   10  C5  UNL     1      27.107   6.956  48.441  1.00  0.00     0.117 A 
HETATM   11  N1  UNL     1      25.920   6.633  48.962  1.00  0.00    -0.261 NA
ENDBRANCH   4   5
ENDBRANCH   3   4
ENDBRANCH   2   3
ENDBRANCH   1   2
BRANCH   1  12
HETATM   12  C10 UNL     1      23.474   1.893  51.927  1.00  0.00     0.160 C 
HETATM   13  C11 UNL     1      22.816   1.879  50.594  1.00  0.00     0.045 C 
BRANCH  12  14
HETATM   14  C12 UNL     1      22.839   0.995  52.918  1.00  0.00     0.014 A 
HETATM   15  C13 UNL     1      21.540   1.081  53.373  1.00  0.00     0.044 A 
HETATM   16 CL1  UNL     1      20.550   2.363  52.719  1.00  0.00    -0.084 Cl
HETATM   17  C14 UNL     1      21.010   0.211  54.301  1.00  0.00     0.024 A 
HETATM   18  C15 UNL     1      21.842  -0.785  54.783  1.00  0.00     0.003 A 
HETATM   19  C16 UNL     1      23.166  -0.915  54.354  1.00  0.00     0.024 A 
HETATM   20  C17 UNL     1      23.660  -0.020  53.419  1.00  0.00     0.044 A 
HETATM   21 CL2  UNL     1      25.340  -0.306  52.977  1.00  0.00    -0.084 Cl
ENDBRANCH  12  14
ENDBRANCH   1  12
TORSDOF 6
ENDMDL
