MODEL 1
REMARK VINA RESULT:      -8.8      0.000      0.000
REMARK  4 active torsions:
REMARK  status: ('A' for Active; 'I' for Inactive)
REMARK    1  A    between atoms: C6_8  and  C7_9 
REMARK    2  A    between atoms: C7_9  and  O3_11 
REMARK    3  A    between atoms: C12_17  and  N3_18 
REMARK    4  A    between atoms: N3_18  and  C13_19 
ROOT
HETATM    1  C1  UNL     1      23.980   2.458  51.013  1.00  0.00     0.180 C 
HETATM    2  N1  UNL     1      24.105   1.430  52.027  1.00  0.00    -0.270 NA
HETATM    3  C2  UNL     1      23.022   0.920  52.497  1.00  0.00     0.193 C 
HETATM    4  O1  UNL     1      21.740   1.331  52.055  1.00  0.00    -0.290 OA
HETATM    5  C3  UNL     1      20.525   0.618  52.188  1.00  0.00     0.086 A 
HETATM    6  C4  UNL     1      19.688   0.618  51.086  1.00  0.00     0.039 A 
HETATM    7  C5  UNL     1      18.493  -0.062  51.166  1.00  0.00     0.021 A 
HETATM    8  C6  UNL     1      18.185  -0.708  52.327  1.00  0.00     0.038 A 
HETATM    9  C8  UNL     1      19.035  -0.702  53.430  1.00  0.00     0.029 A 
HETATM   10  C9  UNL     1      20.254  -0.020  53.381  1.00  0.00    -0.006 A 
HETATM   11  C10 UNL     1      20.948  -0.171  54.676  1.00  0.00     0.161 C 
HETATM   12  N2  UNL     1      22.370  -0.426  54.561  1.00  0.00    -0.381 N 
HETATM   13  C11 UNL     1      23.299  -0.109  53.516  1.00  0.00     0.097 C 
HETATM   14  C12 UNL     1      24.408  -0.781  53.506  1.00  0.00     0.122 C 
HETATM   15  H10 UNL     1      22.771  -0.937  55.404  1.00  0.00     0.160 HD
ENDROOT
BRANCH  14  16
HETATM   16  N3  UNL     1      25.535  -0.754  52.652  1.00  0.00    -0.364 N 
HETATM   17  H12 UNL     1      25.419  -0.938  51.609  1.00  0.00     0.165 HD
BRANCH  16  18
HETATM   18  C13 UNL     1      26.879  -0.495  53.045  1.00  0.00     0.033 A 
HETATM   19  C14 UNL     1      27.638  -1.661  52.865  1.00  0.00     0.032 A 
HETATM   20  C15 UNL     1      28.987  -1.703  53.165  1.00  0.00     0.046 A 
HETATM   21  C16 UNL     1      29.622  -0.581  53.655  1.00  0.00     0.138 A 
HETATM   22  F1  UNL     1      30.940  -0.564  53.963  1.00  0.00    -0.204 F 
HETATM   23  C17 UNL     1      28.855   0.557  53.824  1.00  0.00     0.074 A 
HETATM   24 CL1  UNL     1      29.583   2.021  54.435  1.00  0.00    -0.081 Cl
HETATM   25  C18 UNL     1      27.509   0.605  53.527  1.00  0.00     0.056 A 
ENDBRANCH  16  18
ENDBRANCH  14  16
BRANCH   8  26
HETATM   26  C7  UNL     1      16.943  -1.464  52.521  1.00  0.00     0.176 C 
HETATM   27  O2  UNL     1      15.883  -1.288  51.850  1.00  0.00    -0.646 OA
BRANCH  26  28
HETATM   28  O3  UNL     1      16.724  -2.472  53.444  1.00  0.00    -0.773 OA
HETATM   29  H6  UNL     1      16.957  -3.452  53.275  1.00  0.00     0.167 HD
ENDBRANCH  26  28
ENDBRANCH   8  26
TORSDOF 4
ENDMDL
MODEL 2
REMARK VINA RESULT:      -8.6      3.809      5.347
REMARK  4 active torsions:
REMARK  status: ('A' for Active; 'I' for Inactive)
REMARK    1  A    between atoms: C6_8  and  C7_9 
REMARK    2  A    between atoms: C7_9  and  O3_11 
REMARK    3  A    between atoms: C12_17  and  N3_18 
REMARK    4  A    between atoms: N3_18  and  C13_19 
ROOT
HETATM    1  C1  UNL     1      26.105   1.547  52.798  1.00  0.00     0.180 C 
HETATM    2  N1  UNL     1      25.322   2.169  51.749  1.00  0.00    -0.270 NA
HETATM    3  C2  UNL     1      24.128   1.731  51.555  1.00  0.00     0.193 C 
HETATM    4  O1  UNL     1      23.575   0.680  52.327  1.00  0.00    -0.290 OA
HETATM    5  C3  UNL     1      22.203   0.371  52.486  1.00  0.00     0.086 A 
HETATM    6  C4  UNL     1      21.790   0.044  53.766  1.00  0.00     0.039 A 
HETATM    7  C5  UNL     1      20.463  -0.265  53.971  1.00  0.00     0.021 A 
HETATM    8  C6  UNL     1      19.612  -0.234  52.905  1.00  0.00     0.038 A 
HETATM    9  C8  UNL     1      20.039   0.096  51.622  1.00  0.00     0.029 A 
HETATM   10  C9  UNL     1      21.379   0.413  51.381  1.00  0.00    -0.006 A 
HETATM   11  C10 UNL     1      21.555   0.716  49.945  1.00  0.00     0.161 C 
HETATM   12  N2  UNL     1      22.406   1.860  49.681  1.00  0.00    -0.381 N 
HETATM   13  C11 UNL     1      23.451   2.452  50.462  1.00  0.00     0.097 C 
HETATM   14  C12 UNL     1      23.776   3.671  50.161  1.00  0.00     0.122 C 
HETATM   15  H10 UNL     1      22.201   2.323  48.744  1.00  0.00     0.160 HD
ENDROOT
BRANCH  14  16
HETATM   16  N3  UNL     1      24.731   4.567  50.697  1.00  0.00    -0.364 N 
HETATM   17  H12 UNL     1      24.777   4.732  51.749  1.00  0.00     0.165 HD
BRANCH  16  18
HETATM   18  C13 UNL     1      25.690   5.312  49.954  1.00  0.00     0.033 A 
HETATM   19  C14 UNL     1      26.602   4.422  49.367  1.00  0.00     0.032 A 
HETATM   20  C15 UNL     1      27.650   4.868  48.583  1.00  0.00     0.046 A 
HETATM   21  C16 UNL     1      27.820   6.218  48.358  1.00  0.00     0.138 A 
HETATM   22  F1  UNL     1      28.825   6.711  47.597  1.00  0.00    -0.204 F 
HETATM   23  C17 UNL     1      26.910   7.077  48.946  1.00  0.00     0.074 A 
HETATM   24 CL1  UNL     1      27.052   8.801  48.708  1.00  0.00    -0.081 Cl
HETATM   25  C18 UNL     1      25.863   6.639  49.730  1.00  0.00     0.056 A 
ENDBRANCH  16  18
ENDBRANCH  14  16
BRANCH   8  26
HETATM   26  C7  UNL     1      18.183  -0.542  53.011  1.00  0.00     0.176 C 
HETATM   27  O2  UNL     1      17.305  -0.178  52.173  1.00  0.00    -0.646 OA
BRANCH  26  28
HETATM   28  O3  UNL     1      17.565  -1.266  54.017  1.00  0.00    -0.773 OA
HETATM   29  H6  UNL     1      17.284  -0.861  54.911  1.00  0.00     0.167 HD
ENDBRANCH  26  28
ENDBRANCH   8  26
TORSDOF 4
ENDMDL
MODEL 3
REMARK VINA RESULT:      -8.6      5.046      7.366
REMARK  4 active torsions:
REMARK  status: ('A' for Active; 'I' for Inactive)
REMARK    1  A    between atoms: C6_8  and  C7_9 
REMARK    2  A    between atoms: C7_9  and  O3_11 
REMARK    3  A    between atoms: C12_17  and  N3_18 
REMARK    4  A    between atoms: N3_18  and  C13_19 
ROOT
HETATM    1  C1  UNL     1      26.412   3.710  49.858  1.00  0.00     0.180 C 
HETATM    2  N1  UNL     1      25.230   4.295  50.460  1.00  0.00    -0.270 NA
HETATM    3  C2  UNL     1      24.435   3.511  51.098  1.00  0.00     0.193 C 
HETATM    4  O1  UNL     1      24.683   2.121  51.222  1.00  0.00    -0.290 OA
HETATM    5  C3  UNL     1      24.131   1.240  52.183  1.00  0.00     0.086 A 
HETATM    6  C4  UNL     1      25.000   0.323  52.747  1.00  0.00     0.039 A 
HETATM    7  C5  UNL     1      24.509  -0.556  53.687  1.00  0.00     0.021 A 
HETATM    8  C6  UNL     1      23.189  -0.486  54.023  1.00  0.00     0.038 A 
HETATM    9  C8  UNL     1      22.324   0.441  53.447  1.00  0.00     0.029 A 
HETATM   10  C9  UNL     1      22.791   1.346  52.490  1.00  0.00    -0.006 A 
HETATM   11  C10 UNL     1      21.672   2.205  52.046  1.00  0.00     0.161 C 
HETATM   12  N2  UNL     1      22.019   3.604  51.904  1.00  0.00    -0.381 N 
HETATM   13  C11 UNL     1      23.280   4.238  51.656  1.00  0.00     0.097 C 
HETATM   14  C12 UNL     1      23.361   5.498  51.952  1.00  0.00     0.122 C 
HETATM   15  H10 UNL     1      21.181   4.253  52.006  1.00  0.00     0.160 HD
ENDROOT
BRANCH  14  16
HETATM   16  N3  UNL     1      24.414   6.438  51.855  1.00  0.00    -0.364 N 
HETATM   17  H12 UNL     1      25.155   6.490  52.620  1.00  0.00     0.165 HD
BRANCH  16  18
HETATM   18  C13 UNL     1      24.611   7.371  50.798  1.00  0.00     0.033 A 
HETATM   19  C14 UNL     1      23.360   7.748  50.287  1.00  0.00     0.032 A 
HETATM   20  C15 UNL     1      23.243   8.652  49.246  1.00  0.00     0.046 A 
HETATM   21  C16 UNL     1      24.372   9.207  48.682  1.00  0.00     0.138 A 
HETATM   22  F1  UNL     1      24.318  10.097  47.665  1.00  0.00    -0.204 F 
HETATM   23  C17 UNL     1      25.595   8.821  49.202  1.00  0.00     0.074 A 
HETATM   24 CL1  UNL     1      27.072   9.481  48.548  1.00  0.00    -0.081 Cl
HETATM   25  C18 UNL     1      25.718   7.921  50.240  1.00  0.00     0.056 A 
ENDBRANCH  16  18
ENDBRANCH  14  16
BRANCH   8  26
HETATM   26  C7  UNL     1      22.564  -1.370  55.011  1.00  0.00     0.176 C 
HETATM   27  O2  UNL     1      21.337  -1.690  55.016  1.00  0.00    -0.646 OA
BRANCH  26  28
HETATM   28  O3  UNL     1      23.190  -1.991  56.079  1.00  0.00    -0.773 OA
HETATM   29  H6  UNL     1      22.809  -2.807  56.558  1.00  0.00     0.167 HD
ENDBRANCH  26  28
ENDBRANCH   8  26
TORSDOF 4
ENDMDL
MODEL 4
REMARK VINA RESULT:      -8.2      1.666      2.214
REMARK  4 active torsions:
REMARK  status: ('A' for Active; 'I' for Inactive)
REMARK    1  A    between atoms: C6_8  and  C7_9 
REMARK    2  A    between atoms: C7_9  and  O3_11 
REMARK    3  A    between atoms: C12_17  and  N3_18 
REMARK    4  A    between atoms: N3_18  and  C13_19 
ROOT
HETATM    1  C1  UNL     1      23.788   4.430  51.538  1.00  0.00     0.180 C 
HETATM    2  N1  UNL     1      23.864   3.145  52.204  1.00  0.00    -0.270 NA
HETATM    3  C2  UNL     1      22.792   2.438  52.261  1.00  0.00     0.193 C 
HETATM    4  O1  UNL     1      21.567   2.877  51.700  1.00  0.00    -0.290 OA
HETATM    5  C3  UNL     1      20.453   2.075  51.354  1.00  0.00     0.086 A 
HETATM    6  C4  UNL     1      19.835   2.366  50.151  1.00  0.00     0.039 A 
HETATM    7  C5  UNL     1      18.745   1.613  49.772  1.00  0.00     0.021 A 
HETATM    8  C6  UNL     1      18.322   0.613  50.597  1.00  0.00     0.038 A 
HETATM    9  C8  UNL     1      18.952   0.329  51.806  1.00  0.00     0.029 A 
HETATM   10  C9  UNL     1      20.059   1.076  52.220  1.00  0.00    -0.006 A 
HETATM   11  C10 UNL     1      20.523   0.570  53.529  1.00  0.00     0.161 C 
HETATM   12  N2  UNL     1      21.963   0.466  53.646  1.00  0.00    -0.381 N 
HETATM   13  C11 UNL     1      23.014   1.162  52.964  1.00  0.00     0.097 C 
HETATM   14  C12 UNL     1      24.186   0.606  52.991  1.00  0.00     0.122 C 
HETATM   15  H10 UNL     1      22.270  -0.257  54.366  1.00  0.00     0.160 HD
ENDROOT
BRANCH  14  16
HETATM   16  N3  UNL     1      25.435   0.981  52.442  1.00  0.00    -0.364 N 
HETATM   17  H12 UNL     1      25.486   1.758  51.714  1.00  0.00     0.165 HD
BRANCH  16  18
HETATM   18  C13 UNL     1      26.698   0.411  52.766  1.00  0.00     0.033 A 
HETATM   19  C14 UNL     1      27.590   1.441  53.099  1.00  0.00     0.032 A 
HETATM   20  C15 UNL     1      28.899   1.180  53.460  1.00  0.00     0.046 A 
HETATM   21  C16 UNL     1      29.360  -0.119  53.500  1.00  0.00     0.138 A 
HETATM   22  F1  UNL     1      30.629  -0.433  53.848  1.00  0.00    -0.204 F 
HETATM   23  C17 UNL     1      28.464  -1.119  53.168  1.00  0.00     0.074 A 
HETATM   24 CL1  UNL     1      28.967  -2.790  53.197  1.00  0.00    -0.081 Cl
HETATM   25  C18 UNL     1      27.157  -0.865  52.807  1.00  0.00     0.056 A 
ENDBRANCH  16  18
ENDBRANCH  14  16
BRANCH   8  26
HETATM   26  C7  UNL     1      17.177  -0.250  50.290  1.00  0.00     0.176 C 
HETATM   27  O2  UNL     1      16.489  -0.867  51.157  1.00  0.00    -0.646 OA
BRANCH  26  28
HETATM   28  O3  UNL     1      16.664  -0.528  49.034  1.00  0.00    -0.773 OA
HETATM   29  H6  UNL     1      15.700  -0.332  48.763  1.00  0.00     0.167 HD
ENDBRANCH  26  28
ENDBRANCH   8  26
TORSDOF 4
ENDMDL
MODEL 5
REMARK VINA RESULT:      -8.2      6.454     10.058
REMARK  4 active torsions:
REMARK  status: ('A' for Active; 'I' for Inactive)
REMARK    1  A    between atoms: C6_8  and  C7_9 
REMARK    2  A    between atoms: C7_9  and  O3_11 
REMARK    3  A    between atoms: C12_17  and  N3_18 
REMARK    4  A    between atoms: N3_18  and  C13_19 
ROOT
HETATM    1  C1  UNL     1      23.033   5.869  49.067  1.00  0.00     0.180 C 
HETATM    2  N1  UNL     1      24.209   5.044  49.257  1.00  0.00    -0.270 NA
HETATM    3  C2  UNL     1      25.359   5.597  49.094  1.00  0.00     0.193 C 
HETATM    4  O1  UNL     1      25.497   6.963  48.743  1.00  0.00    -0.290 OA
HETATM    5  C3  UNL     1      26.646   7.773  48.907  1.00  0.00     0.086 A 
HETATM    6  C4  UNL     1      26.432   9.057  49.375  1.00  0.00     0.039 A 
HETATM    7  C5  UNL     1      27.520   9.883  49.551  1.00  0.00     0.021 A 
HETATM    8  C6  UNL     1      28.762   9.401  49.258  1.00  0.00     0.038 A 
HETATM    9  C8  UNL     1      28.965   8.107  48.786  1.00  0.00     0.029 A 
HETATM   10  C9  UNL     1      27.882   7.244  48.596  1.00  0.00    -0.006 A 
HETATM   11  C10 UNL     1      28.377   5.947  48.089  1.00  0.00     0.161 C 
HETATM   12  N2  UNL     1      27.744   4.794  48.696  1.00  0.00    -0.381 N 
HETATM   13  C11 UNL     1      26.461   4.645  49.317  1.00  0.00     0.097 C 
HETATM   14  C12 UNL     1      26.314   3.620  50.099  1.00  0.00     0.122 C 
HETATM   15  H10 UNL     1      28.354   3.921  48.665  1.00  0.00     0.160 HD
ENDROOT
BRANCH  14  16
HETATM   16  N3  UNL     1      25.224   3.155  50.871  1.00  0.00    -0.364 N 
HETATM   17  H12 UNL     1      24.313   3.708  50.896  1.00  0.00     0.165 HD
BRANCH  16  18
HETATM   18  C13 UNL     1      25.201   1.971  51.662  1.00  0.00     0.033 A 
HETATM   19  C14 UNL     1      26.476   1.385  51.640  1.00  0.00     0.032 A 
HETATM   20  C15 UNL     1      26.750   0.217  52.326  1.00  0.00     0.046 A 
HETATM   21  C16 UNL     1      25.760  -0.405  53.057  1.00  0.00     0.138 A 
HETATM   22  F1  UNL     1      25.971  -1.548  53.749  1.00  0.00    -0.204 F 
HETATM   23  C17 UNL     1      24.511   0.189  53.065  1.00  0.00     0.074 A 
HETATM   24 CL1  UNL     1      23.203  -0.531  53.969  1.00  0.00    -0.081 Cl
HETATM   25  C18 UNL     1      24.231   1.355  52.382  1.00  0.00     0.056 A 
ENDBRANCH  16  18
ENDBRANCH  14  16
BRANCH   8  26
HETATM   26  C7  UNL     1      29.987  10.193  49.411  1.00  0.00     0.176 C 
HETATM   27  O2  UNL     1      30.413  11.030  48.560  1.00  0.00    -0.646 OA
BRANCH  26  28
HETATM   28  O3  UNL     1      30.862  10.162  50.483  1.00  0.00    -0.773 OA
HETATM   29  H6  UNL     1      31.698  10.745  50.545  1.00  0.00     0.167 HD
ENDBRANCH  26  28
ENDBRANCH   8  26
TORSDOF 4
ENDMDL
MODEL 6
REMARK VINA RESULT:      -8.1      5.337      8.812
REMARK  4 active torsions:
REMARK  status: ('A' for Active; 'I' for Inactive)
REMARK    1  A    between atoms: C6_8  and  C7_9 
REMARK    2  A    between atoms: C7_9  and  O3_11 
REMARK    3  A    between atoms: C12_17  and  N3_18 
REMARK    4  A    between atoms: N3_18  and  C13_19 
ROOT
HETATM    1  C1  UNL     1      21.833   3.725  48.557  1.00  0.00     0.180 C 
HETATM    2  N1  UNL     1      23.046   3.237  49.181  1.00  0.00    -0.270 NA
HETATM    3  C2  UNL     1      24.070   4.016  49.187  1.00  0.00     0.193 C 
HETATM    4  O1  UNL     1      24.037   5.310  48.611  1.00  0.00    -0.290 OA
HETATM    5  C3  UNL     1      24.921   6.383  48.875  1.00  0.00     0.086 A 
HETATM    6  C4  UNL     1      24.347   7.635  49.010  1.00  0.00     0.039 A 
HETATM    7  C5  UNL     1      25.168   8.711  49.268  1.00  0.00     0.021 A 
HETATM    8  C6  UNL     1      26.510   8.498  49.380  1.00  0.00     0.038 A 
HETATM    9  C8  UNL     1      27.077   7.233  49.241  1.00  0.00     0.029 A 
HETATM   10  C9  UNL     1      26.272   6.122  48.978  1.00  0.00    -0.006 A 
HETATM   11  C10 UNL     1      27.124   4.919  48.875  1.00  0.00     0.161 C 
HETATM   12  N2  UNL     1      26.580   3.749  49.535  1.00  0.00    -0.381 N 
HETATM   13  C11 UNL     1      25.228   3.393  49.852  1.00  0.00     0.097 C 
HETATM   14  C12 UNL     1      25.069   2.488  50.767  1.00  0.00     0.122 C 
HETATM   15  H10 UNL     1      27.329   3.049  49.826  1.00  0.00     0.160 HD
ENDROOT
BRANCH  14  16
HETATM   16  N3  UNL     1      23.918   1.896  51.337  1.00  0.00    -0.364 N 
HETATM   17  H12 UNL     1      22.950   2.151  50.971  1.00  0.00     0.165 HD
BRANCH  16  18
HETATM   18  C13 UNL     1      23.901   0.949  52.400  1.00  0.00     0.033 A 
HETATM   19  C14 UNL     1      25.174   0.902  52.987  1.00  0.00     0.032 A 
HETATM   20  C15 UNL     1      25.453   0.064  54.051  1.00  0.00     0.046 A 
HETATM   21  C16 UNL     1      24.468  -0.753  54.565  1.00  0.00     0.138 A 
HETATM   22  F1  UNL     1      24.682  -1.591  55.606  1.00  0.00    -0.204 F 
HETATM   23  C17 UNL     1      23.220  -0.691  53.971  1.00  0.00     0.074 A 
HETATM   24 CL1  UNL     1      21.917  -1.690  54.562  1.00  0.00    -0.081 Cl
HETATM   25  C18 UNL     1      22.936   0.142  52.908  1.00  0.00     0.056 A 
ENDBRANCH  16  18
ENDBRANCH  14  16
BRANCH   8  26
HETATM   26  C7  UNL     1      27.473   9.569  49.655  1.00  0.00     0.176 C 
HETATM   27  O2  UNL     1      27.258  10.800  49.445  1.00  0.00    -0.646 OA
BRANCH  26  28
HETATM   28  O3  UNL     1      28.746   9.422  50.180  1.00  0.00    -0.773 OA
HETATM   29  H6  UNL     1      29.298   8.568  50.088  1.00  0.00     0.167 HD
ENDBRANCH  26  28
ENDBRANCH   8  26
TORSDOF 4
ENDMDL
MODEL 7
REMARK VINA RESULT:      -7.9      8.572     10.782
REMARK  4 active torsions:
REMARK  status: ('A' for Active; 'I' for Inactive)
REMARK    1  A    between atoms: C6_8  and  C7_9 
REMARK    2  A    between atoms: C7_9  and  O3_11 
REMARK    3  A    between atoms: C12_17  and  N3_18 
REMARK    4  A    between atoms: N3_18  and  C13_19 
ROOT
HETATM    1  C1  UNL     1      29.437   8.982  45.213  1.00  0.00     0.180 C 
HETATM    2  N1  UNL     1      29.963   9.101  46.559  1.00  0.00    -0.270 NA
HETATM    3  C2  UNL     1      29.145   8.928  47.536  1.00  0.00     0.193 C 
HETATM    4  O1  UNL     1      27.774   8.632  47.331  1.00  0.00    -0.290 OA
HETATM    5  C3  UNL     1      26.879   8.054  48.263  1.00  0.00     0.086 A 
HETATM    6  C4  UNL     1      26.025   7.082  47.773  1.00  0.00     0.039 A 
HETATM    7  C5  UNL     1      25.134   6.490  48.642  1.00  0.00     0.021 A 
HETATM    8  C6  UNL     1      25.133   6.885  49.948  1.00  0.00     0.038 A 
HETATM    9  C8  UNL     1      25.998   7.865  50.429  1.00  0.00     0.029 A 
HETATM   10  C9  UNL     1      26.912   8.485  49.573  1.00  0.00    -0.006 A 
HETATM   11  C10 UNL     1      27.696   9.479  50.336  1.00  0.00     0.161 C 
HETATM   12  N2  UNL     1      29.111   9.485  50.023  1.00  0.00    -0.381 N 
HETATM   13  C11 UNL     1      29.812   9.077  48.842  1.00  0.00     0.097 C 
HETATM   14  C12 UNL     1      31.080   8.839  48.978  1.00  0.00     0.122 C 
HETATM   15  H10 UNL     1      29.711   9.858  50.820  1.00  0.00     0.160 HD
ENDROOT
BRANCH  14  16
HETATM   16  N3  UNL     1      32.078   8.422  48.066  1.00  0.00    -0.364 N 
HETATM   17  H12 UNL     1      32.422   9.089  47.309  1.00  0.00     0.165 HD
BRANCH  16  18
HETATM   18  C13 UNL     1      32.711   7.147  48.040  1.00  0.00     0.033 A 
HETATM   19  C14 UNL     1      34.045   7.294  48.448  1.00  0.00     0.032 A 
HETATM   20  C15 UNL     1      34.905   6.213  48.521  1.00  0.00     0.046 A 
HETATM   21  C16 UNL     1      34.460   4.951  48.188  1.00  0.00     0.138 A 
HETATM   22  F1  UNL     1      35.256   3.858  48.243  1.00  0.00    -0.204 F 
HETATM   23  C17 UNL     1      33.141   4.829  47.789  1.00  0.00     0.074 A 
HETATM   24 CL1  UNL     1      32.498   3.266  47.356  1.00  0.00    -0.081 Cl
HETATM   25  C18 UNL     1      32.279   5.903  47.714  1.00  0.00     0.056 A 
ENDBRANCH  16  18
ENDBRANCH  14  16
BRANCH   8  26
HETATM   26  C7  UNL     1      24.232   6.321  50.956  1.00  0.00     0.176 C 
HETATM   27  O2  UNL     1      23.279   5.524  50.704  1.00  0.00    -0.646 OA
BRANCH  26  28
HETATM   28  O3  UNL     1      24.267   6.555  52.321  1.00  0.00    -0.773 OA
HETATM   29  H6  UNL     1      23.963   5.873  53.017  1.00  0.00     0.167 HD
ENDBRANCH  26  28
ENDBRANCH   8  26
TORSDOF 4
ENDMDL
MODEL 8
REMARK VINA RESULT:      -7.8      4.707      6.165
REMARK  4 active torsions:
REMARK  status: ('A' for Active; 'I' for Inactive)
REMARK    1  A    between atoms: C6_8  and  C7_9 
REMARK    2  A    between atoms: C7_9  and  O3_11 
REMARK    3  A    between atoms: C12_17  and  N3_18 
REMARK    4  A    between atoms: N3_18  and  C13_19 
ROOT
HETATM    1  C1  UNL     1      22.977   6.545  50.828  1.00  0.00     0.180 C 
HETATM    2  N1  UNL     1      24.073   5.600  50.747  1.00  0.00    -0.270 NA
HETATM    3  C2  UNL     1      23.946   4.483  51.371  1.00  0.00     0.193 C 
HETATM    4  O1  UNL     1      22.785   4.162  52.117  1.00  0.00    -0.290 OA
HETATM    5  C3  UNL     1      22.356   2.873  52.513  1.00  0.00     0.086 A 
HETATM    6  C4  UNL     1      21.004   2.609  52.386  1.00  0.00     0.039 A 
HETATM    7  C5  UNL     1      20.538   1.367  52.759  1.00  0.00     0.021 A 
HETATM    8  C6  UNL     1      21.428   0.450  53.236  1.00  0.00     0.038 A 
HETATM    9  C8  UNL     1      22.787   0.728  53.360  1.00  0.00     0.029 A 
HETATM   10  C9  UNL     1      23.291   1.979  52.991  1.00  0.00    -0.006 A 
HETATM   11  C10 UNL     1      24.749   2.003  53.228  1.00  0.00     0.161 C 
HETATM   12  N2  UNL     1      25.511   2.637  52.170  1.00  0.00    -0.381 N 
HETATM   13  C11 UNL     1      25.132   3.624  51.202  1.00  0.00     0.097 C 
HETATM   14  C12 UNL     1      25.889   3.725  50.155  1.00  0.00     0.122 C 
HETATM   15  H10 UNL     1      26.518   2.295  52.121  1.00  0.00     0.160 HD
ENDROOT
BRANCH  14  16
HETATM   16  N3  UNL     1      25.835   4.557  49.012  1.00  0.00    -0.364 N 
HETATM   17  H12 UNL     1      25.012   4.487  48.338  1.00  0.00     0.165 HD
BRANCH  16  18
HETATM   18  C13 UNL     1      26.804   5.531  48.637  1.00  0.00     0.033 A 
HETATM   19  C14 UNL     1      28.060   4.911  48.547  1.00  0.00     0.032 A 
HETATM   20  C15 UNL     1      29.195   5.619  48.198  1.00  0.00     0.046 A 
HETATM   21  C16 UNL     1      29.114   6.968  47.927  1.00  0.00     0.138 A 
HETATM   22  F1  UNL     1      30.191   7.710  47.578  1.00  0.00    -0.204 F 
HETATM   23  C17 UNL     1      27.867   7.559  48.022  1.00  0.00     0.074 A 
HETATM   24 CL1  UNL     1      27.676   9.262  47.690  1.00  0.00    -0.081 Cl
HETATM   25  C18 UNL     1      26.730   6.858  48.370  1.00  0.00     0.056 A 
ENDBRANCH  16  18
ENDBRANCH  14  16
BRANCH   8  26
HETATM   26  C7  UNL     1      21.042  -0.899  53.658  1.00  0.00     0.176 C 
HETATM   27  O2  UNL     1      21.847  -1.869  53.794  1.00  0.00    -0.646 OA
BRANCH  26  28
HETATM   28  O3  UNL     1      19.765  -1.334  53.973  1.00  0.00    -0.773 OA
HETATM   29  H6  UNL     1      19.444  -1.494  54.929  1.00  0.00     0.167 HD
ENDBRANCH  26  28
ENDBRANCH   8  26
TORSDOF 4
ENDMDL
MODEL 9
REMARK VINA RESULT:      -7.8      5.714      7.970
REMARK  4 active torsions:
REMARK  status: ('A' for Active; 'I' for Inactive)
REMARK    1  A    between atoms: C6_8  and  C7_9 
REMARK    2  A    between atoms: C7_9  and  O3_11 
REMARK    3  A    between atoms: C12_17  and  N3_18 
REMARK    4  A    between atoms: N3_18  and  C13_19 
ROOT
HETATM    1  C1  UNL     1      22.686   3.569  48.180  1.00  0.00     0.180 C 
HETATM    2  N1  UNL     1      23.169   4.600  49.077  1.00  0.00    -0.270 NA
HETATM    3  C2  UNL     1      23.589   4.233  50.236  1.00  0.00     0.193 C 
HETATM    4  O1  UNL     1      23.591   2.876  50.644  1.00  0.00    -0.290 OA
HETATM    5  C3  UNL     1      24.353   2.302  51.689  1.00  0.00     0.086 A 
HETATM    6  C4  UNL     1      24.933   1.073  51.425  1.00  0.00     0.039 A 
HETATM    7  C5  UNL     1      25.684   0.474  52.412  1.00  0.00     0.021 A 
HETATM    8  C6  UNL     1      25.826   1.116  53.607  1.00  0.00     0.038 A 
HETATM    9  C8  UNL     1      25.238   2.352  53.862  1.00  0.00     0.029 A 
HETATM   10  C9  UNL     1      24.469   2.986  52.882  1.00  0.00    -0.006 A 
HETATM   11  C10 UNL     1      23.965   4.269  53.414  1.00  0.00     0.161 C 
HETATM   12  N2  UNL     1      24.034   5.369  52.474  1.00  0.00    -0.381 N 
HETATM   13  C11 UNL     1      24.048   5.379  51.040  1.00  0.00     0.097 C 
HETATM   14  C12 UNL     1      24.494   6.459  50.476  1.00  0.00     0.122 C 
HETATM   15  H10 UNL     1      24.084   6.320  52.949  1.00  0.00     0.160 HD
ENDROOT
BRANCH  14  16
HETATM   16  N3  UNL     1      24.661   6.830  49.121  1.00  0.00    -0.364 N 
HETATM   17  H12 UNL     1      23.808   6.984  48.501  1.00  0.00     0.165 HD
BRANCH  16  18
HETATM   18  C13 UNL     1      25.903   7.034  48.454  1.00  0.00     0.033 A 
HETATM   19  C14 UNL     1      26.795   6.020  48.835  1.00  0.00     0.032 A 
HETATM   20  C15 UNL     1      28.084   5.963  48.340  1.00  0.00     0.046 A 
HETATM   21  C16 UNL     1      28.526   6.917  47.448  1.00  0.00     0.138 A 
HETATM   22  F1  UNL     1      29.775   6.911  46.929  1.00  0.00    -0.204 F 
HETATM   23  C17 UNL     1      27.630   7.908  47.086  1.00  0.00     0.074 A 
HETATM   24 CL1  UNL     1      28.107   9.151  45.958  1.00  0.00    -0.081 Cl
HETATM   25  C18 UNL     1      26.342   7.970  47.577  1.00  0.00     0.056 A 
ENDBRANCH  16  18
ENDBRANCH  14  16
BRANCH   8  26
HETATM   26  C7  UNL     1      26.605   0.571  54.723  1.00  0.00     0.176 C 
HETATM   27  O2  UNL     1      26.185  -0.311  55.530  1.00  0.00    -0.646 OA
BRANCH  26  28
HETATM   28  O3  UNL     1      27.899   0.918  55.076  1.00  0.00    -0.773 OA
HETATM   29  H6  UNL     1      28.476   1.564  54.536  1.00  0.00     0.167 HD
ENDBRANCH  26  28
ENDBRANCH   8  26
TORSDOF 4
ENDMDL
