MODEL 1
REMARK VINA RESULT:      -7.0      0.000      0.000
REMARK  1 active torsions:
REMARK  status: ('A' for Active; 'I' for Inactive)
REMARK    1  A    between atoms: C6_8  and  S1_9 
ROOT
HETATM    1  N1  UNL     1      19.023   3.463  52.221  1.00  0.00    -0.191 NA
HETATM    2  C1  UNL     1      20.075   3.036  52.036  1.00  0.00     0.105 C 
HETATM    3  C2  UNL     1      21.381   2.532  51.802  1.00  0.00     0.107 C 
HETATM    4  C3  UNL     1      22.482   3.318  51.534  1.00  0.00     0.143 C 
HETATM    5  N2  UNL     1      23.889   2.814  51.391  1.00  0.00    -0.267 NA
HETATM    6  C4  UNL     1      24.421   1.921  52.222  1.00  0.00     0.273 C 
HETATM    7  C5  UNL     1      23.576   0.672  52.149  1.00  0.00     0.095 C 
HETATM    8  C6  UNL     1      24.039   0.059  53.225  1.00  0.00     0.042 C 
HETATM    9  C9  UNL     1      23.146  -0.588  54.231  1.00  0.00     0.050 C 
HETATM   10 CL1  UNL     1      24.288  -1.230  55.360  1.00  0.00    -0.083 Cl
HETATM   11  C10 UNL     1      21.802  -0.691  54.348  1.00  0.00     0.018 C 
HETATM   12  C11 UNL     1      20.516  -0.338  53.786  1.00  0.00     0.150 C 
HETATM   13  N4  UNL     1      20.380   0.777  52.901  1.00  0.00    -0.370 N 
HETATM   14  C12 UNL     1      21.376   1.046  51.938  1.00  0.00     0.146 C 
HETATM   15  N5  UNL     1      22.370   0.354  51.220  1.00  0.00    -0.227 NA
HETATM   16  H10 UNL     1      19.744   1.526  52.708  1.00  0.00     0.161 HD
ENDROOT
BRANCH   8  17
HETATM   17  S1  UNL     1      25.734   0.367  53.249  1.00  0.00    -0.153 SA
HETATM   18  N3  UNL     1      26.466  -1.085  53.057  1.00  0.00    -0.191 NA
HETATM   19  C7  UNL     1      27.871  -0.849  53.070  1.00  0.00     0.195 C 
HETATM   20  S2  UNL     1      28.097   0.017  54.647  1.00  0.00    -0.143 SA
HETATM   21  C8  UNL     1      26.372   0.508  54.958  1.00  0.00     0.142 C 
ENDBRANCH   8  17
TORSDOF 1
ENDMDL
MODEL 2
REMARK VINA RESULT:      -6.9      2.713      5.917
REMARK  1 active torsions:
REMARK  status: ('A' for Active; 'I' for Inactive)
REMARK    1  A    between atoms: C6_8  and  S1_9 
ROOT
HETATM    1  N1  UNL     1      28.982  -1.745  53.833  1.00  0.00    -0.191 NA
HETATM    2  C1  UNL     1      28.380  -0.787  53.625  1.00  0.00     0.105 C 
HETATM    3  C2  UNL     1      27.654   0.401  53.352  1.00  0.00     0.107 C 
HETATM    4  C3  UNL     1      27.954   1.280  52.332  1.00  0.00     0.143 C 
HETATM    5  N2  UNL     1      27.137   2.483  51.959  1.00  0.00    -0.267 NA
HETATM    6  C4  UNL     1      25.809   2.451  51.873  1.00  0.00     0.273 C 
HETATM    7  C5  UNL     1      25.275   2.052  53.227  1.00  0.00     0.095 C 
HETATM    8  C6  UNL     1      24.034   1.769  52.873  1.00  0.00     0.042 C 
HETATM    9  C9  UNL     1      23.326   0.536  53.330  1.00  0.00     0.050 C 
HETATM   10 CL1  UNL     1      21.773   0.722  52.592  1.00  0.00    -0.083 Cl
HETATM   11  C10 UNL     1      23.697  -0.518  54.093  1.00  0.00     0.018 C 
HETATM   12  C11 UNL     1      24.768  -1.144  54.837  1.00  0.00     0.150 C 
HETATM   13  N4  UNL     1      26.136  -0.817  54.578  1.00  0.00    -0.370 N 
HETATM   14  C12 UNL     1      26.507   0.516  54.299  1.00  0.00     0.146 C 
HETATM   15  N5  UNL     1      26.046   1.821  54.559  1.00  0.00    -0.227 NA
HETATM   16  H10 UNL     1      27.030  -1.263  54.515  1.00  0.00     0.161 HD
ENDROOT
BRANCH   8  17
HETATM   17  S1  UNL     1      23.594   2.959  51.708  1.00  0.00    -0.153 SA
HETATM   18  N3  UNL     1      22.309   3.758  52.333  1.00  0.00    -0.191 NA
HETATM   19  C7  UNL     1      21.933   4.752  51.383  1.00  0.00     0.195 C 
HETATM   20  S2  UNL     1      21.677   3.767  49.882  1.00  0.00    -0.143 SA
HETATM   21  C8  UNL     1      22.559   2.253  50.375  1.00  0.00     0.142 C 
ENDBRANCH   8  17
TORSDOF 1
ENDMDL
MODEL 3
REMARK VINA RESULT:      -6.7      3.252      5.876
REMARK  1 active torsions:
REMARK  status: ('A' for Active; 'I' for Inactive)
REMARK    1  A    between atoms: C6_8  and  S1_9 
ROOT
HETATM    1  N1  UNL     1      27.774  -0.777  54.122  1.00  0.00    -0.191 NA
HETATM    2  C1  UNL     1      27.222   0.075  53.581  1.00  0.00     0.105 C 
HETATM    3  C2  UNL     1      26.560   1.131  52.901  1.00  0.00     0.107 C 
HETATM    4  C3  UNL     1      27.118   1.867  51.877  1.00  0.00     0.143 C 
HETATM    5  N2  UNL     1      26.402   2.913  51.074  1.00  0.00    -0.267 NA
HETATM    6  C4  UNL     1      25.166   2.741  50.608  1.00  0.00     0.273 C 
HETATM    7  C5  UNL     1      24.262   2.506  51.794  1.00  0.00     0.095 C 
HETATM    8  C6  UNL     1      23.203   2.053  51.145  1.00  0.00     0.042 C 
HETATM    9  C9  UNL     1      22.445   0.843  51.584  1.00  0.00     0.050 C 
HETATM   10 CL1  UNL     1      21.187   0.763  50.401  1.00  0.00    -0.083 Cl
HETATM   11  C10 UNL     1      22.612  -0.039  52.596  1.00  0.00     0.018 C 
HETATM   12  C11 UNL     1      23.431  -0.437  53.721  1.00  0.00     0.150 C 
HETATM   13  N4  UNL     1      24.796  -0.023  53.821  1.00  0.00    -0.370 N 
HETATM   14  C12 UNL     1      25.175   1.280  53.433  1.00  0.00     0.146 C 
HETATM   15  N5  UNL     1      24.598   2.559  53.311  1.00  0.00    -0.227 NA
HETATM   16  H10 UNL     1      25.686  -0.386  54.104  1.00  0.00     0.161 HD
ENDROOT
BRANCH   8  17
HETATM   17  S1  UNL     1      23.087   3.001  49.712  1.00  0.00    -0.153 SA
HETATM   18  N3  UNL     1      21.700   3.861  49.842  1.00  0.00    -0.191 NA
HETATM   19  C7  UNL     1      21.590   4.657  48.665  1.00  0.00     0.195 C 
HETATM   20  S2  UNL     1      21.700   3.410  47.352  1.00  0.00    -0.143 SA
HETATM   21  C8  UNL     1      22.406   2.036  48.315  1.00  0.00     0.142 C 
ENDBRANCH   8  17
TORSDOF 1
ENDMDL
MODEL 4
REMARK VINA RESULT:      -6.4      6.899      9.425
REMARK  1 active torsions:
REMARK  status: ('A' for Active; 'I' for Inactive)
REMARK    1  A    between atoms: C6_8  and  S1_9 
ROOT
HETATM    1  N1  UNL     1      31.906   8.353  49.415  1.00  0.00    -0.191 NA
HETATM    2  C1  UNL     1      30.996   7.741  49.067  1.00  0.00     0.105 C 
HETATM    3  C2  UNL     1      29.887   6.967  48.637  1.00  0.00     0.107 C 
HETATM    4  C3  UNL     1      29.911   5.598  48.471  1.00  0.00     0.143 C 
HETATM    5  N2  UNL     1      28.724   4.749  48.123  1.00  0.00    -0.267 NA
HETATM    6  C4  UNL     1      27.533   4.906  48.698  1.00  0.00     0.273 C 
HETATM    7  C5  UNL     1      27.072   6.314  48.412  1.00  0.00     0.095 C 
HETATM    8  C6  UNL     1      26.088   6.380  49.291  1.00  0.00     0.042 C 
HETATM    9  C9  UNL     1      25.888   7.555  50.191  1.00  0.00     0.050 C 
HETATM   10 CL1  UNL     1      24.470   7.095  51.068  1.00  0.00    -0.083 Cl
HETATM   11  C10 UNL     1      26.571   8.708  50.376  1.00  0.00     0.018 C 
HETATM   12  C11 UNL     1      27.724   9.496  49.998  1.00  0.00     0.150 C 
HETATM   13  N4  UNL     1      28.867   8.886  49.391  1.00  0.00    -0.370 N 
HETATM   14  C12 UNL     1      28.702   7.853  48.444  1.00  0.00     0.146 C 
HETATM   15  N5  UNL     1      27.736   7.404  47.522  1.00  0.00    -0.227 NA
HETATM   16  H10 UNL     1      29.866   8.945  49.412  1.00  0.00     0.161 HD
ENDROOT
BRANCH   8  17
HETATM   17  S1  UNL     1      25.327   4.835  49.263  1.00  0.00    -0.153 SA
HETATM   18  N3  UNL     1      23.804   5.084  48.717  1.00  0.00    -0.191 NA
HETATM   19  C7  UNL     1      23.159   3.814  48.682  1.00  0.00     0.195 C 
HETATM   20  S2  UNL     1      23.369   3.235  50.388  1.00  0.00    -0.143 SA
HETATM   21  C8  UNL     1      24.700   4.359  50.914  1.00  0.00     0.142 C 
ENDBRANCH   8  17
TORSDOF 1
ENDMDL
MODEL 5
REMARK VINA RESULT:      -6.3      3.278      5.702
REMARK  1 active torsions:
REMARK  status: ('A' for Active; 'I' for Inactive)
REMARK    1  A    between atoms: C6_8  and  S1_9 
ROOT
HETATM    1  N1  UNL     1      22.709  -1.642  55.707  1.00  0.00    -0.191 NA
HETATM    2  C1  UNL     1      22.278  -0.958  54.890  1.00  0.00     0.105 C 
HETATM    3  C2  UNL     1      21.727  -0.109  53.894  1.00  0.00     0.107 C 
HETATM    4  C3  UNL     1      20.557   0.606  54.042  1.00  0.00     0.143 C 
HETATM    5  N2  UNL     1      20.014   1.590  53.047  1.00  0.00    -0.267 NA
HETATM    6  C4  UNL     1      20.780   2.493  52.437  1.00  0.00     0.273 C 
HETATM    7  C5  UNL     1      21.843   1.745  51.670  1.00  0.00     0.095 C 
HETATM    8  C6  UNL     1      22.653   2.758  51.419  1.00  0.00     0.042 C 
HETATM    9  C9  UNL     1      24.132   2.674  51.609  1.00  0.00     0.050 C 
HETATM   10 CL1  UNL     1      24.646   4.246  51.106  1.00  0.00    -0.083 Cl
HETATM   11  C10 UNL     1      24.955   1.700  52.061  1.00  0.00     0.018 C 
HETATM   12  C11 UNL     1      25.049   0.361  52.602  1.00  0.00     0.150 C 
HETATM   13  N4  UNL     1      23.925  -0.261  53.231  1.00  0.00    -0.370 N 
HETATM   14  C12 UNL     1      22.627  -0.082  52.704  1.00  0.00     0.146 C 
HETATM   15  N5  UNL     1      22.015   0.212  51.471  1.00  0.00    -0.227 NA
HETATM   16  H10 UNL     1      23.715  -0.848  54.014  1.00  0.00     0.161 HD
ENDROOT
BRANCH   8  17
HETATM   17  S1  UNL     1      21.633   4.101  51.066  1.00  0.00    -0.153 SA
HETATM   18  N3  UNL     1      21.894   4.474  49.494  1.00  0.00    -0.191 NA
HETATM   19  C7  UNL     1      21.054   5.581  49.182  1.00  0.00     0.195 C 
HETATM   20  S2  UNL     1      21.542   6.795  50.438  1.00  0.00    -0.143 SA
HETATM   21  C8  UNL     1      22.382   5.680  51.607  1.00  0.00     0.142 C 
ENDBRANCH   8  17
TORSDOF 1
ENDMDL
MODEL 6
REMARK VINA RESULT:      -6.2      3.471      4.805
REMARK  1 active torsions:
REMARK  status: ('A' for Active; 'I' for Inactive)
REMARK    1  A    between atoms: C6_8  and  S1_9 
ROOT
HETATM    1  N1  UNL     1      24.772   8.449  49.086  1.00  0.00    -0.191 NA
HETATM    2  C1  UNL     1      25.065   7.338  49.133  1.00  0.00     0.105 C 
HETATM    3  C2  UNL     1      25.450   5.973  49.183  1.00  0.00     0.107 C 
HETATM    4  C3  UNL     1      26.721   5.512  48.910  1.00  0.00     0.143 C 
HETATM    5  N2  UNL     1      27.175   4.089  49.061  1.00  0.00    -0.267 NA
HETATM    6  C4  UNL     1      26.864   3.343  50.119  1.00  0.00     0.273 C 
HETATM    7  C5  UNL     1      25.359   3.256  50.187  1.00  0.00     0.095 C 
HETATM    8  C6  UNL     1      25.246   2.784  51.416  1.00  0.00     0.042 C 
HETATM    9  C9  UNL     1      24.270   3.332  52.405  1.00  0.00     0.050 C 
HETATM   10 CL1  UNL     1      24.554   2.325  53.782  1.00  0.00    -0.083 Cl
HETATM   11  C10 UNL     1      23.375   4.345  52.360  1.00  0.00     0.018 C 
HETATM   12  C11 UNL     1      22.821   5.425  51.572  1.00  0.00     0.150 C 
HETATM   13  N4  UNL     1      23.543   5.979  50.469  1.00  0.00    -0.370 N 
HETATM   14  C12 UNL     1      24.289   5.141  49.614  1.00  0.00     0.146 C 
HETATM   15  N5  UNL     1      24.297   3.798  49.189  1.00  0.00    -0.227 NA
HETATM   16  H10 UNL     1      23.728   6.868  50.046  1.00  0.00     0.161 HD
ENDROOT
BRANCH   8  17
HETATM   17  S1  UNL     1      26.528   1.648  51.604  1.00  0.00    -0.153 SA
HETATM   18  N3  UNL     1      25.844   0.276  52.178  1.00  0.00    -0.191 NA
HETATM   19  C7  UNL     1      26.891  -0.679  52.335  1.00  0.00     0.195 C 
HETATM   20  S2  UNL     1      28.055   0.207  53.407  1.00  0.00    -0.143 SA
HETATM   21  C8  UNL     1      27.434   1.902  53.173  1.00  0.00     0.142 C 
ENDBRANCH   8  17
TORSDOF 1
ENDMDL
MODEL 7
REMARK VINA RESULT:      -6.2      2.742      5.327
REMARK  1 active torsions:
REMARK  status: ('A' for Active; 'I' for Inactive)
REMARK    1  A    between atoms: C6_8  and  S1_9 
ROOT
HETATM    1  N1  UNL     1      27.543   4.279  48.874  1.00  0.00    -0.191 NA
HETATM    2  C1  UNL     1      26.532   3.996  49.344  1.00  0.00     0.105 C 
HETATM    3  C2  UNL     1      25.274   3.650  49.902  1.00  0.00     0.107 C 
HETATM    4  C3  UNL     1      24.122   3.463  49.168  1.00  0.00     0.143 C 
HETATM    5  N2  UNL     1      22.809   2.992  49.723  1.00  0.00    -0.267 NA
HETATM    6  C4  UNL     1      22.715   1.986  50.590  1.00  0.00     0.273 C 
HETATM    7  C5  UNL     1      23.516   2.362  51.813  1.00  0.00     0.095 C 
HETATM    8  C6  UNL     1      23.571   1.172  52.385  1.00  0.00     0.042 C 
HETATM    9  C9  UNL     1      24.832   0.607  52.951  1.00  0.00     0.050 C 
HETATM   10 CL1  UNL     1      24.293  -0.914  53.572  1.00  0.00    -0.083 Cl
HETATM   11  C10 UNL     1      26.107   1.055  53.004  1.00  0.00     0.018 C 
HETATM   12  C11 UNL     1      27.026   2.112  52.638  1.00  0.00     0.150 C 
HETATM   13  N4  UNL     1      26.728   3.010  51.566  1.00  0.00    -0.370 N 
HETATM   14  C12 UNL     1      25.410   3.480  51.378  1.00  0.00     0.146 C 
HETATM   15  N5  UNL     1      24.245   3.698  52.138  1.00  0.00    -0.227 NA
HETATM   16  H10 UNL     1      27.188   3.474  50.807  1.00  0.00     0.161 HD
ENDROOT
BRANCH   8  17
HETATM   17  S1  UNL     1      22.024   0.457  52.132  1.00  0.00    -0.153 SA
HETATM   18  N3  UNL     1      20.922   1.563  52.622  1.00  0.00    -0.191 NA
HETATM   19  C7  UNL     1      19.634   0.990  52.415  1.00  0.00     0.195 C 
HETATM   20  S2  UNL     1      19.755  -0.562  53.347  1.00  0.00    -0.143 SA
HETATM   21  C8  UNL     1      21.566  -0.666  53.503  1.00  0.00     0.142 C 
ENDBRANCH   8  17
TORSDOF 1
ENDMDL
MODEL 8
REMARK VINA RESULT:      -6.2      2.229      3.536
REMARK  1 active torsions:
REMARK  status: ('A' for Active; 'I' for Inactive)
REMARK    1  A    between atoms: C6_8  and  S1_9 
ROOT
HETATM    1  N1  UNL     1      19.034   1.789  49.337  1.00  0.00    -0.191 NA
HETATM    2  C1  UNL     1      19.805   1.625  50.175  1.00  0.00     0.105 C 
HETATM    3  C2  UNL     1      20.747   1.402  51.213  1.00  0.00     0.107 C 
HETATM    4  C3  UNL     1      20.862   0.223  51.919  1.00  0.00     0.143 C 
HETATM    5  N2  UNL     1      21.918  -0.072  52.944  1.00  0.00    -0.267 NA
HETATM    6  C4  UNL     1      23.202   0.232  52.761  1.00  0.00     0.273 C 
HETATM    7  C5  UNL     1      23.293   1.725  52.560  1.00  0.00     0.095 C 
HETATM    8  C6  UNL     1      24.527   1.785  52.091  1.00  0.00     0.042 C 
HETATM    9  C9  UNL     1      24.896   2.600  50.896  1.00  0.00     0.050 C 
HETATM   10 CL1  UNL     1      26.599   2.317  50.785  1.00  0.00    -0.083 Cl
HETATM   11  C10 UNL     1      24.183   3.369  50.041  1.00  0.00     0.018 C 
HETATM   12  C11 UNL     1      22.873   3.859  49.673  1.00  0.00     0.150 C 
HETATM   13  N4  UNL     1      21.687   3.175  50.088  1.00  0.00    -0.370 N 
HETATM   14  C12 UNL     1      21.606   2.611  51.379  1.00  0.00     0.146 C 
HETATM   15  N5  UNL     1      22.171   2.799  52.655  1.00  0.00    -0.227 NA
HETATM   16  H10 UNL     1      20.785   2.924  49.731  1.00  0.00     0.161 HD
ENDROOT
BRANCH   8  17
HETATM   17  S1  UNL     1      25.432   0.635  53.000  1.00  0.00    -0.153 SA
HETATM   18  N3  UNL     1      26.565   1.487  53.818  1.00  0.00    -0.191 NA
HETATM   19  C7  UNL     1      27.322   0.551  54.581  1.00  0.00     0.195 C 
HETATM   20  S2  UNL     1      27.885  -0.611  53.307  1.00  0.00    -0.143 SA
HETATM   21  C8  UNL     1      26.718  -0.173  51.980  1.00  0.00     0.142 C 
ENDBRANCH   8  17
TORSDOF 1
ENDMDL
MODEL 9
REMARK VINA RESULT:      -6.1      3.668      6.329
REMARK  1 active torsions:
REMARK  status: ('A' for Active; 'I' for Inactive)
REMARK    1  A    between atoms: C6_8  and  S1_9 
ROOT
HETATM    1  N1  UNL     1      27.541   4.360  48.965  1.00  0.00    -0.191 NA
HETATM    2  C1  UNL     1      26.439   4.489  49.268  1.00  0.00     0.105 C 
HETATM    3  C2  UNL     1      25.075   4.659  49.620  1.00  0.00     0.107 C 
HETATM    4  C3  UNL     1      24.106   5.148  48.768  1.00  0.00     0.143 C 
HETATM    5  N2  UNL     1      22.641   5.234  49.083  1.00  0.00    -0.267 NA
HETATM    6  C4  UNL     1      21.973   4.246  49.675  1.00  0.00     0.273 C 
HETATM    7  C5  UNL     1      22.622   3.996  51.014  1.00  0.00     0.095 C 
HETATM    8  C6  UNL     1      22.062   2.831  51.289  1.00  0.00     0.042 C 
HETATM    9  C9  UNL     1      22.839   1.665  51.807  1.00  0.00     0.050 C 
HETATM   10 CL1  UNL     1      21.603   0.471  52.000  1.00  0.00    -0.083 Cl
HETATM   11  C10 UNL     1      24.151   1.469  52.072  1.00  0.00     0.018 C 
HETATM   12  C11 UNL     1      25.480   2.039  52.047  1.00  0.00     0.150 C 
HETATM   13  N4  UNL     1      25.791   3.148  51.199  1.00  0.00    -0.370 N 
HETATM   14  C12 UNL     1      24.855   4.189  51.019  1.00  0.00     0.146 C 
HETATM   15  N5  UNL     1      23.776   4.775  51.708  1.00  0.00    -0.227 NA
HETATM   16  H10 UNL     1      26.534   3.478  50.614  1.00  0.00     0.161 HD
ENDROOT
BRANCH   8  17
HETATM   17  S1  UNL     1      20.432   2.951  50.744  1.00  0.00    -0.153 SA
HETATM   18  N3  UNL     1      19.505   3.041  52.090  1.00  0.00    -0.191 NA
HETATM   19  C7  UNL     1      18.151   3.146  51.658  1.00  0.00     0.195 C 
HETATM   20  S2  UNL     1      17.975   1.685  50.597  1.00  0.00    -0.143 SA
HETATM   21  C8  UNL     1      19.736   1.313  50.323  1.00  0.00     0.142 C 
ENDBRANCH   8  17
TORSDOF 1
ENDMDL
