MODEL 1
REMARK VINA RESULT:      -6.8      0.000      0.000
REMARK  9 active torsions:
REMARK  status: ('A' for Active; 'I' for Inactive)
REMARK    1  A    between atoms: C2_2  and  N1_3 
REMARK    2  A    between atoms: C3_4  and  C4_5 
REMARK    3  A    between atoms: C7_9  and  N3_10 
REMARK    4  A    between atoms: N3_10  and  C8_11 
REMARK    5  A    between atoms: C8_11  and  C9_12 
REMARK    6  A    between atoms: C10_13  and  C11_14 
REMARK    7  A    between atoms: C12_15  and  O1_16 
REMARK    8  A    between atoms: O1_16  and  C13_17 
REMARK    9  A    between atoms: C13_17  and  C15_20 
ROOT
HETATM    1  N3  UNL     1      22.469   2.645  52.321  1.00  0.00    -0.219 N 
HETATM    2  H7  UNL     1      21.897   3.133  53.058  1.00  0.00     0.178 HD
ENDROOT
BRANCH   1   3
HETATM    3  C7  UNL     1      23.286   3.622  51.693  1.00  0.00     0.723 A 
HETATM    4  N2  UNL     1      23.010   4.931  51.777  1.00  0.00    -0.075 NA
HETATM    5  C6  UNL     1      23.759   5.881  51.196  1.00  0.00     0.139 A 
HETATM    6  C5  UNL     1      24.896   5.541  50.454  1.00  0.00     0.053 A 
HETATM    7  C4  UNL     1      25.145   4.191  50.391  1.00  0.00     0.094 A 
HETATM    8  N4  UNL     1      24.371   3.267  50.985  1.00  0.00    -0.062 NA
BRANCH   7   9
HETATM    9  C3  UNL     1      26.274   3.639  49.670  1.00  0.00     0.148 C 
HETATM   10  N1  UNL     1      27.302   3.940  48.990  1.00  0.00    -0.272 NA
BRANCH  10  11
HETATM   11  C2  UNL     1      27.768   5.214  48.648  1.00  0.00     0.106 C 
HETATM   12  C1  UNL     1      27.679   6.449  48.184  1.00  0.00     0.032 C 
ENDBRANCH  10  11
ENDBRANCH   7   9
ENDBRANCH   1   3
BRANCH   1  13
HETATM   13  C8  UNL     1      22.691   1.326  51.745  1.00  0.00     0.166 C 
BRANCH  13  14
HETATM   14  C9  UNL     1      21.995   0.247  52.446  1.00  0.00     0.002 C 
HETATM   15  C10 UNL     1      22.564  -0.628  53.255  1.00  0.00     0.064 C 
BRANCH  15  16
HETATM   16  C11 UNL     1      23.965  -0.639  53.559  1.00  0.00    -0.048 C 
HETATM   17  C12 UNL     1      25.151  -0.628  53.811  1.00  0.00     0.062 C 
BRANCH  17  18
HETATM   18  O1  UNL     1      26.485  -0.591  54.092  1.00  0.00    -0.253 OA
BRANCH  18  19
HETATM   19  C13 UNL     1      27.395  -0.885  53.063  1.00  0.00     0.273 C 
HETATM   20  C14 UNL     1      27.236  -2.302  52.550  1.00  0.00     0.092 C 
HETATM   21  F1  UNL     1      27.142  -0.027  52.012  1.00  0.00    -0.205 F 
BRANCH  19  22
HETATM   22  C15 UNL     1      28.810  -0.666  53.585  1.00  0.00     0.420 C 
HETATM   23  F2  UNL     1      29.470  -1.862  53.387  1.00  0.00    -0.208 F 
HETATM   24  F3  UNL     1      28.780  -0.334  54.906  1.00  0.00    -0.208 F 
ENDBRANCH  19  22
ENDBRANCH  18  19
ENDBRANCH  17  18
ENDBRANCH  15  16
ENDBRANCH  13  14
ENDBRANCH   1  13
TORSDOF 9
ENDMDL
MODEL 2
REMARK VINA RESULT:      -6.8      4.500      7.649
REMARK  9 active torsions:
REMARK  status: ('A' for Active; 'I' for Inactive)
REMARK    1  A    between atoms: C2_2  and  N1_3 
REMARK    2  A    between atoms: C3_4  and  C4_5 
REMARK    3  A    between atoms: C7_9  and  N3_10 
REMARK    4  A    between atoms: N3_10  and  C8_11 
REMARK    5  A    between atoms: C8_11  and  C9_12 
REMARK    6  A    between atoms: C10_13  and  C11_14 
REMARK    7  A    between atoms: C12_15  and  O1_16 
REMARK    8  A    between atoms: O1_16  and  C13_17 
REMARK    9  A    between atoms: C13_17  and  C15_20 
ROOT
HETATM    1  N3  UNL     1      26.858   3.116  51.216  1.00  0.00    -0.219 N 
HETATM    2  H7  UNL     1      27.502   3.568  51.916  1.00  0.00     0.178 HD
ENDROOT
BRANCH   1   3
HETATM    3  C7  UNL     1      26.121   2.111  51.896  1.00  0.00     0.723 A 
HETATM    4  N2  UNL     1      24.901   2.350  52.400  1.00  0.00    -0.075 NA
HETATM    5  C6  UNL     1      24.177   1.426  53.047  1.00  0.00     0.139 A 
HETATM    6  C5  UNL     1      24.673   0.130  53.233  1.00  0.00     0.053 A 
HETATM    7  C4  UNL     1      25.923  -0.076  52.703  1.00  0.00     0.094 A 
HETATM    8  N4  UNL     1      26.622   0.875  52.060  1.00  0.00    -0.062 NA
BRANCH   7   9
HETATM    9  C3  UNL     1      26.608  -1.350  52.793  1.00  0.00     0.148 C 
HETATM   10  N1  UNL     1      27.727  -1.898  53.033  1.00  0.00    -0.272 NA
BRANCH  10  11
HETATM   11  C2  UNL     1      28.938  -1.278  53.363  1.00  0.00     0.106 C 
HETATM   12  C1  UNL     1      29.734  -0.268  53.670  1.00  0.00     0.032 C 
ENDBRANCH  10  11
ENDBRANCH   7   9
ENDBRANCH   1   3
BRANCH   1  13
HETATM   13  C8  UNL     1      26.484   3.181  49.810  1.00  0.00     0.166 C 
BRANCH  13  14
HETATM   14  C9  UNL     1      25.854   4.444  49.421  1.00  0.00     0.002 C 
HETATM   15  C10 UNL     1      26.474   5.460  48.850  1.00  0.00     0.064 C 
BRANCH  15  16
HETATM   16  C11 UNL     1      27.871   5.463  48.528  1.00  0.00    -0.048 C 
HETATM   17  C12 UNL     1      29.057   5.469  48.276  1.00  0.00     0.062 C 
BRANCH  17  18
HETATM   18  O1  UNL     1      30.395   5.476  48.016  1.00  0.00    -0.253 OA
BRANCH  18  19
HETATM   19  C13 UNL     1      31.091   6.693  48.112  1.00  0.00     0.273 C 
HETATM   20  C14 UNL     1      31.527   7.206  46.754  1.00  0.00     0.092 C 
HETATM   21  F1  UNL     1      30.239   7.630  48.661  1.00  0.00    -0.205 F 
BRANCH  19  22
HETATM   22  C15 UNL     1      32.301   6.495  49.016  1.00  0.00     0.420 C 
HETATM   23  F2  UNL     1      31.808   5.948  50.184  1.00  0.00    -0.208 F 
HETATM   24  F3  UNL     1      32.916   7.687  49.253  1.00  0.00    -0.208 F 
ENDBRANCH  19  22
ENDBRANCH  18  19
ENDBRANCH  17  18
ENDBRANCH  15  16
ENDBRANCH  13  14
ENDBRANCH   1  13
TORSDOF 9
ENDMDL
MODEL 3
REMARK VINA RESULT:      -6.7      3.560      6.709
REMARK  9 active torsions:
REMARK  status: ('A' for Active; 'I' for Inactive)
REMARK    1  A    between atoms: C2_2  and  N1_3 
REMARK    2  A    between atoms: C3_4  and  C4_5 
REMARK    3  A    between atoms: C7_9  and  N3_10 
REMARK    4  A    between atoms: N3_10  and  C8_11 
REMARK    5  A    between atoms: C8_11  and  C9_12 
REMARK    6  A    between atoms: C10_13  and  C11_14 
REMARK    7  A    between atoms: C12_15  and  O1_16 
REMARK    8  A    between atoms: O1_16  and  C13_17 
REMARK    9  A    between atoms: C13_17  and  C15_20 
ROOT
HETATM    1  N3  UNL     1      26.918   3.212  51.167  1.00  0.00    -0.219 N 
HETATM    2  H7  UNL     1      27.571   3.669  51.854  1.00  0.00     0.178 HD
ENDROOT
BRANCH   1   3
HETATM    3  C7  UNL     1      26.163   2.238  51.872  1.00  0.00     0.723 A 
HETATM    4  N2  UNL     1      24.986   2.535  52.443  1.00  0.00    -0.075 NA
HETATM    5  C6  UNL     1      24.247   1.641  53.116  1.00  0.00     0.139 A 
HETATM    6  C5  UNL     1      24.680   0.318  53.260  1.00  0.00     0.053 A 
HETATM    7  C4  UNL     1      25.889   0.053  52.663  1.00  0.00     0.094 A 
HETATM    8  N4  UNL     1      26.604   0.975  51.996  1.00  0.00    -0.062 NA
BRANCH   7   9
HETATM    9  C3  UNL     1      26.507  -1.258  52.701  1.00  0.00     0.148 C 
HETATM   10  N1  UNL     1      27.589  -1.874  52.945  1.00  0.00    -0.272 NA
BRANCH  10  11
HETATM   11  C2  UNL     1      28.816  -1.336  53.349  1.00  0.00     0.106 C 
HETATM   12  C1  UNL     1      29.664  -0.378  53.684  1.00  0.00     0.032 C 
ENDBRANCH  10  11
ENDBRANCH   7   9
ENDBRANCH   1   3
BRANCH   1  13
HETATM   13  C8  UNL     1      26.542   3.249  49.761  1.00  0.00     0.166 C 
BRANCH  13  14
HETATM   14  C9  UNL     1      26.208   4.587  49.270  1.00  0.00     0.002 C 
HETATM   15  C10 UNL     1      24.984   5.065  49.135  1.00  0.00     0.064 C 
BRANCH  15  16
HETATM   16  C11 UNL     1      23.799   4.324  49.454  1.00  0.00    -0.048 C 
HETATM   17  C12 UNL     1      22.795   3.708  49.743  1.00  0.00     0.062 C 
BRANCH  17  18
HETATM   18  O1  UNL     1      21.662   3.031  50.085  1.00  0.00    -0.253 OA
BRANCH  18  19
HETATM   19  C13 UNL     1      21.631   1.639  49.899  1.00  0.00     0.273 C 
HETATM   20  C14 UNL     1      21.577   1.263  48.432  1.00  0.00     0.092 C 
HETATM   21  F1  UNL     1      22.793   1.112  50.425  1.00  0.00    -0.205 F 
BRANCH  19  22
HETATM   22  C15 UNL     1      20.422   1.075  50.635  1.00  0.00     0.420 C 
HETATM   23  F2  UNL     1      20.867  -0.074  51.258  1.00  0.00    -0.208 F 
HETATM   24  F3  UNL     1      19.418   0.800  49.756  1.00  0.00    -0.208 F 
ENDBRANCH  19  22
ENDBRANCH  18  19
ENDBRANCH  17  18
ENDBRANCH  15  16
ENDBRANCH  13  14
ENDBRANCH   1  13
TORSDOF 9
ENDMDL
MODEL 4
REMARK VINA RESULT:      -6.7      2.140      5.393
REMARK  9 active torsions:
REMARK  status: ('A' for Active; 'I' for Inactive)
REMARK    1  A    between atoms: C2_2  and  N1_3 
REMARK    2  A    between atoms: C3_4  and  C4_5 
REMARK    3  A    between atoms: C7_9  and  N3_10 
REMARK    4  A    between atoms: N3_10  and  C8_11 
REMARK    5  A    between atoms: C8_11  and  C9_12 
REMARK    6  A    between atoms: C10_13  and  C11_14 
REMARK    7  A    between atoms: C12_15  and  O1_16 
REMARK    8  A    between atoms: O1_16  and  C13_17 
REMARK    9  A    between atoms: C13_17  and  C15_20 
ROOT
HETATM    1  N3  UNL     1      23.230   3.430  48.956  1.00  0.00    -0.219 N 
HETATM    2  H7  UNL     1      22.923   3.292  47.959  1.00  0.00     0.178 HD
ENDROOT
BRANCH   1   3
HETATM    3  C7  UNL     1      22.629   2.407  49.737  1.00  0.00     0.723 A 
HETATM    4  N2  UNL     1      21.428   1.897  49.429  1.00  0.00    -0.075 NA
HETATM    5  C6  UNL     1      20.831   0.932  50.143  1.00  0.00     0.139 A 
HETATM    6  C5  UNL     1      21.451   0.395  51.278  1.00  0.00     0.053 A 
HETATM    7  C4  UNL     1      22.678   0.942  51.561  1.00  0.00     0.094 A 
HETATM    8  N4  UNL     1      23.247   1.910  50.822  1.00  0.00    -0.062 NA
BRANCH   7   9
HETATM    9  C3  UNL     1      23.477   0.521  52.695  1.00  0.00     0.148 C 
HETATM   10  N1  UNL     1      23.446  -0.123  53.788  1.00  0.00    -0.272 NA
BRANCH  10  11
HETATM   11  C2  UNL     1      22.358  -0.781  54.371  1.00  0.00     0.106 C 
HETATM   12  C1  UNL     1      21.365  -1.652  54.434  1.00  0.00     0.032 C 
ENDBRANCH  10  11
ENDBRANCH   7   9
ENDBRANCH   1   3
BRANCH   1  13
HETATM   13  C8  UNL     1      24.049   4.306  49.781  1.00  0.00     0.166 C 
BRANCH  13  14
HETATM   14  C9  UNL     1      25.351   4.627  49.194  1.00  0.00     0.002 C 
HETATM   15  C10 UNL     1      26.498   4.068  49.534  1.00  0.00     0.064 C 
BRANCH  15  16
HETATM   16  C11 UNL     1      26.625   3.056  50.541  1.00  0.00    -0.048 C 
HETATM   17  C12 UNL     1      26.744   2.188  51.380  1.00  0.00     0.062 C 
BRANCH  17  18
HETATM   18  O1  UNL     1      26.896   1.204  52.310  1.00  0.00    -0.253 OA
BRANCH  18  19
HETATM   19  C13 UNL     1      27.296   1.563  53.609  1.00  0.00     0.273 C 
HETATM   20  C14 UNL     1      28.558   2.401  53.603  1.00  0.00     0.092 C 
HETATM   21  F1  UNL     1      26.290   2.324  54.170  1.00  0.00    -0.205 F 
BRANCH  19  22
HETATM   22  C15 UNL     1      27.506   0.294  54.424  1.00  0.00     0.420 C 
HETATM   23  F2  UNL     1      27.747  -0.706  53.503  1.00  0.00    -0.208 F 
HETATM   24  F3  UNL     1      26.399   0.021  55.169  1.00  0.00    -0.208 F 
ENDBRANCH  19  22
ENDBRANCH  18  19
ENDBRANCH  17  18
ENDBRANCH  15  16
ENDBRANCH  13  14
ENDBRANCH   1  13
TORSDOF 9
ENDMDL
MODEL 5
REMARK VINA RESULT:      -6.6      1.939      2.848
REMARK  9 active torsions:
REMARK  status: ('A' for Active; 'I' for Inactive)
REMARK    1  A    between atoms: C2_2  and  N1_3 
REMARK    2  A    between atoms: C3_4  and  C4_5 
REMARK    3  A    between atoms: C7_9  and  N3_10 
REMARK    4  A    between atoms: N3_10  and  C8_11 
REMARK    5  A    between atoms: C8_11  and  C9_12 
REMARK    6  A    between atoms: C10_13  and  C11_14 
REMARK    7  A    between atoms: C12_15  and  O1_16 
REMARK    8  A    between atoms: O1_16  and  C13_17 
REMARK    9  A    between atoms: C13_17  and  C15_20 
ROOT
HETATM    1  N3  UNL     1      21.964   0.881  52.518  1.00  0.00    -0.219 N 
HETATM    2  H7  UNL     1      21.820   1.758  53.081  1.00  0.00     0.178 HD
ENDROOT
BRANCH   1   3
HETATM    3  C7  UNL     1      22.045   1.255  51.150  1.00  0.00     0.723 A 
HETATM    4  N2  UNL     1      21.375   0.592  50.197  1.00  0.00    -0.075 NA
HETATM    5  C6  UNL     1      21.428   0.916  48.897  1.00  0.00     0.139 A 
HETATM    6  C5  UNL     1      22.209   1.992  48.460  1.00  0.00     0.053 A 
HETATM    7  C4  UNL     1      22.880   2.646  49.465  1.00  0.00     0.094 A 
HETATM    8  N4  UNL     1      22.804   2.292  50.759  1.00  0.00    -0.062 NA
BRANCH   7   9
HETATM    9  C3  UNL     1      23.741   3.785  49.215  1.00  0.00     0.148 C 
HETATM   10  N1  UNL     1      24.925   4.222  49.342  1.00  0.00    -0.272 NA
BRANCH  10  11
HETATM   11  C2  UNL     1      26.030   3.572  49.902  1.00  0.00     0.106 C 
HETATM   12  C1  UNL     1      26.694   2.894  50.823  1.00  0.00     0.032 C 
ENDBRANCH  10  11
ENDBRANCH   7   9
ENDBRANCH   1   3
BRANCH   1  13
HETATM   13  C8  UNL     1      22.103  -0.560  52.676  1.00  0.00     0.166 C 
BRANCH  13  14
HETATM   14  C9  UNL     1      21.743  -1.048  54.008  1.00  0.00     0.002 C 
HETATM   15  C10 UNL     1      22.590  -1.235  55.005  1.00  0.00     0.064 C 
BRANCH  15  16
HETATM   16  C11 UNL     1      23.998  -0.982  54.913  1.00  0.00    -0.048 C 
HETATM   17  C12 UNL     1      25.190  -0.767  54.857  1.00  0.00     0.062 C 
BRANCH  17  18
HETATM   18  O1  UNL     1      26.531  -0.529  54.817  1.00  0.00    -0.253 OA
BRANCH  18  19
HETATM   19  C13 UNL     1      27.046   0.237  53.757  1.00  0.00     0.273 C 
HETATM   20  C14 UNL     1      26.895  -0.465  52.423  1.00  0.00     0.092 C 
HETATM   21  F1  UNL     1      26.330   1.415  53.695  1.00  0.00    -0.205 F 
BRANCH  19  22
HETATM   22  C15 UNL     1      28.514   0.533  54.036  1.00  0.00     0.420 C 
HETATM   23  F2  UNL     1      28.832  -0.190  55.169  1.00  0.00    -0.208 F 
HETATM   24  F3  UNL     1      28.698   1.868  54.237  1.00  0.00    -0.208 F 
ENDBRANCH  19  22
ENDBRANCH  18  19
ENDBRANCH  17  18
ENDBRANCH  15  16
ENDBRANCH  13  14
ENDBRANCH   1  13
TORSDOF 9
ENDMDL
MODEL 6
REMARK VINA RESULT:      -6.6      1.699      2.265
REMARK  9 active torsions:
REMARK  status: ('A' for Active; 'I' for Inactive)
REMARK    1  A    between atoms: C2_2  and  N1_3 
REMARK    2  A    between atoms: C3_4  and  C4_5 
REMARK    3  A    between atoms: C7_9  and  N3_10 
REMARK    4  A    between atoms: N3_10  and  C8_11 
REMARK    5  A    between atoms: C8_11  and  C9_12 
REMARK    6  A    between atoms: C10_13  and  C11_14 
REMARK    7  A    between atoms: C12_15  and  O1_16 
REMARK    8  A    between atoms: O1_16  and  C13_17 
REMARK    9  A    between atoms: C13_17  and  C15_20 
ROOT
HETATM    1  N3  UNL     1      23.699   4.001  52.003  1.00  0.00    -0.219 N 
HETATM    2  H7  UNL     1      22.989   4.774  51.927  1.00  0.00     0.178 HD
ENDROOT
BRANCH   1   3
HETATM    3  C7  UNL     1      24.691   4.226  51.012  1.00  0.00     0.723 A 
HETATM    4  N2  UNL     1      25.689   3.355  50.802  1.00  0.00    -0.075 NA
HETATM    5  C6  UNL     1      26.642   3.536  49.876  1.00  0.00     0.139 A 
HETATM    6  C5  UNL     1      26.641   4.674  49.061  1.00  0.00     0.053 A 
HETATM    7  C4  UNL     1      25.604   5.541  49.306  1.00  0.00     0.094 A 
HETATM    8  N4  UNL     1      24.665   5.328  50.244  1.00  0.00    -0.062 NA
BRANCH   7   9
HETATM    9  C3  UNL     1      25.429   6.776  48.568  1.00  0.00     0.148 C 
HETATM   10  N1  UNL     1      25.669   8.022  48.582  1.00  0.00    -0.272 NA
BRANCH  10  11
HETATM   11  C2  UNL     1      26.341   8.759  49.563  1.00  0.00     0.106 C 
HETATM   12  C1  UNL     1      27.391   9.209  50.230  1.00  0.00     0.032 C 
ENDBRANCH  10  11
ENDBRANCH   7   9
ENDBRANCH   1   3
BRANCH   1  13
HETATM   13  C8  UNL     1      23.993   2.801  52.775  1.00  0.00     0.166 C 
BRANCH  13  14
HETATM   14  C9  UNL     1      22.929   1.797  52.738  1.00  0.00     0.002 C 
HETATM   15  C10 UNL     1      23.085   0.512  53.003  1.00  0.00     0.064 C 
BRANCH  15  16
HETATM   16  C11 UNL     1      24.338  -0.080  53.368  1.00  0.00    -0.048 C 
HETATM   17  C12 UNL     1      25.401  -0.566  53.691  1.00  0.00     0.062 C 
BRANCH  17  18
HETATM   18  O1  UNL     1      26.597  -1.098  54.072  1.00  0.00    -0.253 OA
BRANCH  18  19
HETATM   19  C13 UNL     1      27.652  -1.109  53.144  1.00  0.00     0.273 C 
HETATM   20  C14 UNL     1      28.103  -2.517  52.814  1.00  0.00     0.092 C 
HETATM   21  F1  UNL     1      27.200  -0.528  51.977  1.00  0.00    -0.205 F 
BRANCH  19  22
HETATM   22  C15 UNL     1      28.812  -0.301  53.713  1.00  0.00     0.420 C 
HETATM   23  F2  UNL     1      29.951  -1.020  53.412  1.00  0.00    -0.208 F 
HETATM   24  F3  UNL     1      28.667  -0.150  55.059  1.00  0.00    -0.208 F 
ENDBRANCH  19  22
ENDBRANCH  18  19
ENDBRANCH  17  18
ENDBRANCH  15  16
ENDBRANCH  13  14
ENDBRANCH   1  13
TORSDOF 9
ENDMDL
MODEL 7
REMARK VINA RESULT:      -6.5      1.992      2.707
REMARK  9 active torsions:
REMARK  status: ('A' for Active; 'I' for Inactive)
REMARK    1  A    between atoms: C2_2  and  N1_3 
REMARK    2  A    between atoms: C3_4  and  C4_5 
REMARK    3  A    between atoms: C7_9  and  N3_10 
REMARK    4  A    between atoms: N3_10  and  C8_11 
REMARK    5  A    between atoms: C8_11  and  C9_12 
REMARK    6  A    between atoms: C10_13  and  C11_14 
REMARK    7  A    between atoms: C12_15  and  O1_16 
REMARK    8  A    between atoms: O1_16  and  C13_17 
REMARK    9  A    between atoms: C13_17  and  C15_20 
ROOT
HETATM    1  N3  UNL     1      23.999   4.458  52.636  1.00  0.00    -0.219 N 
HETATM    2  H7  UNL     1      24.224   4.840  53.591  1.00  0.00     0.178 HD
ENDROOT
BRANCH   1   3
HETATM    3  C7  UNL     1      23.489   5.526  51.852  1.00  0.00     0.723 A 
HETATM    4  N2  UNL     1      22.182   5.635  51.573  1.00  0.00    -0.075 NA
HETATM    5  C6  UNL     1      21.665   6.629  50.837  1.00  0.00     0.139 A 
HETATM    6  C5  UNL     1      22.489   7.630  50.308  1.00  0.00     0.053 A 
HETATM    7  C4  UNL     1      23.820   7.484  50.615  1.00  0.00     0.094 A 
HETATM    8  N4  UNL     1      24.303   6.473  51.357  1.00  0.00    -0.062 NA
BRANCH   7   9
HETATM    9  C3  UNL     1      24.832   8.417  50.160  1.00  0.00     0.148 C 
HETATM   10  N1  UNL     1      25.947   8.508  49.562  1.00  0.00    -0.272 NA
BRANCH  10  11
HETATM   11  C2  UNL     1      26.729   7.476  49.033  1.00  0.00     0.106 C 
HETATM   12  C1  UNL     1      26.977   6.260  48.576  1.00  0.00     0.032 C 
ENDBRANCH  10  11
ENDBRANCH   7   9
ENDBRANCH   1   3
BRANCH   1  13
HETATM   13  C8  UNL     1      24.038   3.219  51.872  1.00  0.00     0.166 C 
BRANCH  13  14
HETATM   14  C9  UNL     1      23.182   2.162  52.411  1.00  0.00     0.002 C 
HETATM   15  C10 UNL     1      23.598   0.973  52.809  1.00  0.00     0.064 C 
BRANCH  15  16
HETATM   16  C11 UNL     1      24.968   0.552  52.766  1.00  0.00    -0.048 C 
HETATM   17  C12 UNL     1      26.132   0.216  52.734  1.00  0.00     0.062 C 
BRANCH  17  18
HETATM   18  O1  UNL     1      27.448  -0.142  52.708  1.00  0.00    -0.253 OA
BRANCH  18  19
HETATM   19  C13 UNL     1      28.264   0.224  53.792  1.00  0.00     0.273 C 
HETATM   20  C14 UNL     1      28.764   1.649  53.671  1.00  0.00     0.092 C 
HETATM   21  F1  UNL     1      27.507   0.140  54.943  1.00  0.00    -0.205 F 
BRANCH  19  22
HETATM   22  C15 UNL     1      29.438  -0.744  53.868  1.00  0.00     0.420 C 
HETATM   23  F2  UNL     1      30.531  -0.043  53.402  1.00  0.00    -0.208 F 
HETATM   24  F3  UNL     1      29.195  -1.843  53.101  1.00  0.00    -0.208 F 
ENDBRANCH  19  22
ENDBRANCH  18  19
ENDBRANCH  17  18
ENDBRANCH  15  16
ENDBRANCH  13  14
ENDBRANCH   1  13
TORSDOF 9
ENDMDL
MODEL 8
REMARK VINA RESULT:      -6.4      3.883      6.647
REMARK  9 active torsions:
REMARK  status: ('A' for Active; 'I' for Inactive)
REMARK    1  A    between atoms: C2_2  and  N1_3 
REMARK    2  A    between atoms: C3_4  and  C4_5 
REMARK    3  A    between atoms: C7_9  and  N3_10 
REMARK    4  A    between atoms: N3_10  and  C8_11 
REMARK    5  A    between atoms: C8_11  and  C9_12 
REMARK    6  A    between atoms: C10_13  and  C11_14 
REMARK    7  A    between atoms: C12_15  and  O1_16 
REMARK    8  A    between atoms: O1_16  and  C13_17 
REMARK    9  A    between atoms: C13_17  and  C15_20 
ROOT
HETATM    1  N3  UNL     1      25.904   2.658  51.061  1.00  0.00    -0.219 N 
HETATM    2  H7  UNL     1      26.917   2.528  50.807  1.00  0.00     0.178 HD
ENDROOT
BRANCH   1   3
HETATM    3  C7  UNL     1      25.526   1.573  51.896  1.00  0.00     0.723 A 
HETATM    4  N2  UNL     1      24.400   1.602  52.622  1.00  0.00    -0.075 NA
HETATM    5  C6  UNL     1      24.012   0.597  53.421  1.00  0.00     0.139 A 
HETATM    6  C5  UNL     1      24.786  -0.563  53.538  1.00  0.00     0.053 A 
HETATM    7  C4  UNL     1      25.931  -0.555  52.779  1.00  0.00     0.094 A 
HETATM    8  N4  UNL     1      26.290   0.472  51.989  1.00  0.00    -0.062 NA
BRANCH   7   9
HETATM    9  C3  UNL     1      26.866  -1.663  52.764  1.00  0.00     0.148 C 
HETATM   10  N1  UNL     1      28.066  -1.996  53.007  1.00  0.00    -0.272 NA
BRANCH  10  11
HETATM   11  C2  UNL     1      29.106  -1.187  53.477  1.00  0.00     0.106 C 
HETATM   12  C1  UNL     1      29.765  -0.057  53.673  1.00  0.00     0.032 C 
ENDBRANCH  10  11
ENDBRANCH   7   9
ENDBRANCH   1   3
BRANCH   1  13
HETATM   13  C8  UNL     1      24.786   3.565  50.842  1.00  0.00     0.166 C 
BRANCH  13  14
HETATM   14  C9  UNL     1      24.369   3.666  49.442  1.00  0.00     0.002 C 
HETATM   15  C10 UNL     1      23.390   2.975  48.888  1.00  0.00     0.064 C 
BRANCH  15  16
HETATM   16  C11 UNL     1      22.590   2.018  49.593  1.00  0.00    -0.048 C 
HETATM   17  C12 UNL     1      21.924   1.192  50.180  1.00  0.00     0.062 C 
BRANCH  17  18
HETATM   18  O1  UNL     1      21.189   0.247  50.833  1.00  0.00    -0.253 OA
BRANCH  18  19
HETATM   19  C13 UNL     1      20.053   0.657  51.550  1.00  0.00     0.273 C 
HETATM   20  C14 UNL     1      18.991   1.245  50.644  1.00  0.00     0.092 C 
HETATM   21  F1  UNL     1      19.512  -0.454  52.165  1.00  0.00    -0.205 F 
BRANCH  19  22
HETATM   22  C15 UNL     1      20.479   1.677  52.598  1.00  0.00     0.420 C 
HETATM   23  F2  UNL     1      20.445   1.009  53.806  1.00  0.00    -0.208 F 
HETATM   24  F3  UNL     1      19.626   2.739  52.600  1.00  0.00    -0.208 F 
ENDBRANCH  19  22
ENDBRANCH  18  19
ENDBRANCH  17  18
ENDBRANCH  15  16
ENDBRANCH  13  14
ENDBRANCH   1  13
TORSDOF 9
ENDMDL
MODEL 9
REMARK VINA RESULT:      -6.4      1.562      1.930
REMARK  9 active torsions:
REMARK  status: ('A' for Active; 'I' for Inactive)
REMARK    1  A    between atoms: C2_2  and  N1_3 
REMARK    2  A    between atoms: C3_4  and  C4_5 
REMARK    3  A    between atoms: C7_9  and  N3_10 
REMARK    4  A    between atoms: N3_10  and  C8_11 
REMARK    5  A    between atoms: C8_11  and  C9_12 
REMARK    6  A    between atoms: C10_13  and  C11_14 
REMARK    7  A    between atoms: C12_15  and  O1_16 
REMARK    8  A    between atoms: O1_16  and  C13_17 
REMARK    9  A    between atoms: C13_17  and  C15_20 
ROOT
HETATM    1  N3  UNL     1      23.829   2.451  52.913  1.00  0.00    -0.219 N 
HETATM    2  H7  UNL     1      24.218   2.721  53.853  1.00  0.00     0.178 HD
ENDROOT
BRANCH   1   3
HETATM    3  C7  UNL     1      23.615   3.645  52.176  1.00  0.00     0.723 A 
HETATM    4  N2  UNL     1      22.492   4.366  52.310  1.00  0.00    -0.075 NA
HETATM    5  C6  UNL     1      22.257   5.498  51.631  1.00  0.00     0.139 A 
HETATM    6  C5  UNL     1      23.198   5.995  50.721  1.00  0.00     0.053 A 
HETATM    7  C4  UNL     1      24.333   5.230  50.611  1.00  0.00     0.094 A 
HETATM    8  N4  UNL     1      24.536   4.099  51.309  1.00  0.00    -0.062 NA
BRANCH   7   9
HETATM    9  C3  UNL     1      25.424   5.576  49.722  1.00  0.00     0.148 C 
HETATM   10  N1  UNL     1      26.216   6.509  49.386  1.00  0.00    -0.272 NA
BRANCH  10  11
HETATM   11  C2  UNL     1      26.288   7.808  49.902  1.00  0.00     0.106 C 
HETATM   12  C1  UNL     1      26.860   8.966  50.186  1.00  0.00     0.032 C 
ENDBRANCH  10  11
ENDBRANCH   7   9
ENDBRANCH   1   3
BRANCH   1  13
HETATM   13  C8  UNL     1      23.445   1.280  52.137  1.00  0.00     0.166 C 
BRANCH  13  14
HETATM   14  C9  UNL     1      22.812   0.224  52.929  1.00  0.00     0.002 C 
HETATM   15  C10 UNL     1      23.440  -0.573  53.775  1.00  0.00     0.064 C 
BRANCH  15  16
HETATM   16  C11 UNL     1      24.848  -0.509  54.035  1.00  0.00    -0.048 C 
HETATM   17  C12 UNL     1      26.035  -0.460  54.275  1.00  0.00     0.062 C 
BRANCH  17  18
HETATM   18  O1  UNL     1      27.366  -0.415  54.566  1.00  0.00    -0.253 OA
BRANCH  18  19
HETATM   19  C13 UNL     1      28.274  -0.171  53.522  1.00  0.00     0.273 C 
HETATM   20  C14 UNL     1      29.416  -1.167  53.518  1.00  0.00     0.092 C 
HETATM   21  F1  UNL     1      27.596  -0.306  52.327  1.00  0.00    -0.205 F 
BRANCH  19  22
HETATM   22  C15 UNL     1      28.809   1.248  53.661  1.00  0.00     0.420 C 
HETATM   23  F2  UNL     1      29.344   1.323  54.931  1.00  0.00    -0.208 F 
HETATM   24  F3  UNL     1      27.803   2.152  53.496  1.00  0.00    -0.208 F 
ENDBRANCH  19  22
ENDBRANCH  18  19
ENDBRANCH  17  18
ENDBRANCH  15  16
ENDBRANCH  13  14
ENDBRANCH   1  13
TORSDOF 9
ENDMDL
