MODEL 1
REMARK VINA RESULT:      -9.7      0.000      0.000
REMARK  3 active torsions:
REMARK  status: ('A' for Active; 'I' for Inactive)
REMARK    1  A    between atoms: N1_1  and  C1_2 
REMARK    2  A    between atoms: C11_14  and  N3_15 
REMARK    3  A    between atoms: N3_15  and  C12_16 
ROOT
HETATM    1  C1  UNL     1      22.712   1.776  51.975  1.00  0.00     0.277 C 
HETATM    2  C2  UNL     1      22.851   1.742  50.511  1.00  0.00     0.208 C 
HETATM    3  O1  UNL     1      22.880   3.006  49.865  1.00  0.00    -0.387 OA
HETATM    4  C3  UNL     1      22.441   2.889  48.525  1.00  0.00     0.197 C 
HETATM    5  C4  UNL     1      20.908   2.685  48.537  1.00  0.00     0.295 C 
HETATM    6  N2  UNL     1      20.475   1.544  49.252  1.00  0.00     0.085 N 
HETATM    7  C5  UNL     1      19.068   1.550  49.686  1.00  0.00     0.270 C 
HETATM    8  C6  UNL     1      18.970   0.377  50.758  1.00  0.00     0.036 C 
HETATM    9  C7  UNL     1      20.287   0.690  51.436  1.00  0.00     0.061 C 
HETATM   10  C8  UNL     1      20.843   0.032  52.564  1.00  0.00     0.043 C 
HETATM   11  C9  UNL     1      22.056   0.684  52.696  1.00  0.00     0.012 C 
HETATM   12  C10 UNL     1      22.850  -0.074  53.687  1.00  0.00     0.012 A 
HETATM   13  C11 UNL     1      24.152  -0.416  53.749  1.00  0.00     0.135 A 
HETATM   14  N4  UNL     1      24.407  -1.222  54.919  1.00  0.00    -0.246 NA
HETATM   15  C18 UNL     1      23.285  -1.367  55.576  1.00  0.00     0.107 A 
HETATM   16  C19 UNL     1      22.236  -0.653  54.887  1.00  0.00     0.104 A 
HETATM   17  C20 UNL     1      20.969  -1.283  54.580  1.00  0.00     0.105 C 
HETATM   18  N5  UNL     1      20.372  -0.917  53.498  1.00  0.00    -0.268 NA
HETATM   19  H10 UNL     1      20.609   0.662  48.648  1.00  0.00     0.315 HD
ENDROOT
BRANCH  13  20
HETATM   20  N3  UNL     1      25.136  -0.067  52.754  1.00  0.00    -0.341 N 
HETATM   21  H17 UNL     1      24.865   0.292  51.816  1.00  0.00     0.167 HD
BRANCH  20  22
HETATM   22  C12 UNL     1      26.531  -0.216  53.040  1.00  0.00     0.035 A 
HETATM   23  C13 UNL     1      27.239  -1.376  52.817  1.00  0.00     0.032 A 
HETATM   24  C14 UNL     1      28.560  -1.569  53.074  1.00  0.00     0.046 A 
HETATM   25  C15 UNL     1      29.266  -0.491  53.613  1.00  0.00     0.138 A 
HETATM   26  F1  UNL     1      30.588  -0.652  53.882  1.00  0.00    -0.204 F 
HETATM   27  C16 UNL     1      28.602   0.693  53.854  1.00  0.00     0.074 A 
HETATM   28 CL1  UNL     1      29.515   2.030  54.534  1.00  0.00    -0.081 Cl
HETATM   29  C17 UNL     1      27.257   0.827  53.571  1.00  0.00     0.056 A 
ENDBRANCH  20  22
ENDBRANCH  13  20
BRANCH   1  30
HETATM   30  N1  UNL     1      23.840   2.363  52.654  1.00  0.00     0.089 NA
HETATM   31  H1  UNL     1      24.330   1.747  53.330  1.00  0.00     0.313 HD
HETATM   32  H2  UNL     1      23.564   3.236  53.120  1.00  0.00     0.313 HD
ENDBRANCH   1  30
TORSDOF 3
ENDMDL
MODEL 2
REMARK VINA RESULT:      -9.4      3.762      5.433
REMARK  3 active torsions:
REMARK  status: ('A' for Active; 'I' for Inactive)
REMARK    1  A    between atoms: N1_1  and  C1_2 
REMARK    2  A    between atoms: C11_14  and  N3_15 
REMARK    3  A    between atoms: N3_15  and  C12_16 
ROOT
HETATM    1  C1  UNL     1      23.021   2.413  52.676  1.00  0.00     0.277 C 
HETATM    2  C2  UNL     1      21.987   2.028  51.703  1.00  0.00     0.208 C 
HETATM    3  O1  UNL     1      20.740   2.693  51.835  1.00  0.00    -0.387 OA
HETATM    4  C3  UNL     1      19.697   1.902  51.299  1.00  0.00     0.197 C 
HETATM    5  C4  UNL     1      19.426   0.735  52.278  1.00  0.00     0.295 C 
HETATM    6  N2  UNL     1      20.543  -0.098  52.517  1.00  0.00     0.085 N 
HETATM    7  C5  UNL     1      20.493  -0.908  53.746  1.00  0.00     0.270 C 
HETATM    8  C6  UNL     1      21.984  -1.427  53.951  1.00  0.00     0.036 C 
HETATM    9  C7  UNL     1      22.646  -0.118  53.575  1.00  0.00     0.061 C 
HETATM   10  C8  UNL     1      24.036   0.168  53.579  1.00  0.00     0.043 C 
HETATM   11  C9  UNL     1      24.055   1.464  53.094  1.00  0.00     0.012 C 
HETATM   12  C10 UNL     1      25.467   1.800  52.811  1.00  0.00     0.012 A 
HETATM   13  C11 UNL     1      26.065   2.469  51.806  1.00  0.00     0.135 A 
HETATM   14  N4  UNL     1      27.498   2.465  51.980  1.00  0.00    -0.246 NA
HETATM   15  C18 UNL     1      27.781   1.816  53.079  1.00  0.00     0.107 A 
HETATM   16  C19 UNL     1      26.554   1.372  53.698  1.00  0.00     0.104 A 
HETATM   17  C20 UNL     1      26.378  -0.000  54.125  1.00  0.00     0.105 C 
HETATM   18  N5  UNL     1      25.189  -0.494  54.054  1.00  0.00    -0.268 NA
HETATM   19  H10 UNL     1      20.669  -0.787  51.698  1.00  0.00     0.315 HD
ENDROOT
BRANCH  13  20
HETATM   20  N3  UNL     1      25.369   3.056  50.688  1.00  0.00    -0.341 N 
HETATM   21  H17 UNL     1      24.454   2.688  50.356  1.00  0.00     0.167 HD
BRANCH  20  22
HETATM   22  C12 UNL     1      25.935   4.175  49.996  1.00  0.00     0.035 A 
HETATM   23  C13 UNL     1      27.039   4.089  49.176  1.00  0.00     0.032 A 
HETATM   24  C14 UNL     1      27.616   5.118  48.501  1.00  0.00     0.046 A 
HETATM   25  C15 UNL     1      27.036   6.380  48.652  1.00  0.00     0.138 A 
HETATM   26  F1  UNL     1      27.590   7.430  47.991  1.00  0.00    -0.204 F 
HETATM   27  C16 UNL     1      25.929   6.518  49.461  1.00  0.00     0.074 A 
HETATM   28 CL1  UNL     1      25.223   8.117  49.632  1.00  0.00    -0.081 Cl
HETATM   29  C17 UNL     1      25.389   5.432  50.121  1.00  0.00     0.056 A 
ENDBRANCH  20  22
ENDBRANCH  13  20
BRANCH   1  30
HETATM   30  N1  UNL     1      23.466   3.778  52.545  1.00  0.00     0.089 NA
HETATM   31  H1  UNL     1      24.478   3.907  52.361  1.00  0.00     0.313 HD
HETATM   32  H2  UNL     1      23.193   4.325  53.371  1.00  0.00     0.313 HD
ENDBRANCH   1  30
TORSDOF 3
ENDMDL
MODEL 3
REMARK VINA RESULT:      -9.3      1.911      2.534
REMARK  3 active torsions:
REMARK  status: ('A' for Active; 'I' for Inactive)
REMARK    1  A    between atoms: N1_1  and  C1_2 
REMARK    2  A    between atoms: C11_14  and  N3_15 
REMARK    3  A    between atoms: N3_15  and  C12_16 
ROOT
HETATM    1  C1  UNL     1      23.747   3.311  51.767  1.00  0.00     0.277 C 
HETATM    2  C2  UNL     1      24.487   3.738  50.570  1.00  0.00     0.208 C 
HETATM    3  O1  UNL     1      24.586   5.141  50.376  1.00  0.00    -0.387 OA
HETATM    4  C3  UNL     1      24.770   5.441  49.006  1.00  0.00     0.197 C 
HETATM    5  C4  UNL     1      23.423   5.215  48.279  1.00  0.00     0.295 C 
HETATM    6  N2  UNL     1      22.915   3.900  48.386  1.00  0.00     0.085 N 
HETATM    7  C5  UNL     1      21.472   3.743  48.133  1.00  0.00     0.270 C 
HETATM    8  C6  UNL     1      21.119   2.292  48.684  1.00  0.00     0.036 C 
HETATM    9  C7  UNL     1      21.967   2.402  49.934  1.00  0.00     0.061 C 
HETATM   10  C8  UNL     1      22.097   1.435  50.964  1.00  0.00     0.043 C 
HETATM   11  C9  UNL     1      23.027   2.036  51.794  1.00  0.00     0.012 C 
HETATM   12  C10 UNL     1      23.442   1.021  52.786  1.00  0.00     0.012 A 
HETATM   13  C11 UNL     1      24.636   0.701  53.325  1.00  0.00     0.135 A 
HETATM   14  N4  UNL     1      24.501  -0.426  54.217  1.00  0.00    -0.246 NA
HETATM   15  C18 UNL     1      23.245  -0.790  54.240  1.00  0.00     0.107 A 
HETATM   16  C19 UNL     1      22.482   0.085  53.379  1.00  0.00     0.104 A 
HETATM   17  C20 UNL     1      21.573  -0.442  52.383  1.00  0.00     0.105 C 
HETATM   18  N5  UNL     1      21.433   0.233  51.294  1.00  0.00    -0.268 NA
HETATM   19  H10 UNL     1      23.423   3.253  47.690  1.00  0.00     0.315 HD
ENDROOT
BRANCH  13  20
HETATM   20  N3  UNL     1      25.878   1.362  53.008  1.00  0.00    -0.341 N 
HETATM   21  H17 UNL     1      25.902   2.308  52.575  1.00  0.00     0.167 HD
BRANCH  20  22
HETATM   22  C12 UNL     1      27.126   0.715  53.282  1.00  0.00     0.035 A 
HETATM   23  C13 UNL     1      28.222   1.360  53.809  1.00  0.00     0.032 A 
HETATM   24  C14 UNL     1      29.428   0.795  54.085  1.00  0.00     0.046 A 
HETATM   25  C15 UNL     1      29.567  -0.568  53.807  1.00  0.00     0.138 A 
HETATM   26  F1  UNL     1      30.760  -1.163  54.070  1.00  0.00    -0.204 F 
HETATM   27  C16 UNL     1      28.498  -1.258  53.278  1.00  0.00     0.074 A 
HETATM   28 CL1  UNL     1      28.703  -2.969  52.938  1.00  0.00    -0.081 Cl
HETATM   29  C17 UNL     1      27.298  -0.626  53.021  1.00  0.00     0.056 A 
ENDBRANCH  20  22
ENDBRANCH  13  20
BRANCH   1  30
HETATM   30  N1  UNL     1      24.383   3.676  53.008  1.00  0.00     0.089 NA
HETATM   31  H1  UNL     1      24.919   2.924  53.479  1.00  0.00     0.313 HD
HETATM   32  H2  UNL     1      23.694   4.070  53.661  1.00  0.00     0.313 HD
ENDBRANCH   1  30
TORSDOF 3
ENDMDL
MODEL 4
REMARK VINA RESULT:      -9.2      1.948      2.220
REMARK  3 active torsions:
REMARK  status: ('A' for Active; 'I' for Inactive)
REMARK    1  A    between atoms: N1_1  and  C1_2 
REMARK    2  A    between atoms: C11_14  and  N3_15 
REMARK    3  A    between atoms: N3_15  and  C12_16 
ROOT
HETATM    1  C1  UNL     1      23.399   3.509  52.343  1.00  0.00     0.277 C 
HETATM    2  C2  UNL     1      23.756   4.042  51.019  1.00  0.00     0.208 C 
HETATM    3  O1  UNL     1      24.235   5.378  51.002  1.00  0.00    -0.387 OA
HETATM    4  C3  UNL     1      24.001   5.973  49.740  1.00  0.00     0.197 C 
HETATM    5  C4  UNL     1      22.490   6.281  49.626  1.00  0.00     0.295 C 
HETATM    6  N2  UNL     1      21.651   5.150  49.750  1.00  0.00     0.085 N 
HETATM    7  C5  UNL     1      20.249   5.422  50.110  1.00  0.00     0.270 C 
HETATM    8  C6  UNL     1      19.661   4.008  50.547  1.00  0.00     0.036 C 
HETATM    9  C7  UNL     1      20.887   3.576  51.324  1.00  0.00     0.061 C 
HETATM   10  C8  UNL     1      21.052   2.370  52.054  1.00  0.00     0.043 C 
HETATM   11  C9  UNL     1      22.361   2.486  52.490  1.00  0.00     0.012 C 
HETATM   12  C10 UNL     1      22.746   1.177  53.059  1.00  0.00     0.012 A 
HETATM   13  C11 UNL     1      23.877   0.447  52.992  1.00  0.00     0.135 A 
HETATM   14  N4  UNL     1      23.709  -0.807  53.688  1.00  0.00    -0.246 NA
HETATM   15  C18 UNL     1      22.501  -0.847  54.187  1.00  0.00     0.107 A 
HETATM   16  C19 UNL     1      21.813   0.382  53.863  1.00  0.00     0.104 A 
HETATM   17  C20 UNL     1      20.488   0.373  53.280  1.00  0.00     0.105 C 
HETATM   18  N5  UNL     1      20.196   1.324  52.459  1.00  0.00    -0.268 NA
HETATM   19  H10 UNL     1      21.632   4.605  48.820  1.00  0.00     0.315 HD
ENDROOT
BRANCH  13  20
HETATM   20  N3  UNL     1      25.065   0.844  52.278  1.00  0.00    -0.341 N 
HETATM   21  H17 UNL     1      25.021   1.449  51.433  1.00  0.00     0.167 HD
BRANCH  20  22
HETATM   22  C12 UNL     1      26.352   0.401  52.722  1.00  0.00     0.035 A 
HETATM   23  C13 UNL     1      26.820  -0.883  52.554  1.00  0.00     0.032 A 
HETATM   24  C14 UNL     1      28.029  -1.355  52.958  1.00  0.00     0.046 A 
HETATM   25  C15 UNL     1      28.877  -0.452  53.605  1.00  0.00     0.138 A 
HETATM   26  F1  UNL     1      30.093  -0.892  54.023  1.00  0.00    -0.204 F 
HETATM   27  C16 UNL     1      28.455   0.846  53.796  1.00  0.00     0.074 A 
HETATM   28 CL1  UNL     1      29.543   1.958  54.614  1.00  0.00    -0.081 Cl
HETATM   29  C17 UNL     1      27.213   1.264  53.362  1.00  0.00     0.056 A 
ENDBRANCH  20  22
ENDBRANCH  13  20
BRANCH   1  30
HETATM   30  N1  UNL     1      24.521   3.369  53.237  1.00  0.00     0.089 NA
HETATM   31  H1  UNL     1      24.483   3.939  54.102  1.00  0.00     0.313 HD
HETATM   32  H2  UNL     1      25.401   3.555  52.739  1.00  0.00     0.313 HD
ENDBRANCH   1  30
TORSDOF 3
ENDMDL
MODEL 5
REMARK VINA RESULT:      -8.9      4.781      7.510
REMARK  3 active torsions:
REMARK  status: ('A' for Active; 'I' for Inactive)
REMARK    1  A    between atoms: N1_1  and  C1_2 
REMARK    2  A    between atoms: C11_14  and  N3_15 
REMARK    3  A    between atoms: N3_15  and  C12_16 
ROOT
HETATM    1  C1  UNL     1      26.344   2.226  51.118  1.00  0.00     0.277 C 
HETATM    2  C2  UNL     1      26.975   2.463  52.425  1.00  0.00     0.208 C 
HETATM    3  O1  UNL     1      28.268   1.903  52.596  1.00  0.00    -0.387 OA
HETATM    4  C3  UNL     1      28.534   1.674  53.966  1.00  0.00     0.197 C 
HETATM    5  C4  UNL     1      27.704   0.449  54.418  1.00  0.00     0.295 C 
HETATM    6  N2  UNL     1      26.308   0.594  54.249  1.00  0.00     0.085 N 
HETATM    7  C5  UNL     1      25.529  -0.655  54.216  1.00  0.00     0.270 C 
HETATM    8  C6  UNL     1      24.104  -0.230  53.647  1.00  0.00     0.036 C 
HETATM    9  C7  UNL     1      24.646   0.706  52.587  1.00  0.00     0.061 C 
HETATM   10  C8  UNL     1      23.894   1.437  51.631  1.00  0.00     0.043 C 
HETATM   11  C9  UNL     1      24.888   2.153  50.985  1.00  0.00     0.012 C 
HETATM   12  C10 UNL     1      24.214   3.149  50.124  1.00  0.00     0.012 A 
HETATM   13  C11 UNL     1      24.475   4.440  49.841  1.00  0.00     0.135 A 
HETATM   14  N4  UNL     1      23.457   4.982  48.972  1.00  0.00    -0.246 NA
HETATM   15  C18 UNL     1      22.589   4.039  48.712  1.00  0.00     0.107 A 
HETATM   16  C19 UNL     1      22.994   2.824  49.379  1.00  0.00     0.104 A 
HETATM   17  C20 UNL     1      22.066   2.063  50.190  1.00  0.00     0.105 C 
HETATM   18  N5  UNL     1      22.547   1.439  51.210  1.00  0.00    -0.268 NA
HETATM   19  H10 UNL     1      25.903   1.190  55.050  1.00  0.00     0.315 HD
ENDROOT
BRANCH  13  20
HETATM   20  N3  UNL     1      25.587   5.186  50.379  1.00  0.00    -0.341 N 
HETATM   21  H17 UNL     1      26.132   4.845  51.197  1.00  0.00     0.167 HD
BRANCH  20  22
HETATM   22  C12 UNL     1      25.965   6.436  49.792  1.00  0.00     0.035 A 
HETATM   23  C13 UNL     1      25.522   7.659  50.243  1.00  0.00     0.032 A 
HETATM   24  C14 UNL     1      25.847   8.871  49.721  1.00  0.00     0.046 A 
HETATM   25  C15 UNL     1      26.712   8.877  48.623  1.00  0.00     0.138 A 
HETATM   26  F1  UNL     1      27.057  10.071  48.076  1.00  0.00    -0.204 F 
HETATM   27  C16 UNL     1      27.184   7.677  48.134  1.00  0.00     0.074 A 
HETATM   28 CL1  UNL     1      28.268   7.716  46.753  1.00  0.00    -0.081 Cl
HETATM   29  C17 UNL     1      26.816   6.478  48.710  1.00  0.00     0.056 A 
ENDBRANCH  20  22
ENDBRANCH  13  20
BRANCH   1  30
HETATM   30  N1  UNL     1      27.024   2.863  50.018  1.00  0.00     0.089 NA
HETATM   31  H1  UNL     1      27.708   2.274  49.508  1.00  0.00     0.313 HD
HETATM   32  H2  UNL     1      27.480   3.729  50.332  1.00  0.00     0.313 HD
ENDBRANCH   1  30
TORSDOF 3
ENDMDL
MODEL 6
REMARK VINA RESULT:      -8.4      4.306      6.311
REMARK  3 active torsions:
REMARK  status: ('A' for Active; 'I' for Inactive)
REMARK    1  A    between atoms: N1_1  and  C1_2 
REMARK    2  A    between atoms: C11_14  and  N3_15 
REMARK    3  A    between atoms: N3_15  and  C12_16 
ROOT
HETATM    1  C1  UNL     1      24.253   6.922  50.637  1.00  0.00     0.277 C 
HETATM    2  C2  UNL     1      25.588   6.780  50.035  1.00  0.00     0.208 C 
HETATM    3  O1  UNL     1      26.452   7.897  50.184  1.00  0.00    -0.387 OA
HETATM    4  C3  UNL     1      27.414   7.922  49.147  1.00  0.00     0.197 C 
HETATM    5  C4  UNL     1      26.707   8.366  47.846  1.00  0.00     0.295 C 
HETATM    6  N2  UNL     1      25.639   7.530  47.446  1.00  0.00     0.085 N 
HETATM    7  C5  UNL     1      24.662   8.129  46.521  1.00  0.00     0.270 C 
HETATM    8  C6  UNL     1      23.415   7.140  46.551  1.00  0.00     0.036 C 
HETATM    9  C7  UNL     1      23.450   6.908  48.047  1.00  0.00     0.061 C 
HETATM   10  C8  UNL     1      22.548   6.121  48.809  1.00  0.00     0.043 C 
HETATM   11  C9  UNL     1      23.095   6.222  50.077  1.00  0.00     0.012 C 
HETATM   12  C10 UNL     1      22.392   5.241  50.932  1.00  0.00     0.012 A 
HETATM   13  C11 UNL     1      22.813   4.397  51.894  1.00  0.00     0.135 A 
HETATM   14  N4  UNL     1      21.713   3.600  52.383  1.00  0.00    -0.246 NA
HETATM   15  C18 UNL     1      20.628   3.953  51.743  1.00  0.00     0.107 A 
HETATM   16  C19 UNL     1      20.949   5.009  50.812  1.00  0.00     0.104 A 
HETATM   17  C20 UNL     1      20.537   4.944  49.425  1.00  0.00     0.105 C 
HETATM   18  N5  UNL     1      21.316   5.484  48.551  1.00  0.00    -0.268 NA
HETATM   19  H10 UNL     1      26.025   6.650  46.960  1.00  0.00     0.315 HD
ENDROOT
BRANCH  13  20
HETATM   20  N3  UNL     1      24.182   4.275  52.331  1.00  0.00    -0.341 N 
HETATM   21  H17 UNL     1      24.704   5.080  52.734  1.00  0.00     0.167 HD
BRANCH  20  22
HETATM   22  C12 UNL     1      24.865   3.022  52.211  1.00  0.00     0.035 A 
HETATM   23  C13 UNL     1      25.861   2.779  51.292  1.00  0.00     0.032 A 
HETATM   24  C14 UNL     1      26.538   1.610  51.136  1.00  0.00     0.046 A 
HETATM   25  C15 UNL     1      26.190   0.557  51.987  1.00  0.00     0.138 A 
HETATM   26  F1  UNL     1      26.846  -0.625  51.856  1.00  0.00    -0.204 F 
HETATM   27  C16 UNL     1      25.198   0.752  52.924  1.00  0.00     0.074 A 
HETATM   28 CL1  UNL     1      24.782  -0.590  53.979  1.00  0.00    -0.081 Cl
HETATM   29  C17 UNL     1      24.548   1.965  53.034  1.00  0.00     0.056 A 
ENDBRANCH  20  22
ENDBRANCH  13  20
BRANCH   1  30
HETATM   30  N1  UNL     1      24.269   7.017  52.075  1.00  0.00     0.089 NA
HETATM   31  H1  UNL     1      23.685   6.325  52.579  1.00  0.00     0.313 HD
HETATM   32  H2  UNL     1      24.014   7.967  52.374  1.00  0.00     0.313 HD
ENDBRANCH   1  30
TORSDOF 3
ENDMDL
MODEL 7
REMARK VINA RESULT:      -8.4      3.019      3.828
REMARK  3 active torsions:
REMARK  status: ('A' for Active; 'I' for Inactive)
REMARK    1  A    between atoms: N1_1  and  C1_2 
REMARK    2  A    between atoms: C11_14  and  N3_15 
REMARK    3  A    between atoms: N3_15  and  C12_16 
ROOT
HETATM    1  C1  UNL     1      23.166   4.878  52.297  1.00  0.00     0.277 C 
HETATM    2  C2  UNL     1      23.814   5.609  51.197  1.00  0.00     0.208 C 
HETATM    3  O1  UNL     1      24.268   6.917  51.511  1.00  0.00    -0.387 OA
HETATM    4  C3  UNL     1      24.327   7.716  50.345  1.00  0.00     0.197 C 
HETATM    5  C4  UNL     1      22.880   8.079  49.937  1.00  0.00     0.295 C 
HETATM    6  N2  UNL     1      22.049   6.965  49.676  1.00  0.00     0.085 N 
HETATM    7  C5  UNL     1      20.599   7.212  49.742  1.00  0.00     0.270 C 
HETATM    8  C6  UNL     1      19.942   5.763  49.792  1.00  0.00     0.036 C 
HETATM    9  C7  UNL     1      20.959   5.177  50.749  1.00  0.00     0.061 C 
HETATM   10  C8  UNL     1      20.964   3.865  51.290  1.00  0.00     0.043 C 
HETATM   11  C9  UNL     1      22.134   3.873  52.029  1.00  0.00     0.012 C 
HETATM   12  C10 UNL     1      22.392   2.479  52.449  1.00  0.00     0.012 A 
HETATM   13  C11 UNL     1      23.515   1.739  52.526  1.00  0.00     0.135 A 
HETATM   14  N4  UNL     1      23.205   0.394  52.949  1.00  0.00    -0.246 NA
HETATM   15  C18 UNL     1      21.914   0.306  53.141  1.00  0.00     0.107 A 
HETATM   16  C19 UNL     1      21.306   1.589  52.873  1.00  0.00     0.104 A 
HETATM   17  C20 UNL     1      20.153   1.711  52.006  1.00  0.00     0.105 C 
HETATM   18  N5  UNL     1      20.049   2.790  51.308  1.00  0.00    -0.268 NA
HETATM   19  H10 UNL     1      22.253   6.579  48.691  1.00  0.00     0.315 HD
ENDROOT
BRANCH  13  20
HETATM   20  N3  UNL     1      24.832   2.215  52.181  1.00  0.00    -0.341 N 
HETATM   21  H17 UNL     1      24.975   3.101  51.655  1.00  0.00     0.167 HD
BRANCH  20  22
HETATM   22  C12 UNL     1      25.990   1.461  52.557  1.00  0.00     0.035 A 
HETATM   23  C13 UNL     1      27.121   2.019  53.109  1.00  0.00     0.032 A 
HETATM   24  C14 UNL     1      28.245   1.350  53.479  1.00  0.00     0.046 A 
HETATM   25  C15 UNL     1      28.254  -0.033  53.282  1.00  0.00     0.138 A 
HETATM   26  F1  UNL     1      29.362  -0.732  53.640  1.00  0.00    -0.204 F 
HETATM   27  C16 UNL     1      27.144  -0.640  52.733  1.00  0.00     0.074 A 
HETATM   28 CL1  UNL     1      27.184  -2.380  52.496  1.00  0.00    -0.081 Cl
HETATM   29  C17 UNL     1      26.031   0.096  52.377  1.00  0.00     0.056 A 
ENDBRANCH  20  22
ENDBRANCH  13  20
BRANCH   1  30
HETATM   30  N1  UNL     1      24.050   4.564  53.390  1.00  0.00     0.089 NA
HETATM   31  H1  UNL     1      23.738   4.878  54.328  1.00  0.00     0.313 HD
HETATM   32  H2  UNL     1      24.994   4.925  53.202  1.00  0.00     0.313 HD
ENDBRANCH   1  30
TORSDOF 3
ENDMDL
MODEL 8
REMARK VINA RESULT:      -8.1      3.414      4.718
REMARK  3 active torsions:
REMARK  status: ('A' for Active; 'I' for Inactive)
REMARK    1  A    between atoms: N1_1  and  C1_2 
REMARK    2  A    between atoms: C11_14  and  N3_15 
REMARK    3  A    between atoms: N3_15  and  C12_16 
ROOT
HETATM    1  C1  UNL     1      19.941   1.904  52.568  1.00  0.00     0.277 C 
HETATM    2  C2  UNL     1      19.065   1.888  51.386  1.00  0.00     0.208 C 
HETATM    3  O1  UNL     1      18.007   2.835  51.390  1.00  0.00    -0.387 OA
HETATM    4  C3  UNL     1      16.940   2.390  50.575  1.00  0.00     0.197 C 
HETATM    5  C4  UNL     1      16.211   1.247  51.320  1.00  0.00     0.295 C 
HETATM    6  N2  UNL     1      17.030   0.137  51.631  1.00  0.00     0.085 N 
HETATM    7  C5  UNL     1      16.544  -0.743  52.707  1.00  0.00     0.270 C 
HETATM    8  C6  UNL     1      17.798  -1.642  53.095  1.00  0.00     0.036 C 
HETATM    9  C7  UNL     1      18.810  -0.518  53.025  1.00  0.00     0.061 C 
HETATM   10  C8  UNL     1      20.198  -0.599  53.311  1.00  0.00     0.043 C 
HETATM   11  C9  UNL     1      20.617   0.688  53.022  1.00  0.00     0.012 C 
HETATM   12  C10 UNL     1      22.096   0.676  53.039  1.00  0.00     0.012 A 
HETATM   13  C11 UNL     1      23.025   1.259  52.256  1.00  0.00     0.135 A 
HETATM   14  N4  UNL     1      24.352   0.872  52.675  1.00  0.00    -0.246 NA
HETATM   15  C18 UNL     1      24.246   0.074  53.705  1.00  0.00     0.107 A 
HETATM   16  C19 UNL     1      22.849  -0.096  54.033  1.00  0.00     0.104 A 
HETATM   17  C20 UNL     1      22.274  -1.411  54.227  1.00  0.00     0.105 C 
HETATM   18  N5  UNL     1      21.043  -1.575  53.882  1.00  0.00    -0.268 NA
HETATM   19  H10 UNL     1      17.155  -0.482  50.758  1.00  0.00     0.315 HD
ENDROOT
BRANCH  13  20
HETATM   20  N3  UNL     1      22.727   2.105  51.127  1.00  0.00    -0.341 N 
HETATM   21  H17 UNL     1      21.844   2.008  50.586  1.00  0.00     0.167 HD
BRANCH  20  22
HETATM   22  C12 UNL     1      23.660   3.111  50.718  1.00  0.00     0.035 A 
HETATM   23  C13 UNL     1      24.766   2.858  49.937  1.00  0.00     0.032 A 
HETATM   24  C14 UNL     1      25.682   3.773  49.524  1.00  0.00     0.046 A 
HETATM   25  C15 UNL     1      25.483   5.096  49.929  1.00  0.00     0.138 A 
HETATM   26  F1  UNL     1      26.381   6.036  49.535  1.00  0.00    -0.204 F 
HETATM   27  C16 UNL     1      24.390   5.401  50.712  1.00  0.00     0.074 A 
HETATM   28 CL1  UNL     1      24.167   7.072  51.207  1.00  0.00    -0.081 Cl
HETATM   29  C17 UNL     1      23.495   4.424  51.099  1.00  0.00     0.056 A 
ENDBRANCH  20  22
ENDBRANCH  13  20
BRANCH   1  30
HETATM   30  N1  UNL     1      20.709   3.116  52.707  1.00  0.00     0.089 NA
HETATM   31  H1  UNL     1      20.709   3.544  53.652  1.00  0.00     0.313 HD
HETATM   32  H2  UNL     1      20.410   3.812  52.013  1.00  0.00     0.313 HD
ENDBRANCH   1  30
TORSDOF 3
ENDMDL
MODEL 9
REMARK VINA RESULT:      -8.0      9.514     12.530
REMARK  3 active torsions:
REMARK  status: ('A' for Active; 'I' for Inactive)
REMARK    1  A    between atoms: N1_1  and  C1_2 
REMARK    2  A    between atoms: C11_14  and  N3_15 
REMARK    3  A    between atoms: N3_15  and  C12_16 
ROOT
HETATM    1  C1  UNL     1      30.817   9.262  48.937  1.00  0.00     0.277 C 
HETATM    2  C2  UNL     1      30.924   7.797  49.013  1.00  0.00     0.208 C 
HETATM    3  O1  UNL     1      32.053   7.297  49.713  1.00  0.00    -0.387 OA
HETATM    4  C3  UNL     1      32.383   5.998  49.261  1.00  0.00     0.197 C 
HETATM    5  C4  UNL     1      33.032   6.126  47.863  1.00  0.00     0.295 C 
HETATM    6  N2  UNL     1      32.211   6.744  46.891  1.00  0.00     0.085 N 
HETATM    7  C5  UNL     1      32.906   7.302  45.719  1.00  0.00     0.270 C 
HETATM    8  C6  UNL     1      31.828   8.239  45.016  1.00  0.00     0.036 C 
HETATM    9  C7  UNL     1      31.287   8.827  46.302  1.00  0.00     0.061 C 
HETATM   10  C8  UNL     1      30.280   9.818  46.429  1.00  0.00     0.043 C 
HETATM   11  C9  UNL     1      30.155   9.913  47.805  1.00  0.00     0.012 C 
HETATM   12  C10 UNL     1      28.957  10.736  48.076  1.00  0.00     0.012 A 
HETATM   13  C11 UNL     1      27.967  10.641  48.985  1.00  0.00     0.135 A 
HETATM   14  N4  UNL     1      26.991  11.685  48.779  1.00  0.00    -0.246 NA
HETATM   15  C18 UNL     1      27.376  12.421  47.768  1.00  0.00     0.107 A 
HETATM   16  C19 UNL     1      28.631  11.914  47.264  1.00  0.00     0.104 A 
HETATM   17  C20 UNL     1      28.828  11.654  45.853  1.00  0.00     0.105 C 
HETATM   18  N5  UNL     1      29.608  10.678  45.534  1.00  0.00    -0.268 NA
HETATM   19  H10 UNL     1      31.491   6.035  46.516  1.00  0.00     0.315 HD
ENDROOT
BRANCH  13  20
HETATM   20  N3  UNL     1      27.874   9.607  49.986  1.00  0.00    -0.341 N 
HETATM   21  H17 UNL     1      28.335   9.697  50.914  1.00  0.00     0.167 HD
BRANCH  20  22
HETATM   22  C12 UNL     1      27.136   8.409  49.714  1.00  0.00     0.035 A 
HETATM   23  C13 UNL     1      27.456   7.525  48.709  1.00  0.00     0.032 A 
HETATM   24  C14 UNL     1      26.789   6.379  48.409  1.00  0.00     0.046 A 
HETATM   25  C15 UNL     1      25.675   6.070  49.193  1.00  0.00     0.138 A 
HETATM   26  F1  UNL     1      24.985   4.932  48.919  1.00  0.00    -0.204 F 
HETATM   27  C16 UNL     1      25.314   6.924  50.213  1.00  0.00     0.074 A 
HETATM   28 CL1  UNL     1      23.908   6.510  51.182  1.00  0.00    -0.081 Cl
HETATM   29  C17 UNL     1      26.034   8.074  50.468  1.00  0.00     0.056 A 
ENDBRANCH  20  22
ENDBRANCH  13  20
BRANCH   1  30
HETATM   30  N1  UNL     1      30.604   9.898  50.213  1.00  0.00     0.089 NA
HETATM   31  H1  UNL     1      29.692   9.705  50.667  1.00  0.00     0.313 HD
HETATM   32  H2  UNL     1      30.743  10.914  50.135  1.00  0.00     0.313 HD
ENDBRANCH   1  30
TORSDOF 3
ENDMDL
