MODEL 1
REMARK VINA RESULT:      -8.6      0.000      0.000
REMARK  1 active torsions:
REMARK  status: ('A' for Active; 'I' for Inactive)
REMARK    1  A    between atoms: C12_15  and  N3_16 
ROOT
HETATM    1  O1  UNL     1      22.262  -1.990  55.098  1.00  0.00    -0.269 OA
HETATM    2  C1  UNL     1      22.767  -1.068  54.394  1.00  0.00     0.241 C 
HETATM    3  C2  UNL     1      24.058  -0.434  54.041  1.00  0.00     0.075 C 
HETATM    4  C3  UNL     1      24.399   0.630  53.340  1.00  0.00     0.017 C 
HETATM    5  C4  UNL     1      23.621   1.608  52.649  1.00  0.00    -0.027 A 
HETATM    6  C5  UNL     1      24.129   2.845  53.104  1.00  0.00     0.012 A 
HETATM    7  C6  UNL     1      23.708   4.131  52.762  1.00  0.00     0.001 A 
HETATM    8  C7  UNL     1      22.661   4.173  51.863  1.00  0.00     0.001 A 
HETATM    9  C8  UNL     1      22.131   2.993  51.388  1.00  0.00     0.010 A 
HETATM   10  C9  UNL     1      22.592   1.757  51.765  1.00  0.00    -0.019 A 
HETATM   11  C10 UNL     1      21.801   0.698  51.056  1.00  0.00     0.179 C 
HETATM   12  N1  UNL     1      21.918   0.986  49.625  1.00  0.00    -0.268 NA
HETATM   13  C11 UNL     1      20.990   1.311  48.867  1.00  0.00     0.230 C 
HETATM   14  N2  UNL     1      19.636   1.448  49.262  1.00  0.00    -0.224 NA
HETATM   15  C12 UNL     1      19.350   1.187  50.517  1.00  0.00     0.139 C 
HETATM   16  C18 UNL     1      20.396   0.624  51.422  1.00  0.00     0.015 C 
HETATM   17  C19 UNL     1      19.753   0.039  52.473  1.00  0.00     0.006 C 
HETATM   18  C20 UNL     1      19.997  -0.754  53.707  1.00  0.00     0.151 C 
HETATM   19  N4  UNL     1      21.393  -0.912  54.053  1.00  0.00    -0.354 N 
HETATM   20  H17 UNL     1      21.742  -0.169  53.452  1.00  0.00     0.163 HD
ENDROOT
BRANCH  15  21
HETATM   21  N3  UNL     1      17.961   1.393  50.738  1.00  0.00    -0.337 N 
HETATM   22  C13 UNL     1      17.424   2.478  51.494  1.00  0.00     0.112 A 
HETATM   23  C14 UNL     1      16.104   2.606  51.659  1.00  0.00     0.026 A 
HETATM   24 BR1  UNL     1      15.441   4.065  52.672  1.00  0.00    -0.050 Br
HETATM   25  C15 UNL     1      15.179   1.631  51.063  1.00  0.00     0.018 A 
HETATM   26  C16 UNL     1      15.676   0.630  50.366  1.00  0.00    -0.005 A 
HETATM   27  C17 UNL     1      17.111   0.384  50.114  1.00  0.00     0.157 A 
ENDBRANCH  15  21
TORSDOF 1
ENDMDL
MODEL 2
REMARK VINA RESULT:      -8.2      4.275      7.131
REMARK  1 active torsions:
REMARK  status: ('A' for Active; 'I' for Inactive)
REMARK    1  A    between atoms: C12_15  and  N3_16 
ROOT
HETATM    1  O1  UNL     1      25.728  -0.429  53.956  1.00  0.00    -0.269 OA
HETATM    2  C1  UNL     1      24.617  -0.088  53.457  1.00  0.00     0.241 C 
HETATM    3  C2  UNL     1      23.173  -0.419  53.471  1.00  0.00     0.075 C 
HETATM    4  C3  UNL     1      22.129  -0.007  52.778  1.00  0.00     0.017 C 
HETATM    5  C4  UNL     1      22.000   0.934  51.712  1.00  0.00    -0.027 A 
HETATM    6  C5  UNL     1      21.263   0.244  50.724  1.00  0.00     0.012 A 
HETATM    7  C6  UNL     1      20.877   0.697  49.461  1.00  0.00     0.001 A 
HETATM    8  C7  UNL     1      21.276   1.985  49.164  1.00  0.00     0.001 A 
HETATM    9  C8  UNL     1      21.996   2.700  50.096  1.00  0.00     0.010 A 
HETATM   10  C9  UNL     1      22.346   2.196  51.323  1.00  0.00    -0.019 A 
HETATM   11  C10 UNL     1      23.113   3.237  52.084  1.00  0.00     0.179 C 
HETATM   12  N1  UNL     1      22.260   4.425  52.130  1.00  0.00    -0.268 NA
HETATM   13  C11 UNL     1      22.505   5.522  51.601  1.00  0.00     0.230 C 
HETATM   14  N2  UNL     1      23.678   5.817  50.864  1.00  0.00    -0.224 NA
HETATM   15  C12 UNL     1      24.573   4.862  50.757  1.00  0.00     0.139 C 
HETATM   16  C18 UNL     1      24.406   3.590  51.521  1.00  0.00     0.015 C 
HETATM   17  C19 UNL     1      25.632   2.997  51.598  1.00  0.00     0.006 C 
HETATM   18  C20 UNL     1      26.338   1.827  52.186  1.00  0.00     0.151 C 
HETATM   19  N4  UNL     1      25.470   0.863  52.826  1.00  0.00    -0.354 N 
HETATM   20  H17 UNL     1      24.604   1.195  52.408  1.00  0.00     0.163 HD
ENDROOT
BRANCH  15  21
HETATM   21  N3  UNL     1      25.667   5.325  49.974  1.00  0.00    -0.337 N 
HETATM   22  C13 UNL     1      25.957   6.703  49.742  1.00  0.00     0.112 A 
HETATM   23  C14 UNL     1      27.004   7.063  48.994  1.00  0.00     0.026 A 
HETATM   24 BR1  UNL     1      27.346   8.907  48.718  1.00  0.00    -0.050 Br
HETATM   25  C15 UNL     1      27.878   6.043  48.395  1.00  0.00     0.018 A 
HETATM   26  C16 UNL     1      27.608   4.772  48.608  1.00  0.00    -0.005 A 
HETATM   27  C17 UNL     1      26.485   4.253  49.415  1.00  0.00     0.157 A 
ENDBRANCH  15  21
TORSDOF 1
ENDMDL
MODEL 3
REMARK VINA RESULT:      -8.2      4.074      5.823
REMARK  1 active torsions:
REMARK  status: ('A' for Active; 'I' for Inactive)
REMARK    1  A    between atoms: C12_15  and  N3_16 
ROOT
HETATM    1  O1  UNL     1      27.824   2.565  51.962  1.00  0.00    -0.269 OA
HETATM    2  C1  UNL     1      26.696   2.201  52.405  1.00  0.00     0.241 C 
HETATM    3  C2  UNL     1      26.046   1.547  53.564  1.00  0.00     0.075 C 
HETATM    4  C3  UNL     1      24.819   1.139  53.820  1.00  0.00     0.017 C 
HETATM    5  C4  UNL     1      23.622   1.164  53.042  1.00  0.00    -0.027 A 
HETATM    6  C5  UNL     1      23.125  -0.156  53.121  1.00  0.00     0.012 A 
HETATM    7  C6  UNL     1      21.984  -0.688  52.519  1.00  0.00     0.001 A 
HETATM    8  C7  UNL     1      21.265   0.209  51.753  1.00  0.00     0.001 A 
HETATM    9  C8  UNL     1      21.709   1.509  51.645  1.00  0.00     0.010 A 
HETATM   10  C9  UNL     1      22.843   1.971  52.264  1.00  0.00    -0.019 A 
HETATM   11  C10 UNL     1      23.024   3.425  51.941  1.00  0.00     0.179 C 
HETATM   12  N1  UNL     1      21.788   4.094  52.349  1.00  0.00    -0.268 NA
HETATM   13  C11 UNL     1      20.983   4.665  51.595  1.00  0.00     0.230 C 
HETATM   14  N2  UNL     1      21.135   4.779  50.191  1.00  0.00    -0.224 NA
HETATM   15  C12 UNL     1      22.220   4.259  49.663  1.00  0.00     0.139 C 
HETATM   16  C18 UNL     1      23.298   3.721  50.546  1.00  0.00     0.015 C 
HETATM   17  C19 UNL     1      24.444   3.678  49.807  1.00  0.00     0.006 C 
HETATM   18  C20 UNL     1      25.894   3.361  49.904  1.00  0.00     0.151 C 
HETATM   19  N4  UNL     1      26.298   2.776  51.164  1.00  0.00    -0.354 N 
HETATM   20  H17 UNL     1      25.362   2.524  51.476  1.00  0.00     0.163 HD
ENDROOT
BRANCH  15  21
HETATM   21  N3  UNL     1      22.197   4.449  48.254  1.00  0.00    -0.337 N 
HETATM   22  C13 UNL     1      22.498   5.686  47.609  1.00  0.00     0.112 A 
HETATM   23  C14 UNL     1      22.455   5.788  46.277  1.00  0.00     0.026 A 
HETATM   24 BR1  UNL     1      22.863   7.453  45.469  1.00  0.00    -0.050 Br
HETATM   25  C15 UNL     1      22.096   4.626  45.451  1.00  0.00     0.018 A 
HETATM   26  C16 UNL     1      21.817   3.486  46.048  1.00  0.00    -0.005 A 
HETATM   27  C17 UNL     1      21.832   3.250  47.506  1.00  0.00     0.157 A 
ENDBRANCH  15  21
TORSDOF 1
ENDMDL
MODEL 4
REMARK VINA RESULT:      -7.6      4.809      7.287
REMARK  1 active torsions:
REMARK  status: ('A' for Active; 'I' for Inactive)
REMARK    1  A    between atoms: C12_15  and  N3_16 
ROOT
HETATM    1  O1  UNL     1      21.449   3.433  45.377  1.00  0.00    -0.269 OA
HETATM    2  C1  UNL     1      21.965   4.389  46.026  1.00  0.00     0.241 C 
HETATM    3  C2  UNL     1      22.268   5.837  45.942  1.00  0.00     0.075 C 
HETATM    4  C3  UNL     1      22.933   6.682  46.704  1.00  0.00     0.017 C 
HETATM    5  C4  UNL     1      23.646   6.507  47.929  1.00  0.00    -0.027 A 
HETATM    6  C5  UNL     1      24.900   7.115  47.694  1.00  0.00     0.012 A 
HETATM    7  C6  UNL     1      25.991   7.208  48.559  1.00  0.00     0.001 A 
HETATM    8  C7  UNL     1      25.797   6.624  49.796  1.00  0.00     0.001 A 
HETATM    9  C8  UNL     1      24.590   6.019  50.073  1.00  0.00     0.010 A 
HETATM   10  C9  UNL     1      23.554   5.962  49.176  1.00  0.00    -0.019 A 
HETATM   11  C10 UNL     1      22.396   5.244  49.805  1.00  0.00     0.179 C 
HETATM   12  N1  UNL     1      22.093   5.959  51.046  1.00  0.00    -0.268 NA
HETATM   13  C11 UNL     1      22.199   5.502  52.196  1.00  0.00     0.230 C 
HETATM   14  N2  UNL     1      22.625   4.188  52.506  1.00  0.00    -0.224 NA
HETATM   15  C12 UNL     1      22.903   3.395  51.496  1.00  0.00     0.139 C 
HETATM   16  C18 UNL     1      22.623   3.839  50.098  1.00  0.00     0.015 C 
HETATM   17  C19 UNL     1      22.564   2.719  49.321  1.00  0.00     0.006 C 
HETATM   18  C20 UNL     1      22.289   2.265  47.931  1.00  0.00     0.151 C 
HETATM   19  N4  UNL     1      22.126   3.336  46.971  1.00  0.00    -0.354 N 
HETATM   20  H17 UNL     1      22.536   4.068  47.548  1.00  0.00     0.163 HD
ENDROOT
BRANCH  15  21
HETATM   21  N3  UNL     1      23.329   2.132  51.990  1.00  0.00    -0.337 N 
HETATM   22  C13 UNL     1      24.671   1.652  51.907  1.00  0.00     0.112 A 
HETATM   23  C14 UNL     1      24.996   0.451  52.394  1.00  0.00     0.026 A 
HETATM   24 BR1  UNL     1      26.793  -0.140  52.259  1.00  0.00    -0.050 Br
HETATM   25  C15 UNL     1      23.977  -0.399  53.026  1.00  0.00     0.018 A 
HETATM   26  C16 UNL     1      22.740   0.045  53.101  1.00  0.00    -0.005 A 
HETATM   27  C17 UNL     1      22.260   1.349  52.602  1.00  0.00     0.157 A 
ENDBRANCH  15  21
TORSDOF 1
ENDMDL
MODEL 5
REMARK VINA RESULT:      -7.4     10.011     13.201
REMARK  1 active torsions:
REMARK  status: ('A' for Active; 'I' for Inactive)
REMARK    1  A    between atoms: C12_15  and  N3_16 
ROOT
HETATM    1  O1  UNL     1      25.652   4.666  49.393  1.00  0.00    -0.269 OA
HETATM    2  C1  UNL     1      25.725   5.737  48.723  1.00  0.00     0.241 C 
HETATM    3  C2  UNL     1      24.910   6.875  48.238  1.00  0.00     0.075 C 
HETATM    4  C3  UNL     1      25.140   7.891  47.429  1.00  0.00     0.017 C 
HETATM    5  C4  UNL     1      26.295   8.276  46.683  1.00  0.00    -0.027 A 
HETATM    6  C5  UNL     1      25.810   8.495  45.375  1.00  0.00     0.012 A 
HETATM    7  C6  UNL     1      26.529   8.868  44.238  1.00  0.00     0.001 A 
HETATM    8  C7  UNL     1      27.883   9.040  44.443  1.00  0.00     0.001 A 
HETATM    9  C8  UNL     1      28.405   8.839  45.703  1.00  0.00     0.010 A 
HETATM   10  C9  UNL     1      27.642   8.471  46.782  1.00  0.00    -0.019 A 
HETATM   11  C10 UNL     1      28.524   8.349  47.990  1.00  0.00     0.179 C 
HETATM   12  N1  UNL     1      29.207   9.636  48.132  1.00  0.00    -0.268 NA
HETATM   13  C11 UNL     1      30.430   9.829  48.028  1.00  0.00     0.230 C 
HETATM   14  N2  UNL     1      31.386   8.819  47.763  1.00  0.00    -0.224 NA
HETATM   15  C12 UNL     1      30.939   7.589  47.643  1.00  0.00     0.139 C 
HETATM   16  C18 UNL     1      29.507   7.281  47.935  1.00  0.00     0.015 C 
HETATM   17  C19 UNL     1      29.421   5.942  48.179  1.00  0.00     0.006 C 
HETATM   18  C20 UNL     1      28.461   4.880  48.583  1.00  0.00     0.151 C 
HETATM   19  N4  UNL     1      27.082   5.312  48.653  1.00  0.00    -0.354 N 
HETATM   20  H17 UNL     1      27.207   6.172  48.122  1.00  0.00     0.163 HD
ENDROOT
BRANCH  15  21
HETATM   21  N3  UNL     1      32.027   6.717  47.362  1.00  0.00    -0.337 N 
HETATM   22  C13 UNL     1      32.324   6.203  46.064  1.00  0.00     0.112 A 
HETATM   23  C14 UNL     1      33.365   5.387  45.876  1.00  0.00     0.026 A 
HETATM   24 BR1  UNL     1      33.718   4.733  44.132  1.00  0.00    -0.050 Br
HETATM   25  C15 UNL     1      34.224   5.001  47.006  1.00  0.00     0.018 A 
HETATM   26  C16 UNL     1      33.947   5.475  48.203  1.00  0.00    -0.005 A 
HETATM   27  C17 UNL     1      32.830   6.382  48.534  1.00  0.00     0.157 A 
ENDBRANCH  15  21
TORSDOF 1
ENDMDL
MODEL 6
REMARK VINA RESULT:      -7.4      4.804      7.207
REMARK  1 active torsions:
REMARK  status: ('A' for Active; 'I' for Inactive)
REMARK    1  A    between atoms: C12_15  and  N3_16 
ROOT
HETATM    1  O1  UNL     1      27.583   2.533  51.778  1.00  0.00    -0.269 OA
HETATM    2  C1  UNL     1      26.331   2.372  51.861  1.00  0.00     0.241 C 
HETATM    3  C2  UNL     1      25.292   1.600  52.582  1.00  0.00     0.075 C 
HETATM    4  C3  UNL     1      23.985   1.483  52.460  1.00  0.00     0.017 C 
HETATM    5  C4  UNL     1      23.053   2.066  51.549  1.00  0.00    -0.027 A 
HETATM    6  C5  UNL     1      22.302   0.971  51.067  1.00  0.00     0.012 A 
HETATM    7  C6  UNL     1      21.269   0.978  50.128  1.00  0.00     0.001 A 
HETATM    8  C7  UNL     1      20.960   2.224  49.621  1.00  0.00     0.001 A 
HETATM    9  C8  UNL     1      21.664   3.324  50.061  1.00  0.00     0.010 A 
HETATM   10  C9  UNL     1      22.672   3.250  50.988  1.00  0.00    -0.019 A 
HETATM   11  C10 UNL     1      23.212   4.627  51.241  1.00  0.00     0.179 C 
HETATM   12  N1  UNL     1      22.069   5.450  51.641  1.00  0.00    -0.268 NA
HETATM   13  C11 UNL     1      21.611   6.419  51.014  1.00  0.00     0.230 C 
HETATM   14  N2  UNL     1      22.134   6.908  49.791  1.00  0.00    -0.224 NA
HETATM   15  C12 UNL     1      23.193   6.299  49.307  1.00  0.00     0.139 C 
HETATM   16  C18 UNL     1      23.883   5.247  50.111  1.00  0.00     0.015 C 
HETATM   17  C19 UNL     1      25.147   5.120  49.614  1.00  0.00     0.006 C 
HETATM   18  C20 UNL     1      26.434   4.408  49.839  1.00  0.00     0.151 C 
HETATM   19  N4  UNL     1      26.381   3.382  50.858  1.00  0.00    -0.354 N 
HETATM   20  H17 UNL     1      25.367   3.311  50.894  1.00  0.00     0.163 HD
ENDROOT
BRANCH  15  21
HETATM   21  N3  UNL     1      23.565   6.905  48.076  1.00  0.00    -0.337 N 
HETATM   22  C13 UNL     1      22.904   6.664  46.834  1.00  0.00     0.112 A 
HETATM   23  C14 UNL     1      23.311   7.272  45.716  1.00  0.00     0.026 A 
HETATM   24 BR1  UNL     1      22.398   6.918  44.093  1.00  0.00    -0.050 Br
HETATM   25  C15 UNL     1      24.449   8.202  45.745  1.00  0.00     0.018 A 
HETATM   26  C16 UNL     1      25.059   8.422  46.891  1.00  0.00    -0.005 A 
HETATM   27  C17 UNL     1      24.702   7.813  48.188  1.00  0.00     0.157 A 
ENDBRANCH  15  21
TORSDOF 1
ENDMDL
MODEL 7
REMARK VINA RESULT:      -7.4      5.634      7.795
REMARK  1 active torsions:
REMARK  status: ('A' for Active; 'I' for Inactive)
REMARK    1  A    between atoms: C12_15  and  N3_16 
ROOT
HETATM    1  O1  UNL     1      23.647   8.669  44.998  1.00  0.00    -0.269 OA
HETATM    2  C1  UNL     1      24.513   8.364  45.868  1.00  0.00     0.241 C 
HETATM    3  C2  UNL     1      25.837   8.767  46.398  1.00  0.00     0.075 C 
HETATM    4  C3  UNL     1      26.671   8.248  47.277  1.00  0.00     0.017 C 
HETATM    5  C4  UNL     1      26.614   7.057  48.062  1.00  0.00    -0.027 A 
HETATM    6  C5  UNL     1      27.860   6.430  47.839  1.00  0.00     0.012 A 
HETATM    7  C6  UNL     1      28.320   5.215  48.350  1.00  0.00     0.001 A 
HETATM    8  C7  UNL     1      27.427   4.563  49.177  1.00  0.00     0.001 A 
HETATM    9  C8  UNL     1      26.199   5.134  49.426  1.00  0.00     0.010 A 
HETATM   10  C9  UNL     1      25.805   6.335  48.891  1.00  0.00    -0.019 A 
HETATM   11  C10 UNL     1      24.423   6.661  49.374  1.00  0.00     0.179 C 
HETATM   12  N1  UNL     1      24.481   6.632  50.836  1.00  0.00    -0.268 NA
HETATM   13  C11 UNL     1      23.879   5.835  51.576  1.00  0.00     0.230 C 
HETATM   14  N2  UNL     1      23.012   4.812  51.122  1.00  0.00    -0.224 NA
HETATM   15  C12 UNL     1      22.819   4.723  49.825  1.00  0.00     0.139 C 
HETATM   16  C18 UNL     1      23.377   5.765  48.912  1.00  0.00     0.015 C 
HETATM   17  C19 UNL     1      22.675   5.698  47.744  1.00  0.00     0.006 C 
HETATM   18  C20 UNL     1      22.534   6.358  46.419  1.00  0.00     0.151 C 
HETATM   19  N4  UNL     1      23.532   7.369  46.142  1.00  0.00    -0.354 N 
HETATM   20  H17 UNL     1      24.182   7.089  46.873  1.00  0.00     0.163 HD
ENDROOT
BRANCH  15  21
HETATM   21  N3  UNL     1      21.942   3.637  49.552  1.00  0.00    -0.337 N 
HETATM   22  C13 UNL     1      20.526   3.692  49.719  1.00  0.00     0.112 A 
HETATM   23  C14 UNL     1      19.765   2.629  49.442  1.00  0.00     0.026 A 
HETATM   24 BR1  UNL     1      17.888   2.754  49.681  1.00  0.00    -0.050 Br
HETATM   25  C15 UNL     1      20.374   1.382  48.958  1.00  0.00     0.018 A 
HETATM   26  C16 UNL     1      21.681   1.332  48.805  1.00  0.00    -0.005 A 
HETATM   27  C17 UNL     1      22.623   2.437  49.076  1.00  0.00     0.157 A 
ENDBRANCH  15  21
TORSDOF 1
ENDMDL
MODEL 8
REMARK VINA RESULT:      -7.3      2.732      3.506
REMARK  1 active torsions:
REMARK  status: ('A' for Active; 'I' for Inactive)
REMARK    1  A    between atoms: C12_15  and  N3_16 
ROOT
HETATM    1  O1  UNL     1      25.636   0.781  53.017  1.00  0.00    -0.269 OA
HETATM    2  C1  UNL     1      25.659   1.551  52.013  1.00  0.00     0.241 C 
HETATM    3  C2  UNL     1      26.582   2.209  51.059  1.00  0.00     0.075 C 
HETATM    4  C3  UNL     1      26.430   3.099  50.099  1.00  0.00     0.017 C 
HETATM    5  C4  UNL     1      25.282   3.795  49.614  1.00  0.00    -0.027 A 
HETATM    6  C5  UNL     1      25.678   5.151  49.591  1.00  0.00     0.012 A 
HETATM    7  C6  UNL     1      24.924   6.265  49.219  1.00  0.00     0.001 A 
HETATM    8  C7  UNL     1      23.631   5.981  48.828  1.00  0.00     0.001 A 
HETATM    9  C8  UNL     1      23.197   4.674  48.832  1.00  0.00     0.010 A 
HETATM   10  C9  UNL     1      23.990   3.620  49.210  1.00  0.00    -0.019 A 
HETATM   11  C10 UNL     1      23.208   2.345  49.088  1.00  0.00     0.179 C 
HETATM   12  N1  UNL     1      22.730   2.287  47.705  1.00  0.00    -0.268 NA
HETATM   13  C11 UNL     1      21.543   2.322  47.340  1.00  0.00     0.230 C 
HETATM   14  N2  UNL     1      20.433   2.412  48.216  1.00  0.00    -0.224 NA
HETATM   15  C12 UNL     1      20.688   2.437  49.504  1.00  0.00     0.139 C 
HETATM   16  C18 UNL     1      22.081   2.219  49.996  1.00  0.00     0.015 C 
HETATM   17  C19 UNL     1      21.996   1.845  51.305  1.00  0.00     0.006 C 
HETATM   18  C20 UNL     1      22.826   1.405  52.458  1.00  0.00     0.151 C 
HETATM   19  N4  UNL     1      24.253   1.479  52.234  1.00  0.00    -0.354 N 
HETATM   20  H17 UNL     1      24.208   2.085  51.417  1.00  0.00     0.163 HD
ENDROOT
BRANCH  15  21
HETATM   21  N3  UNL     1      19.467   2.547  50.225  1.00  0.00    -0.337 N 
HETATM   22  C13 UNL     1      18.653   1.434  50.593  1.00  0.00     0.112 A 
HETATM   23  C14 UNL     1      17.516   1.615  51.272  1.00  0.00     0.026 A 
HETATM   24 BR1  UNL     1      16.472   0.104  51.737  1.00  0.00    -0.050 Br
HETATM   25  C15 UNL     1      17.083   2.968  51.652  1.00  0.00     0.018 A 
HETATM   26  C16 UNL     1      17.834   3.994  51.310  1.00  0.00    -0.005 A 
HETATM   27  C17 UNL     1      19.107   3.920  50.564  1.00  0.00     0.157 A 
ENDBRANCH  15  21
TORSDOF 1
ENDMDL
MODEL 9
REMARK VINA RESULT:      -7.2     12.559     14.892
REMARK  1 active torsions:
REMARK  status: ('A' for Active; 'I' for Inactive)
REMARK    1  A    between atoms: C12_15  and  N3_16 
ROOT
HETATM    1  O1  UNL     1      32.398   6.948  41.743  1.00  0.00    -0.269 OA
HETATM    2  C1  UNL     1      32.913   6.274  42.682  1.00  0.00     0.241 C 
HETATM    3  C2  UNL     1      33.884   5.189  42.953  1.00  0.00     0.075 C 
HETATM    4  C3  UNL     1      34.232   4.515  44.032  1.00  0.00     0.017 C 
HETATM    5  C4  UNL     1      33.776   4.573  45.383  1.00  0.00    -0.027 A 
HETATM    6  C5  UNL     1      33.498   3.229  45.717  1.00  0.00     0.012 A 
HETATM    7  C6  UNL     1      33.000   2.722  46.919  1.00  0.00     0.001 A 
HETATM    8  C7  UNL     1      32.757   3.675  47.889  1.00  0.00     0.001 A 
HETATM    9  C8  UNL     1      33.013   5.000  47.612  1.00  0.00     0.010 A 
HETATM   10  C9  UNL     1      33.504   5.434  46.406  1.00  0.00    -0.019 A 
HETATM   11  C10 UNL     1      33.671   6.925  46.451  1.00  0.00     0.179 C 
HETATM   12  N1  UNL     1      34.532   7.208  47.600  1.00  0.00    -0.268 NA
HETATM   13  C11 UNL     1      34.205   7.837  48.620  1.00  0.00     0.230 C 
HETATM   14  N2  UNL     1      32.927   8.408  48.840  1.00  0.00    -0.224 NA
HETATM   15  C12 UNL     1      32.040   8.276  47.881  1.00  0.00     0.139 C 
HETATM   16  C18 UNL     1      32.439   7.684  46.569  1.00  0.00     0.015 C 
HETATM   17  C19 UNL     1      31.509   8.073  45.649  1.00  0.00     0.006 C 
HETATM   18  C20 UNL     1      31.188   7.998  44.198  1.00  0.00     0.151 C 
HETATM   19  N4  UNL     1      32.057   7.129  43.435  1.00  0.00    -0.354 N 
HETATM   20  H17 UNL     1      32.450   6.634  44.233  1.00  0.00     0.163 HD
ENDROOT
BRANCH  15  21
HETATM   21  N3  UNL     1      30.819   8.888  48.278  1.00  0.00    -0.337 N 
HETATM   22  C13 UNL     1      30.622  10.300  48.355  1.00  0.00     0.112 A 
HETATM   23  C14 UNL     1      29.444  10.803  48.738  1.00  0.00     0.026 A 
HETATM   24 BR1  UNL     1      29.233  12.685  48.824  1.00  0.00    -0.050 Br
HETATM   25  C15 UNL     1      28.330   9.910  49.088  1.00  0.00     0.018 A 
HETATM   26  C16 UNL     1      28.514   8.608  49.017  1.00  0.00    -0.005 A 
HETATM   27  C17 UNL     1      29.764   7.936  48.608  1.00  0.00     0.157 A 
ENDBRANCH  15  21
TORSDOF 1
ENDMDL
