MODEL 1
REMARK VINA RESULT:      -8.7      0.000      0.000
REMARK  4 active torsions:
REMARK  status: ('A' for Active; 'I' for Inactive)
REMARK    1  A    between atoms: O1_2  and  C2_3 
REMARK    2  A    between atoms: C14_15  and  N1_16 
REMARK    3  A    between atoms: N1_16  and  S1_17 
REMARK    4  A    between atoms: C15_19  and  O2_20 
ROOT
HETATM    1  C2  UNL     1      20.226  -0.286  53.664  1.00  0.00     0.069 A 
HETATM    2  C3  UNL     1      20.931  -1.365  54.150  1.00  0.00     0.037 A 
HETATM    3  C4  UNL     1      22.303  -1.482  54.102  1.00  0.00     0.017 A 
HETATM    4  C5  UNL     1      22.957  -0.424  53.519  1.00  0.00    -0.001 A 
HETATM    5  C6  UNL     1      22.225   0.639  53.046  1.00  0.00    -0.022 A 
HETATM    6  C7  UNL     1      20.871   0.781  53.081  1.00  0.00     0.049 A 
HETATM    7  C8  UNL     1      23.016   1.711  52.482  1.00  0.00     0.009 C 
HETATM    8  C9  UNL     1      23.914   2.175  51.661  1.00  0.00    -0.022 C 
HETATM    9  C10 UNL     1      24.892   2.793  50.795  1.00  0.00     0.054 C 
HETATM   10  C11 UNL     1      26.265   2.263  50.940  1.00  0.00    -0.022 C 
HETATM   11  C12 UNL     1      26.764   1.308  51.716  1.00  0.00     0.007 C 
HETATM   12  C13 UNL     1      26.287   0.373  52.724  1.00  0.00    -0.006 C 
HETATM   13  C14 UNL     1      26.368   0.290  54.071  1.00  0.00     0.141 C 
HETATM   14  N3  UNL     1      25.110  -0.311  54.494  1.00  0.00    -0.234 NA
HETATM   15  C16 UNL     1      24.398  -0.534  53.437  1.00  0.00     0.052 C 
HETATM   16  C17 UNL     1      25.483  -0.852  52.433  1.00  0.00     0.102 C 
ENDROOT
BRANCH  13  17
HETATM   17  N1  UNL     1      27.508   0.748  54.801  1.00  0.00    -0.307 N 
HETATM   18  H13 UNL     1      27.332   1.164  55.751  1.00  0.00     0.176 HD
BRANCH  17  19
HETATM   19  S1  UNL     1      28.958   0.606  54.141  1.00  0.00     0.015 SA
HETATM   20  N2  UNL     1      30.239   0.105  53.625  1.00  0.00    -0.123 NA
HETATM   21  C15 UNL     1      29.673  -1.088  54.102  1.00  0.00     0.310 A 
BRANCH  21  22
HETATM   22  O2  UNL     1      28.977  -1.952  53.285  1.00  0.00    -0.368 OA
HETATM   23  H15 UNL     1      28.322  -2.440  53.845  1.00  0.00     0.212 HD
ENDBRANCH  21  22
ENDBRANCH  17  19
ENDBRANCH  13  17
BRANCH   1  24
HETATM   24  O1  UNL     1      18.853  -0.276  53.766  1.00  0.00    -0.356 OA
HETATM   25  C1  UNL     1      18.096  -1.288  53.184  1.00  0.00     0.210 C 
ENDBRANCH   1  24
TORSDOF 4
ENDMDL
MODEL 2
REMARK VINA RESULT:      -8.5      3.757      7.572
REMARK  4 active torsions:
REMARK  status: ('A' for Active; 'I' for Inactive)
REMARK    1  A    between atoms: O1_2  and  C2_3 
REMARK    2  A    between atoms: C14_15  and  N1_16 
REMARK    3  A    between atoms: N1_16  and  S1_17 
REMARK    4  A    between atoms: C15_19  and  O2_20 
ROOT
HETATM    1  C2  UNL     1      26.621  -0.369  53.638  1.00  0.00     0.069 A 
HETATM    2  C3  UNL     1      26.635   0.473  52.548  1.00  0.00     0.037 A 
HETATM    3  C4  UNL     1      25.506   1.000  51.959  1.00  0.00     0.017 A 
HETATM    4  C5  UNL     1      24.319   0.625  52.540  1.00  0.00    -0.001 A 
HETATM    5  C6  UNL     1      24.339  -0.215  53.627  1.00  0.00    -0.022 A 
HETATM    6  C7  UNL     1      25.438  -0.750  54.229  1.00  0.00     0.049 A 
HETATM    7  C8  UNL     1      23.036  -0.519  54.177  1.00  0.00     0.009 C 
HETATM    8  C9  UNL     1      21.810  -0.947  54.076  1.00  0.00    -0.022 C 
HETATM    9  C10 UNL     1      20.438  -1.400  54.074  1.00  0.00     0.054 C 
HETATM   10  C11 UNL     1      19.545  -0.653  53.162  1.00  0.00    -0.022 C 
HETATM   11  C12 UNL     1      19.777   0.355  52.330  1.00  0.00     0.007 C 
HETATM   12  C13 UNL     1      20.904   1.175  51.911  1.00  0.00    -0.006 C 
HETATM   13  C14 UNL     1      21.316   2.439  52.158  1.00  0.00     0.141 C 
HETATM   14  N3  UNL     1      22.772   2.374  52.157  1.00  0.00    -0.234 NA
HETATM   15  C16 UNL     1      23.118   1.149  51.925  1.00  0.00     0.052 C 
HETATM   16  C17 UNL     1      21.998   0.714  51.005  1.00  0.00     0.102 C 
ENDROOT
BRANCH  13  17
HETATM   17  N1  UNL     1      20.402   3.517  52.371  1.00  0.00    -0.307 N 
HETATM   18  H13 UNL     1      20.388   3.949  53.329  1.00  0.00     0.176 HD
BRANCH  17  19
HETATM   19  S1  UNL     1      19.470   3.990  51.160  1.00  0.00     0.015 SA
HETATM   20  N2  UNL     1      18.348   4.226  50.242  1.00  0.00    -0.123 NA
HETATM   21  C15 UNL     1      17.717   3.438  51.218  1.00  0.00     0.310 A 
BRANCH  21  22
HETATM   22  O2  UNL     1      17.009   3.988  52.265  1.00  0.00    -0.368 OA
HETATM   23  H15 UNL     1      16.136   4.297  51.913  1.00  0.00     0.212 HD
ENDBRANCH  21  22
ENDBRANCH  17  19
ENDBRANCH  13  17
BRANCH   1  24
HETATM   24  O1  UNL     1      27.813  -0.838  54.144  1.00  0.00    -0.356 OA
HETATM   25  C1  UNL     1      28.769   0.049  54.629  1.00  0.00     0.210 C 
ENDBRANCH   1  24
TORSDOF 4
ENDMDL
MODEL 3
REMARK VINA RESULT:      -8.4      3.773      6.727
REMARK  4 active torsions:
REMARK  status: ('A' for Active; 'I' for Inactive)
REMARK    1  A    between atoms: O1_2  and  C2_3 
REMARK    2  A    between atoms: C14_15  and  N1_16 
REMARK    3  A    between atoms: N1_16  and  S1_17 
REMARK    4  A    between atoms: C15_19  and  O2_20 
ROOT
HETATM    1  C2  UNL     1      27.107  -0.587  53.381  1.00  0.00     0.069 A 
HETATM    2  C3  UNL     1      27.309   0.268  52.320  1.00  0.00     0.037 A 
HETATM    3  C4  UNL     1      26.318   1.020  51.728  1.00  0.00     0.017 A 
HETATM    4  C5  UNL     1      25.067   0.865  52.273  1.00  0.00    -0.001 A 
HETATM    5  C6  UNL     1      24.898   0.005  53.333  1.00  0.00    -0.022 A 
HETATM    6  C7  UNL     1      25.858  -0.748  53.937  1.00  0.00     0.049 A 
HETATM    7  C8  UNL     1      23.548  -0.057  53.848  1.00  0.00     0.009 C 
HETATM    8  C9  UNL     1      22.266  -0.238  53.710  1.00  0.00    -0.022 C 
HETATM    9  C10 UNL     1      20.832  -0.418  53.667  1.00  0.00     0.054 C 
HETATM   10  C11 UNL     1      20.122   0.513  52.764  1.00  0.00    -0.022 C 
HETATM   11  C12 UNL     1      20.564   1.481  51.970  1.00  0.00     0.007 C 
HETATM   12  C13 UNL     1      21.838   2.080  51.600  1.00  0.00    -0.006 C 
HETATM   13  C14 UNL     1      22.479   3.233  51.895  1.00  0.00     0.141 C 
HETATM   14  N3  UNL     1      23.894   2.889  51.920  1.00  0.00    -0.234 NA
HETATM   15  C16 UNL     1      24.004   1.628  51.654  1.00  0.00     0.052 C 
HETATM   16  C17 UNL     1      22.845   1.442  50.700  1.00  0.00     0.102 C 
ENDROOT
BRANCH  13  17
HETATM   17  N1  UNL     1      21.784   4.460  52.126  1.00  0.00    -0.307 N 
HETATM   18  H13 UNL     1      21.084   4.473  52.911  1.00  0.00     0.176 HD
BRANCH  17  19
HETATM   19  S1  UNL     1      22.105   5.718  51.192  1.00  0.00     0.015 SA
HETATM   20  N2  UNL     1      22.731   6.869  50.528  1.00  0.00    -0.123 NA
HETATM   21  C15 UNL     1      23.749   6.507  51.424  1.00  0.00     0.310 A 
BRANCH  21  22
HETATM   22  O2  UNL     1      24.799   5.692  51.058  1.00  0.00    -0.368 OA
HETATM   23  H15 UNL     1      24.554   5.242  50.210  1.00  0.00     0.212 HD
ENDBRANCH  21  22
ENDBRANCH  17  19
ENDBRANCH  13  17
BRANCH   1  24
HETATM   24  O1  UNL     1      28.174  -1.290  53.894  1.00  0.00    -0.356 OA
HETATM   25  C1  UNL     1      29.455  -0.747  53.867  1.00  0.00     0.210 C 
ENDBRANCH   1  24
TORSDOF 4
ENDMDL
MODEL 4
REMARK VINA RESULT:      -8.4      3.187      5.238
REMARK  4 active torsions:
REMARK  status: ('A' for Active; 'I' for Inactive)
REMARK    1  A    between atoms: O1_2  and  C2_3 
REMARK    2  A    between atoms: C14_15  and  N1_16 
REMARK    3  A    between atoms: N1_16  and  S1_17 
REMARK    4  A    between atoms: C15_19  and  O2_20 
ROOT
HETATM    1  C2  UNL     1      23.174   4.847  48.211  1.00  0.00     0.069 A 
HETATM    2  C3  UNL     1      24.313   5.278  48.856  1.00  0.00     0.037 A 
HETATM    3  C4  UNL     1      24.911   4.613  49.903  1.00  0.00     0.017 A 
HETATM    4  C5  UNL     1      24.287   3.451  50.287  1.00  0.00    -0.001 A 
HETATM    5  C6  UNL     1      23.152   3.047  49.623  1.00  0.00    -0.022 A 
HETATM    6  C7  UNL     1      22.541   3.684  48.586  1.00  0.00     0.049 A 
HETATM    7  C8  UNL     1      22.596   1.796  50.089  1.00  0.00     0.009 C 
HETATM    8  C9  UNL     1      22.131   1.014  51.020  1.00  0.00    -0.022 C 
HETATM    9  C10 UNL     1      21.599   0.067  51.974  1.00  0.00     0.054 C 
HETATM   10  C11 UNL     1      22.525  -0.283  53.073  1.00  0.00    -0.022 C 
HETATM   11  C12 UNL     1      23.756   0.125  53.353  1.00  0.00     0.007 C 
HETATM   12  C13 UNL     1      24.748   1.033  52.797  1.00  0.00    -0.006 C 
HETATM   13  C14 UNL     1      25.899   0.891  52.102  1.00  0.00     0.141 C 
HETATM   14  N3  UNL     1      25.947   2.034  51.201  1.00  0.00    -0.234 NA
HETATM   15  C16 UNL     1      24.885   2.746  51.400  1.00  0.00     0.052 C 
HETATM   16  C17 UNL     1      24.675   2.523  52.882  1.00  0.00     0.102 C 
ENDROOT
BRANCH  13  17
HETATM   17  N1  UNL     1      26.785  -0.213  52.303  1.00  0.00    -0.307 N 
HETATM   18  H13 UNL     1      26.853  -0.919  51.527  1.00  0.00     0.176 HD
BRANCH  17  19
HETATM   19  S1  UNL     1      27.604  -0.307  53.674  1.00  0.00     0.015 SA
HETATM   20  N2  UNL     1      28.644  -0.270  54.710  1.00  0.00    -0.123 NA
HETATM   21  C15 UNL     1      29.377   0.172  53.598  1.00  0.00     0.310 A 
BRANCH  21  22
HETATM   22  O2  UNL     1      29.567   1.510  53.324  1.00  0.00    -0.368 OA
HETATM   23  H15 UNL     1      30.417   1.790  53.748  1.00  0.00     0.212 HD
ENDBRANCH  21  22
ENDBRANCH  17  19
ENDBRANCH  13  17
BRANCH   1  24
HETATM   24  O1  UNL     1      22.661   5.595  47.174  1.00  0.00    -0.356 OA
HETATM   25  C1  UNL     1      21.868   4.996  46.200  1.00  0.00     0.210 C 
ENDBRANCH   1  24
TORSDOF 4
ENDMDL
MODEL 5
REMARK VINA RESULT:      -8.1      3.449      6.768
REMARK  4 active torsions:
REMARK  status: ('A' for Active; 'I' for Inactive)
REMARK    1  A    between atoms: O1_2  and  C2_3 
REMARK    2  A    between atoms: C14_15  and  N1_16 
REMARK    3  A    between atoms: N1_16  and  S1_17 
REMARK    4  A    between atoms: C15_19  and  O2_20 
ROOT
HETATM    1  C2  UNL     1      27.503   0.035  53.921  1.00  0.00     0.069 A 
HETATM    2  C3  UNL     1      26.245  -0.111  54.463  1.00  0.00     0.037 A 
HETATM    3  C4  UNL     1      25.098   0.426  53.920  1.00  0.00     0.017 A 
HETATM    4  C5  UNL     1      25.283   1.145  52.764  1.00  0.00    -0.001 A 
HETATM    5  C6  UNL     1      26.551   1.271  52.248  1.00  0.00    -0.022 A 
HETATM    6  C7  UNL     1      27.700   0.751  52.762  1.00  0.00     0.049 A 
HETATM    7  C8  UNL     1      26.626   2.020  51.013  1.00  0.00     0.009 C 
HETATM    8  C9  UNL     1      26.403   3.079  50.289  1.00  0.00    -0.022 C 
HETATM    9  C10 UNL     1      26.206   4.201  49.399  1.00  0.00     0.054 C 
HETATM   10  C11 UNL     1      24.791   4.580  49.191  1.00  0.00    -0.022 C 
HETATM   11  C12 UNL     1      23.664   4.084  49.684  1.00  0.00     0.007 C 
HETATM   12  C13 UNL     1      23.255   3.024  50.593  1.00  0.00    -0.006 C 
HETATM   13  C14 UNL     1      22.699   1.799  50.453  1.00  0.00     0.141 C 
HETATM   14  N3  UNL     1      23.278   0.991  51.517  1.00  0.00    -0.234 NA
HETATM   15  C16 UNL     1      24.096   1.737  52.187  1.00  0.00     0.052 C 
HETATM   16  C17 UNL     1      23.401   3.077  52.079  1.00  0.00     0.102 C 
ENDROOT
BRANCH  13  17
HETATM   17  N1  UNL     1      21.761   1.496  49.418  1.00  0.00    -0.307 N 
HETATM   18  H13 UNL     1      22.153   1.248  48.474  1.00  0.00     0.176 HD
BRANCH  17  19
HETATM   19  S1  UNL     1      20.198   1.554  49.750  1.00  0.00     0.015 SA
HETATM   20  N2  UNL     1      18.857   1.335  50.309  1.00  0.00    -0.123 NA
HETATM   21  C15 UNL     1      19.602   0.416  51.066  1.00  0.00     0.310 A 
BRANCH  21  22
HETATM   22  O2  UNL     1      20.100   0.722  52.315  1.00  0.00    -0.368 OA
HETATM   23  H15 UNL     1      21.024   0.370  52.368  1.00  0.00     0.212 HD
ENDBRANCH  21  22
ENDBRANCH  17  19
ENDBRANCH  13  17
BRANCH   1  24
HETATM   24  O1  UNL     1      28.581  -0.546  54.551  1.00  0.00    -0.356 OA
HETATM   25  C1  UNL     1      29.709  -0.911  53.822  1.00  0.00     0.210 C 
ENDBRANCH   1  24
TORSDOF 4
ENDMDL
MODEL 6
REMARK VINA RESULT:      -7.8      1.909      2.424
REMARK  4 active torsions:
REMARK  status: ('A' for Active; 'I' for Inactive)
REMARK    1  A    between atoms: O1_2  and  C2_3 
REMARK    2  A    between atoms: C14_15  and  N1_16 
REMARK    3  A    between atoms: N1_16  and  S1_17 
REMARK    4  A    between atoms: C15_19  and  O2_20 
ROOT
HETATM    1  C2  UNL     1      19.915   2.028  51.988  1.00  0.00     0.069 A 
HETATM    2  C3  UNL     1      20.432   1.010  52.758  1.00  0.00     0.037 A 
HETATM    3  C4  UNL     1      21.778   0.770  52.926  1.00  0.00     0.017 A 
HETATM    4  C5  UNL     1      22.611   1.635  52.259  1.00  0.00    -0.001 A 
HETATM    5  C6  UNL     1      22.064   2.643  51.500  1.00  0.00    -0.022 A 
HETATM    6  C7  UNL     1      20.739   2.902  51.316  1.00  0.00     0.049 A 
HETATM    7  C8  UNL     1      23.031   3.512  50.868  1.00  0.00     0.009 C 
HETATM    8  C9  UNL     1      24.068   3.730  50.112  1.00  0.00    -0.022 C 
HETATM    9  C10 UNL     1      25.207   4.082  49.294  1.00  0.00     0.054 C 
HETATM   10  C11 UNL     1      26.486   3.476  49.727  1.00  0.00    -0.022 C 
HETATM   11  C12 UNL     1      26.777   2.653  50.727  1.00  0.00     0.007 C 
HETATM   12  C13 UNL     1      26.080   1.977  51.811  1.00  0.00    -0.006 C 
HETATM   13  C14 UNL     1      25.985   2.152  53.148  1.00  0.00     0.141 C 
HETATM   14  N3  UNL     1      24.627   1.755  53.491  1.00  0.00    -0.234 NA
HETATM   15  C16 UNL     1      24.030   1.390  52.403  1.00  0.00     0.052 C 
HETATM   16  C17 UNL     1      25.189   0.791  51.637  1.00  0.00     0.102 C 
ENDROOT
BRANCH  13  17
HETATM   17  N1  UNL     1      27.070   2.647  53.936  1.00  0.00    -0.307 N 
HETATM   18  H13 UNL     1      26.889   3.506  54.514  1.00  0.00     0.176 HD
BRANCH  17  19
HETATM   19  S1  UNL     1      28.472   1.877  53.892  1.00  0.00     0.015 SA
HETATM   20  N2  UNL     1      29.574   0.926  54.081  1.00  0.00    -0.123 NA
HETATM   21  C15 UNL     1      28.575   0.315  54.856  1.00  0.00     0.310 A 
BRANCH  21  22
HETATM   22  O2  UNL     1      27.764  -0.683  54.360  1.00  0.00    -0.368 OA
HETATM   23  H15 UNL     1      28.051  -0.875  53.432  1.00  0.00     0.212 HD
ENDBRANCH  21  22
ENDBRANCH  17  19
ENDBRANCH  13  17
BRANCH   1  24
HETATM   24  O1  UNL     1      18.548   2.174  51.890  1.00  0.00    -0.356 OA
HETATM   25  C1  UNL     1      17.995   3.400  51.533  1.00  0.00     0.210 C 
ENDBRANCH   1  24
TORSDOF 4
ENDMDL
MODEL 7
REMARK VINA RESULT:      -7.5      4.962      7.304
REMARK  4 active torsions:
REMARK  status: ('A' for Active; 'I' for Inactive)
REMARK    1  A    between atoms: O1_2  and  C2_3 
REMARK    2  A    between atoms: C14_15  and  N1_16 
REMARK    3  A    between atoms: N1_16  and  S1_17 
REMARK    4  A    between atoms: C15_19  and  O2_20 
ROOT
HETATM    1  C2  UNL     1      25.429   0.877  52.623  1.00  0.00     0.069 A 
HETATM    2  C3  UNL     1      24.275   1.527  53.001  1.00  0.00     0.037 A 
HETATM    3  C4  UNL     1      23.807   2.683  52.415  1.00  0.00     0.017 A 
HETATM    4  C5  UNL     1      24.583   3.172  51.393  1.00  0.00    -0.001 A 
HETATM    5  C6  UNL     1      25.728   2.499  51.038  1.00  0.00    -0.022 A 
HETATM    6  C7  UNL     1      26.213   1.357  51.599  1.00  0.00     0.049 A 
HETATM    7  C8  UNL     1      26.451   3.084  49.930  1.00  0.00     0.009 C 
HETATM    8  C9  UNL     1      27.047   4.077  49.336  1.00  0.00    -0.022 C 
HETATM    9  C10 UNL     1      27.729   5.110  48.589  1.00  0.00     0.054 C 
HETATM   10  C11 UNL     1      26.901   6.296  48.282  1.00  0.00    -0.022 C 
HETATM   11  C12 UNL     1      25.643   6.594  48.580  1.00  0.00     0.007 C 
HETATM   12  C13 UNL     1      24.526   5.987  49.289  1.00  0.00    -0.006 C 
HETATM   13  C14 UNL     1      23.372   5.384  48.926  1.00  0.00     0.141 C 
HETATM   14  N3  UNL     1      23.147   4.351  49.928  1.00  0.00    -0.234 NA
HETATM   15  C16 UNL     1      24.123   4.398  50.776  1.00  0.00     0.052 C 
HETATM   16  C17 UNL     1      24.421   5.881  50.775  1.00  0.00     0.102 C 
ENDROOT
BRANCH  13  17
HETATM   17  N1  UNL     1      22.635   5.773  47.765  1.00  0.00    -0.307 N 
HETATM   18  H13 UNL     1      22.922   6.667  47.293  1.00  0.00     0.176 HD
BRANCH  17  19
HETATM   19  S1  UNL     1      21.435   4.841  47.262  1.00  0.00     0.015 SA
HETATM   20  N2  UNL     1      20.624   3.753  46.700  1.00  0.00    -0.123 NA
HETATM   21  C15 UNL     1      21.913   3.233  46.508  1.00  0.00     0.310 A 
BRANCH  21  22
HETATM   22  O2  UNL     1      22.501   2.366  47.404  1.00  0.00    -0.368 OA
HETATM   23  H15 UNL     1      22.246   2.654  48.317  1.00  0.00     0.212 HD
ENDBRANCH  21  22
ENDBRANCH  17  19
ENDBRANCH  13  17
BRANCH   1  24
HETATM   24  O1  UNL     1      25.802  -0.274  53.281  1.00  0.00    -0.356 OA
HETATM   25  C1  UNL     1      26.680  -1.174  52.684  1.00  0.00     0.210 C 
ENDBRANCH   1  24
TORSDOF 4
ENDMDL
MODEL 8
REMARK VINA RESULT:      -7.5      3.179      4.612
REMARK  4 active torsions:
REMARK  status: ('A' for Active; 'I' for Inactive)
REMARK    1  A    between atoms: O1_2  and  C2_3 
REMARK    2  A    between atoms: C14_15  and  N1_16 
REMARK    3  A    between atoms: N1_16  and  S1_17 
REMARK    4  A    between atoms: C15_19  and  O2_20 
ROOT
HETATM    1  C2  UNL     1      20.454   3.031  48.495  1.00  0.00     0.069 A 
HETATM    2  C3  UNL     1      21.383   4.025  48.712  1.00  0.00     0.037 A 
HETATM    3  C4  UNL     1      22.423   3.933  49.611  1.00  0.00     0.017 A 
HETATM    4  C5  UNL     1      22.488   2.751  50.307  1.00  0.00    -0.001 A 
HETATM    5  C6  UNL     1      21.547   1.778  50.066  1.00  0.00    -0.022 A 
HETATM    6  C7  UNL     1      20.511   1.841  49.186  1.00  0.00     0.049 A 
HETATM    7  C8  UNL     1      21.729   0.564  50.831  1.00  0.00     0.009 C 
HETATM    8  C9  UNL     1      21.876  -0.086  51.950  1.00  0.00    -0.022 C 
HETATM    9  C10 UNL     1      22.045  -0.902  53.131  1.00  0.00     0.054 C 
HETATM   10  C11 UNL     1      23.238  -0.572  53.941  1.00  0.00    -0.022 C 
HETATM   11  C12 UNL     1      24.179   0.350  53.788  1.00  0.00     0.007 C 
HETATM   12  C13 UNL     1      24.510   1.415  52.853  1.00  0.00    -0.006 C 
HETATM   13  C14 UNL     1      25.426   1.581  51.871  1.00  0.00     0.141 C 
HETATM   14  N3  UNL     1      24.760   2.389  50.859  1.00  0.00    -0.234 NA
HETATM   15  C16 UNL     1      23.560   2.640  51.273  1.00  0.00     0.052 C 
HETATM   16  C17 UNL     1      23.792   2.722  52.766  1.00  0.00     0.102 C 
ENDROOT
BRANCH  13  17
HETATM   17  N1  UNL     1      26.735   1.011  51.939  1.00  0.00    -0.307 N 
HETATM   18  H13 UNL     1      26.979   0.288  51.216  1.00  0.00     0.176 HD
BRANCH  17  19
HETATM   19  S1  UNL     1      27.731   1.497  53.091  1.00  0.00     0.015 SA
HETATM   20  N2  UNL     1      28.535   1.616  54.315  1.00  0.00    -0.123 NA
HETATM   21  C15 UNL     1      27.896   0.388  54.548  1.00  0.00     0.310 A 
BRANCH  21  22
HETATM   22  O2  UNL     1      28.487  -0.820  54.246  1.00  0.00    -0.368 OA
HETATM   23  H15 UNL     1      27.816  -1.380  53.782  1.00  0.00     0.212 HD
ENDBRANCH  21  22
ENDBRANCH  17  19
ENDBRANCH  13  17
BRANCH   1  24
HETATM   24  O1  UNL     1      19.453   3.232  47.570  1.00  0.00    -0.356 OA
HETATM   25  C1  UNL     1      19.763   3.608  46.267  1.00  0.00     0.210 C 
ENDBRANCH   1  24
TORSDOF 4
ENDMDL
MODEL 9
REMARK VINA RESULT:      -7.2      4.979      6.668
REMARK  4 active torsions:
REMARK  status: ('A' for Active; 'I' for Inactive)
REMARK    1  A    between atoms: O1_2  and  C2_3 
REMARK    2  A    between atoms: C14_15  and  N1_16 
REMARK    3  A    between atoms: N1_16  and  S1_17 
REMARK    4  A    between atoms: C15_19  and  O2_20 
ROOT
HETATM    1  C2  UNL     1      22.283  -0.255  54.127  1.00  0.00     0.069 A 
HETATM    2  C3  UNL     1      21.129   0.408  53.770  1.00  0.00     0.037 A 
HETATM    3  C4  UNL     1      21.054   1.356  52.774  1.00  0.00     0.017 A 
HETATM    4  C5  UNL     1      22.239   1.617  52.129  1.00  0.00    -0.001 A 
HETATM    5  C6  UNL     1      23.373   0.938  52.507  1.00  0.00    -0.022 A 
HETATM    6  C7  UNL     1      23.475  -0.002  53.487  1.00  0.00     0.049 A 
HETATM    7  C8  UNL     1      24.555   1.268  51.742  1.00  0.00     0.009 C 
HETATM    8  C9  UNL     1      25.420   2.113  51.260  1.00  0.00    -0.022 C 
HETATM    9  C10 UNL     1      26.433   2.963  50.676  1.00  0.00     0.054 C 
HETATM   10  C11 UNL     1      25.914   3.992  49.748  1.00  0.00    -0.022 C 
HETATM   11  C12 UNL     1      24.679   4.287  49.362  1.00  0.00     0.007 C 
HETATM   12  C13 UNL     1      23.325   3.817  49.612  1.00  0.00    -0.006 C 
HETATM   13  C14 UNL     1      22.421   3.083  48.925  1.00  0.00     0.141 C 
HETATM   14  N3  UNL     1      21.700   2.320  49.935  1.00  0.00    -0.234 NA
HETATM   15  C16 UNL     1      22.190   2.626  51.093  1.00  0.00     0.052 C 
HETATM   16  C17 UNL     1      22.555   4.077  50.865  1.00  0.00     0.102 C 
ENDROOT
BRANCH  13  17
HETATM   17  N1  UNL     1      22.315   3.132  47.500  1.00  0.00    -0.307 N 
HETATM   18  H13 UNL     1      22.839   2.402  46.956  1.00  0.00     0.176 HD
BRANCH  17  19
HETATM   19  S1  UNL     1      21.422   4.278  46.831  1.00  0.00     0.015 SA
HETATM   20  N2  UNL     1      20.810   5.241  45.907  1.00  0.00    -0.123 NA
HETATM   21  C15 UNL     1      21.742   4.628  45.055  1.00  0.00     0.310 A 
BRANCH  21  22
HETATM   22  O2  UNL     1      21.405   3.579  44.226  1.00  0.00    -0.368 OA
HETATM   23  H15 UNL     1      20.541   3.210  44.538  1.00  0.00     0.212 HD
ENDBRANCH  21  22
ENDBRANCH  17  19
ENDBRANCH  13  17
BRANCH   1  24
HETATM   24  O1  UNL     1      22.242  -1.186  55.141  1.00  0.00    -0.356 OA
HETATM   25  C1  UNL     1      23.416  -1.617  55.750  1.00  0.00     0.210 C 
ENDBRANCH   1  24
TORSDOF 4
ENDMDL
