MODEL 1
REMARK VINA RESULT:      -9.2      0.000      0.000
REMARK  3 active torsions:
REMARK  status: ('A' for Active; 'I' for Inactive)
REMARK    1  A    between atoms: C4_5  and  N1_6 
REMARK    2  A    between atoms: N1_6  and  C5_7 
REMARK    3  A    between atoms: C12_17  and  S1_18 
ROOT
HETATM    1  C5  UNL     1      23.696  -0.203  53.641  1.00  0.00     0.160 A 
HETATM    2  N2  UNL     1      23.978  -0.951  54.712  1.00  0.00    -0.222 NA
HETATM    3  C6  UNL     1      23.007  -1.596  55.370  1.00  0.00     0.238 A 
HETATM    4  N3  UNL     1      21.689  -1.568  55.040  1.00  0.00    -0.215 NA
HETATM    5  C7  UNL     1      21.365  -0.815  53.953  1.00  0.00     0.202 A 
HETATM    6  C8  UNL     1      22.393  -0.143  53.273  1.00  0.00     0.129 A 
HETATM    7  N4  UNL     1      22.194   0.694  52.120  1.00  0.00    -0.379 N 
HETATM    8  C9  UNL     1      21.237   0.519  51.036  1.00  0.00     0.161 C 
HETATM    9  C10 UNL     1      19.884   0.182  51.485  1.00  0.00    -0.005 A 
HETATM   10  C11 UNL     1      18.984   0.569  50.486  1.00  0.00     0.029 A 
HETATM   11  C12 UNL     1      17.628   0.371  50.635  1.00  0.00    -0.002 A 
HETATM   12  C13 UNL     1      17.106  -0.215  51.770  1.00  0.00     0.021 A 
HETATM   13  C14 UNL     1      17.982  -0.611  52.784  1.00  0.00     0.039 A 
HETATM   14  C15 UNL     1      19.331  -0.393  52.591  1.00  0.00     0.086 A 
HETATM   15  O1  UNL     1      19.985  -0.859  53.707  1.00  0.00    -0.289 OA
HETATM   16  H5  UNL     1      22.889   1.503  52.190  1.00  0.00     0.160 HD
ENDROOT
BRANCH   1  17
HETATM   17  N1  UNL     1      24.727   0.474  52.945  1.00  0.00    -0.339 N 
HETATM   18  H3  UNL     1      24.715   1.209  52.211  1.00  0.00     0.167 HD
BRANCH  17  19
HETATM   19  C4  UNL     1      26.113   0.233  53.124  1.00  0.00     0.035 A 
HETATM   20  C3  UNL     1      26.652  -0.994  52.809  1.00  0.00     0.032 A 
HETATM   21  C2  UNL     1      27.973  -1.292  52.981  1.00  0.00     0.046 A 
HETATM   22  C1  UNL     1      28.864  -0.365  53.492  1.00  0.00     0.138 A 
HETATM   23  F1  UNL     1      30.179  -0.617  53.679  1.00  0.00    -0.204 F 
HETATM   24  C17 UNL     1      28.387   0.868  53.822  1.00  0.00     0.074 A 
HETATM   25  C16 UNL     1      27.065   1.115  53.631  1.00  0.00     0.056 A 
HETATM   26 CL1  UNL     1      29.439   2.101  54.472  1.00  0.00    -0.081 Cl
ENDBRANCH  17  19
ENDBRANCH   1  17
BRANCH  11  27
HETATM   27  S1  UNL     1      16.448   0.847  49.393  1.00  0.00    -0.143 SA
HETATM   28  H9  UNL     1      16.713   0.172  48.188  1.00  0.00     0.107 HD
ENDBRANCH  11  27
TORSDOF 3
ENDMDL
MODEL 2
REMARK VINA RESULT:      -8.9      2.211      3.350
REMARK  3 active torsions:
REMARK  status: ('A' for Active; 'I' for Inactive)
REMARK    1  A    between atoms: C4_5  and  N1_6 
REMARK    2  A    between atoms: N1_6  and  C5_7 
REMARK    3  A    between atoms: C12_17  and  S1_18 
ROOT
HETATM    1  C5  UNL     1      24.994   1.807  52.592  1.00  0.00     0.160 A 
HETATM    2  N2  UNL     1      25.570   2.654  51.732  1.00  0.00    -0.222 NA
HETATM    3  C6  UNL     1      24.918   3.065  50.638  1.00  0.00     0.238 A 
HETATM    4  N3  UNL     1      23.658   2.691  50.293  1.00  0.00    -0.215 NA
HETATM    5  C7  UNL     1      23.041   1.827  51.146  1.00  0.00     0.202 A 
HETATM    6  C8  UNL     1      23.736   1.404  52.290  1.00  0.00     0.129 A 
HETATM    7  N4  UNL     1      23.212   0.487  53.267  1.00  0.00    -0.379 N 
HETATM    8  C9  UNL     1      21.839   0.362  53.737  1.00  0.00     0.161 C 
HETATM    9  C10 UNL     1      20.840   0.371  52.666  1.00  0.00    -0.005 A 
HETATM   10  C11 UNL     1      19.693  -0.279  53.135  1.00  0.00     0.029 A 
HETATM   11  C12 UNL     1      18.579  -0.421  52.335  1.00  0.00    -0.002 A 
HETATM   12  C13 UNL     1      18.551   0.069  51.046  1.00  0.00     0.021 A 
HETATM   13  C14 UNL     1      19.682   0.722  50.552  1.00  0.00     0.039 A 
HETATM   14  C15 UNL     1      20.774   0.842  51.388  1.00  0.00     0.086 A 
HETATM   15  O1  UNL     1      21.752   1.511  50.692  1.00  0.00    -0.289 OA
HETATM   16  H5  UNL     1      24.026  -0.116  53.606  1.00  0.00     0.160 HD
ENDROOT
BRANCH   1  17
HETATM   17  N1  UNL     1      25.685   1.378  53.751  1.00  0.00    -0.339 N 
HETATM   18  H3  UNL     1      25.458   1.428  54.763  1.00  0.00     0.167 HD
BRANCH  17  19
HETATM   19  C4  UNL     1      26.958   0.753  53.746  1.00  0.00     0.035 A 
HETATM   20  C3  UNL     1      28.089   1.476  54.051  1.00  0.00     0.032 A 
HETATM   21  C2  UNL     1      29.343   0.936  54.040  1.00  0.00     0.046 A 
HETATM   22  C1  UNL     1      29.556  -0.392  53.716  1.00  0.00     0.138 A 
HETATM   23  F1  UNL     1      30.780  -0.967  53.692  1.00  0.00    -0.204 F 
HETATM   24  C17 UNL     1      28.474  -1.157  53.404  1.00  0.00     0.074 A 
HETATM   25  C16 UNL     1      27.247  -0.573  53.430  1.00  0.00     0.056 A 
HETATM   26 CL1  UNL     1      28.648  -2.843  52.983  1.00  0.00    -0.081 Cl
ENDBRANCH  17  19
ENDBRANCH   1  17
BRANCH  11  27
HETATM   27  S1  UNL     1      17.101  -1.240  52.889  1.00  0.00    -0.143 SA
HETATM   28  H9  UNL     1      15.994  -0.801  52.140  1.00  0.00     0.107 HD
ENDBRANCH  11  27
TORSDOF 3
ENDMDL
MODEL 3
REMARK VINA RESULT:      -8.9      4.800      5.720
REMARK  3 active torsions:
REMARK  status: ('A' for Active; 'I' for Inactive)
REMARK    1  A    between atoms: C4_5  and  N1_6 
REMARK    2  A    between atoms: N1_6  and  C5_7 
REMARK    3  A    between atoms: C12_17  and  S1_18 
ROOT
HETATM    1  C5  UNL     1      26.029   2.628  50.863  1.00  0.00     0.160 A 
HETATM    2  N2  UNL     1      27.153   2.514  51.578  1.00  0.00    -0.222 NA
HETATM    3  C6  UNL     1      27.137   1.942  52.788  1.00  0.00     0.238 A 
HETATM    4  N3  UNL     1      26.034   1.434  53.398  1.00  0.00    -0.215 NA
HETATM    5  C7  UNL     1      24.870   1.534  52.697  1.00  0.00     0.202 A 
HETATM    6  C8  UNL     1      24.900   2.136  51.430  1.00  0.00     0.129 A 
HETATM    7  N4  UNL     1      23.748   2.319  50.588  1.00  0.00    -0.379 N 
HETATM    8  C9  UNL     1      22.603   1.432  50.426  1.00  0.00     0.161 C 
HETATM    9  C10 UNL     1      22.062   0.923  51.688  1.00  0.00    -0.005 A 
HETATM   10  C11 UNL     1      20.724   0.572  51.478  1.00  0.00     0.029 A 
HETATM   11  C12 UNL     1      19.955   0.058  52.500  1.00  0.00    -0.002 A 
HETATM   12  C13 UNL     1      20.471  -0.131  53.765  1.00  0.00     0.021 A 
HETATM   13  C14 UNL     1      21.804   0.211  54.004  1.00  0.00     0.039 A 
HETATM   14  C15 UNL     1      22.536   0.722  52.950  1.00  0.00     0.086 A 
HETATM   15  O1  UNL     1      23.802   0.980  53.419  1.00  0.00    -0.289 OA
HETATM   16  H5  UNL     1      23.869   3.251  50.080  1.00  0.00     0.160 HD
ENDROOT
BRANCH   1  17
HETATM   17  N1  UNL     1      26.050   3.230  49.581  1.00  0.00    -0.339 N 
HETATM   18  H3  UNL     1      25.858   2.862  48.629  1.00  0.00     0.167 HD
BRANCH  17  19
HETATM   19  C4  UNL     1      26.394   4.582  49.331  1.00  0.00     0.035 A 
HETATM   20  C3  UNL     1      27.542   4.890  48.635  1.00  0.00     0.032 A 
HETATM   21  C2  UNL     1      27.937   6.173  48.384  1.00  0.00     0.046 A 
HETATM   22  C1  UNL     1      27.198   7.257  48.820  1.00  0.00     0.138 A 
HETATM   23  F1  UNL     1      27.552   8.542  48.594  1.00  0.00    -0.204 F 
HETATM   24  C17 UNL     1      26.052   7.014  49.515  1.00  0.00     0.074 A 
HETATM   25  C16 UNL     1      25.702   5.720  49.739  1.00  0.00     0.056 A 
HETATM   26 CL1  UNL     1      25.055   8.321  50.104  1.00  0.00    -0.081 Cl
ENDBRANCH  17  19
ENDBRANCH   1  17
BRANCH  11  27
HETATM   27  S1  UNL     1      18.251  -0.401  52.278  1.00  0.00    -0.143 SA
HETATM   28  H9  UNL     1      17.665   0.379  51.265  1.00  0.00     0.107 HD
ENDBRANCH  11  27
TORSDOF 3
ENDMDL
MODEL 4
REMARK VINA RESULT:      -8.5      5.691      7.658
REMARK  3 active torsions:
REMARK  status: ('A' for Active; 'I' for Inactive)
REMARK    1  A    between atoms: C4_5  and  N1_6 
REMARK    2  A    between atoms: N1_6  and  C5_7 
REMARK    3  A    between atoms: C12_17  and  S1_18 
ROOT
HETATM    1  C5  UNL     1      23.270   2.932  51.402  1.00  0.00     0.160 A 
HETATM    2  N2  UNL     1      22.117   3.395  51.897  1.00  0.00    -0.222 NA
HETATM    3  C6  UNL     1      21.863   4.709  51.923  1.00  0.00     0.238 A 
HETATM    4  N3  UNL     1      22.704   5.676  51.470  1.00  0.00    -0.215 NA
HETATM    5  C7  UNL     1      23.889   5.240  50.958  1.00  0.00     0.202 A 
HETATM    6  C8  UNL     1      24.142   3.860  50.937  1.00  0.00     0.129 A 
HETATM    7  N4  UNL     1      25.352   3.263  50.439  1.00  0.00    -0.379 N 
HETATM    8  C9  UNL     1      26.170   3.694  49.312  1.00  0.00     0.161 C 
HETATM    9  C10 UNL     1      26.430   5.135  49.283  1.00  0.00    -0.005 A 
HETATM   10  C11 UNL     1      27.602   5.351  48.550  1.00  0.00     0.029 A 
HETATM   11  C12 UNL     1      28.093   6.624  48.354  1.00  0.00    -0.002 A 
HETATM   12  C13 UNL     1      27.452   7.731  48.870  1.00  0.00     0.021 A 
HETATM   13  C14 UNL     1      26.279   7.545  49.606  1.00  0.00     0.039 A 
HETATM   14  C15 UNL     1      25.824   6.252  49.776  1.00  0.00     0.086 A 
HETATM   15  O1  UNL     1      24.672   6.319  50.523  1.00  0.00    -0.289 OA
HETATM   16  H5  UNL     1      25.567   2.417  51.055  1.00  0.00     0.160 HD
ENDROOT
BRANCH   1  17
HETATM   17  N1  UNL     1      23.533   1.541  51.371  1.00  0.00    -0.339 N 
HETATM   18  H3  UNL     1      23.501   0.837  50.609  1.00  0.00     0.167 HD
BRANCH  17  19
HETATM   19  C4  UNL     1      23.908   0.767  52.498  1.00  0.00     0.035 A 
HETATM   20  C3  UNL     1      22.988  -0.047  53.119  1.00  0.00     0.032 A 
HETATM   21  C2  UNL     1      23.283  -0.798  54.221  1.00  0.00     0.046 A 
HETATM   22  C1  UNL     1      24.545  -0.786  54.789  1.00  0.00     0.138 A 
HETATM   23  F1  UNL     1      24.881  -1.512  55.878  1.00  0.00    -0.204 F 
HETATM   24  C17 UNL     1      25.497   0.003  54.216  1.00  0.00     0.074 A 
HETATM   25  C16 UNL     1      25.153   0.731  53.122  1.00  0.00     0.056 A 
HETATM   26 CL1  UNL     1      27.116   0.081  54.865  1.00  0.00    -0.081 Cl
ENDBRANCH  17  19
ENDBRANCH   1  17
BRANCH  11  27
HETATM   27  S1  UNL     1      29.579   6.946  47.431  1.00  0.00    -0.143 SA
HETATM   28  H9  UNL     1      29.265   7.229  46.089  1.00  0.00     0.107 HD
ENDBRANCH  11  27
TORSDOF 3
ENDMDL
MODEL 5
REMARK VINA RESULT:      -8.3      6.506      8.435
REMARK  3 active torsions:
REMARK  status: ('A' for Active; 'I' for Inactive)
REMARK    1  A    between atoms: C4_5  and  N1_6 
REMARK    2  A    between atoms: N1_6  and  C5_7 
REMARK    3  A    between atoms: C12_17  and  S1_18 
ROOT
HETATM    1  C5  UNL     1      25.029   3.545  50.850  1.00  0.00     0.160 A 
HETATM    2  N2  UNL     1      23.830   3.768  51.398  1.00  0.00    -0.222 NA
HETATM    3  C6  UNL     1      23.302   4.998  51.408  1.00  0.00     0.238 A 
HETATM    4  N3  UNL     1      23.891   6.106  50.886  1.00  0.00    -0.215 NA
HETATM    5  C7  UNL     1      25.115   5.915  50.319  1.00  0.00     0.202 A 
HETATM    6  C8  UNL     1      25.658   4.621  50.317  1.00  0.00     0.129 A 
HETATM    7  N4  UNL     1      26.942   4.279  49.766  1.00  0.00    -0.379 N 
HETATM    8  C9  UNL     1      27.591   4.836  48.586  1.00  0.00     0.161 C 
HETATM    9  C10 UNL     1      27.533   6.296  48.509  1.00  0.00    -0.005 A 
HETATM   10  C11 UNL     1      28.594   6.733  47.707  1.00  0.00     0.029 A 
HETATM   11  C12 UNL     1      28.790   8.073  47.454  1.00  0.00    -0.002 A 
HETATM   12  C13 UNL     1      27.952   9.035  47.979  1.00  0.00     0.021 A 
HETATM   13  C14 UNL     1      26.885   8.629  48.784  1.00  0.00     0.039 A 
HETATM   14  C15 UNL     1      26.727   7.276  49.009  1.00  0.00     0.086 A 
HETATM   15  O1  UNL     1      25.626   7.121  49.816  1.00  0.00    -0.289 OA
HETATM   16  H5  UNL     1      27.364   3.520  50.388  1.00  0.00     0.160 HD
ENDROOT
BRANCH   1  17
HETATM   17  N1  UNL     1      25.583   2.242  50.837  1.00  0.00    -0.339 N 
HETATM   18  H3  UNL     1      25.617   1.500  50.111  1.00  0.00     0.167 HD
BRANCH  17  19
HETATM   19  C4  UNL     1      26.245   1.637  51.935  1.00  0.00     0.035 A 
HETATM   20  C3  UNL     1      25.752   0.478  52.492  1.00  0.00     0.032 A 
HETATM   21  C2  UNL     1      26.332  -0.138  53.563  1.00  0.00     0.046 A 
HETATM   22  C1  UNL     1      27.468   0.373  54.165  1.00  0.00     0.138 A 
HETATM   23  F1  UNL     1      28.075  -0.203  55.227  1.00  0.00    -0.204 F 
HETATM   24  C17 UNL     1      28.002   1.519  53.657  1.00  0.00     0.074 A 
HETATM   25  C16 UNL     1      27.387   2.093  52.589  1.00  0.00     0.056 A 
HETATM   26 CL1  UNL     1      29.435   2.235  54.351  1.00  0.00    -0.081 Cl
ENDBRANCH  17  19
ENDBRANCH   1  17
BRANCH  11  27
HETATM   27  S1  UNL     1      30.124   8.673  46.442  1.00  0.00    -0.143 SA
HETATM   28  H9  UNL     1      30.539   9.941  46.887  1.00  0.00     0.107 HD
ENDBRANCH  11  27
TORSDOF 3
ENDMDL
MODEL 6
REMARK VINA RESULT:      -8.1      4.632      5.704
REMARK  3 active torsions:
REMARK  status: ('A' for Active; 'I' for Inactive)
REMARK    1  A    between atoms: C4_5  and  N1_6 
REMARK    2  A    between atoms: N1_6  and  C5_7 
REMARK    3  A    between atoms: C12_17  and  S1_18 
ROOT
HETATM    1  C5  UNL     1      24.407   2.339  52.684  1.00  0.00     0.160 A 
HETATM    2  N2  UNL     1      23.541   1.361  52.969  1.00  0.00    -0.222 NA
HETATM    3  C6  UNL     1      22.394   1.244  52.288  1.00  0.00     0.238 A 
HETATM    4  N3  UNL     1      21.999   2.062  51.278  1.00  0.00    -0.215 NA
HETATM    5  C7  UNL     1      22.858   3.071  50.960  1.00  0.00     0.202 A 
HETATM    6  C8  UNL     1      24.056   3.182  51.683  1.00  0.00     0.129 A 
HETATM    7  N4  UNL     1      25.046   4.203  51.464  1.00  0.00    -0.379 N 
HETATM    8  C9  UNL     1      25.446   4.811  50.201  1.00  0.00     0.161 C 
HETATM    9  C10 UNL     1      24.323   5.195  49.343  1.00  0.00    -0.005 A 
HETATM   10  C11 UNL     1      24.759   6.208  48.482  1.00  0.00     0.029 A 
HETATM   11  C12 UNL     1      23.908   6.767  47.554  1.00  0.00    -0.002 A 
HETATM   12  C13 UNL     1      22.597   6.353  47.436  1.00  0.00     0.021 A 
HETATM   13  C14 UNL     1      22.135   5.343  48.283  1.00  0.00     0.039 A 
HETATM   14  C15 UNL     1      23.023   4.812  49.197  1.00  0.00     0.086 A 
HETATM   15  O1  UNL     1      22.350   3.848  49.909  1.00  0.00    -0.289 OA
HETATM   16  H5  UNL     1      25.457   4.458  52.416  1.00  0.00     0.160 HD
ENDROOT
BRANCH   1  17
HETATM   17  N1  UNL     1      25.621   2.457  53.404  1.00  0.00    -0.339 N 
HETATM   18  H3  UNL     1      25.996   3.193  54.033  1.00  0.00     0.167 HD
BRANCH  17  19
HETATM   19  C4  UNL     1      26.668   1.501  53.379  1.00  0.00     0.035 A 
HETATM   20  C3  UNL     1      27.961   1.880  53.660  1.00  0.00     0.032 A 
HETATM   21  C2  UNL     1      29.014   1.010  53.631  1.00  0.00     0.046 A 
HETATM   22  C1  UNL     1      28.842  -0.325  53.310  1.00  0.00     0.138 A 
HETATM   23  F1  UNL     1      29.855  -1.219  53.269  1.00  0.00    -0.204 F 
HETATM   24  C17 UNL     1      27.582  -0.757  53.022  1.00  0.00     0.074 A 
HETATM   25  C16 UNL     1      26.569   0.147  53.066  1.00  0.00     0.056 A 
HETATM   26 CL1  UNL     1      27.271  -2.424  52.608  1.00  0.00    -0.081 Cl
ENDBRANCH  17  19
ENDBRANCH   1  17
BRANCH  11  27
HETATM   27  S1  UNL     1      24.418   8.057  46.440  1.00  0.00    -0.143 SA
HETATM   28  H9  UNL     1      25.740   7.835  46.013  1.00  0.00     0.107 HD
ENDBRANCH  11  27
TORSDOF 3
ENDMDL
MODEL 7
REMARK VINA RESULT:      -7.9      6.782      8.256
REMARK  3 active torsions:
REMARK  status: ('A' for Active; 'I' for Inactive)
REMARK    1  A    between atoms: C4_5  and  N1_6 
REMARK    2  A    between atoms: N1_6  and  C5_7 
REMARK    3  A    between atoms: C12_17  and  S1_18 
ROOT
HETATM    1  C5  UNL     1      25.428   6.417  49.348  1.00  0.00     0.160 A 
HETATM    2  N2  UNL     1      24.700   7.474  49.722  1.00  0.00    -0.222 NA
HETATM    3  C6  UNL     1      23.847   7.387  50.750  1.00  0.00     0.238 A 
HETATM    4  N3  UNL     1      23.635   6.271  51.496  1.00  0.00    -0.215 NA
HETATM    5  C7  UNL     1      24.361   5.174  51.143  1.00  0.00     0.202 A 
HETATM    6  C8  UNL     1      25.251   5.279  50.063  1.00  0.00     0.129 A 
HETATM    7  N4  UNL     1      26.068   4.201  49.575  1.00  0.00    -0.379 N 
HETATM    8  C9  UNL     1      26.714   3.144  50.342  1.00  0.00     0.161 C 
HETATM    9  C10 UNL     1      25.849   2.525  51.348  1.00  0.00    -0.005 A 
HETATM   10  C11 UNL     1      26.338   1.242  51.614  1.00  0.00     0.029 A 
HETATM   11  C12 UNL     1      25.719   0.420  52.531  1.00  0.00    -0.002 A 
HETATM   12  C13 UNL     1      24.596   0.828  53.220  1.00  0.00     0.021 A 
HETATM   13  C14 UNL     1      24.084   2.104  52.975  1.00  0.00     0.039 A 
HETATM   14  C15 UNL     1      24.738   2.893  52.049  1.00  0.00     0.086 A 
HETATM   15  O1  UNL     1      24.062   4.087  51.977  1.00  0.00    -0.289 OA
HETATM   16  H5  UNL     1      26.126   4.300  48.513  1.00  0.00     0.160 HD
ENDROOT
BRANCH   1  17
HETATM   17  N1  UNL     1      26.333   6.514  48.263  1.00  0.00    -0.339 N 
HETATM   18  H3  UNL     1      26.229   6.345  47.244  1.00  0.00     0.167 HD
BRANCH  17  19
HETATM   19  C4  UNL     1      27.697   6.881  48.383  1.00  0.00     0.035 A 
HETATM   20  C3  UNL     1      28.688   5.945  48.189  1.00  0.00     0.032 A 
HETATM   21  C2  UNL     1      30.017   6.232  48.313  1.00  0.00     0.046 A 
HETATM   22  C1  UNL     1      30.456   7.502  48.646  1.00  0.00     0.138 A 
HETATM   23  F1  UNL     1      31.761   7.830  48.779  1.00  0.00    -0.204 F 
HETATM   24  C17 UNL     1      29.520   8.470  48.850  1.00  0.00     0.074 A 
HETATM   25  C16 UNL     1      28.210   8.133  48.714  1.00  0.00     0.056 A 
HETATM   26 CL1  UNL     1      29.981  10.100  49.273  1.00  0.00    -0.081 Cl
ENDBRANCH  17  19
ENDBRANCH   1  17
BRANCH  11  27
HETATM   27  S1  UNL     1      26.306  -1.218  52.901  1.00  0.00    -0.143 SA
HETATM   28  H9  UNL     1      27.578  -1.417  52.335  1.00  0.00     0.107 HD
ENDBRANCH  11  27
TORSDOF 3
ENDMDL
MODEL 8
REMARK VINA RESULT:      -7.9      6.503      8.891
REMARK  3 active torsions:
REMARK  status: ('A' for Active; 'I' for Inactive)
REMARK    1  A    between atoms: C4_5  and  N1_6 
REMARK    2  A    between atoms: N1_6  and  C5_7 
REMARK    3  A    between atoms: C12_17  and  S1_18 
ROOT
HETATM    1  C5  UNL     1      24.218   2.884  50.836  1.00  0.00     0.160 A 
HETATM    2  N2  UNL     1      24.772   1.917  51.576  1.00  0.00    -0.222 NA
HETATM    3  C6  UNL     1      26.099   1.746  51.593  1.00  0.00     0.238 A 
HETATM    4  N3  UNL     1      26.993   2.498  50.898  1.00  0.00    -0.215 NA
HETATM    5  C7  UNL     1      26.464   3.492  50.133  1.00  0.00     0.202 A 
HETATM    6  C8  UNL     1      25.070   3.661  50.124  1.00  0.00     0.129 A 
HETATM    7  N4  UNL     1      24.377   4.659  49.354  1.00  0.00    -0.379 N 
HETATM    8  C9  UNL     1      24.805   6.019  49.052  1.00  0.00     0.161 C 
HETATM    9  C10 UNL     1      26.200   6.121  48.618  1.00  0.00    -0.005 A 
HETATM   10  C11 UNL     1      26.337   7.290  47.862  1.00  0.00     0.029 A 
HETATM   11  C12 UNL     1      27.552   7.649  47.320  1.00  0.00    -0.002 A 
HETATM   12  C13 UNL     1      28.678   6.872  47.500  1.00  0.00     0.021 A 
HETATM   13  C14 UNL     1      28.571   5.699  48.250  1.00  0.00     0.039 A 
HETATM   14  C15 UNL     1      27.334   5.380  48.774  1.00  0.00     0.086 A 
HETATM   15  O1  UNL     1      27.473   4.200  49.464  1.00  0.00    -0.289 OA
HETATM   16  H5  UNL     1      23.459   4.225  49.023  1.00  0.00     0.160 HD
ENDROOT
BRANCH   1  17
HETATM   17  N1  UNL     1      22.814   3.066  50.824  1.00  0.00    -0.339 N 
HETATM   18  H3  UNL     1      22.210   3.857  50.528  1.00  0.00     0.167 HD
BRANCH  17  19
HETATM   19  C4  UNL     1      21.874   2.108  51.281  1.00  0.00     0.035 A 
HETATM   20  C3  UNL     1      20.993   1.523  50.399  1.00  0.00     0.032 A 
HETATM   21  C2  UNL     1      20.051   0.613  50.783  1.00  0.00     0.046 A 
HETATM   22  C1  UNL     1      19.921   0.216  52.102  1.00  0.00     0.138 A 
HETATM   23  F1  UNL     1      19.003  -0.681  52.525  1.00  0.00    -0.204 F 
HETATM   24  C17 UNL     1      20.766   0.762  53.020  1.00  0.00     0.074 A 
HETATM   25  C16 UNL     1      21.687   1.663  52.588  1.00  0.00     0.056 A 
HETATM   26 CL1  UNL     1      20.676   0.320  54.707  1.00  0.00    -0.081 Cl
ENDBRANCH  17  19
ENDBRANCH   1  17
BRANCH  11  27
HETATM   27  S1  UNL     1      27.772   9.125  46.352  1.00  0.00    -0.143 SA
HETATM   28  H9  UNL     1      27.561  10.264  47.150  1.00  0.00     0.107 HD
ENDBRANCH  11  27
TORSDOF 3
ENDMDL
MODEL 9
REMARK VINA RESULT:      -7.9      5.728      7.869
REMARK  3 active torsions:
REMARK  status: ('A' for Active; 'I' for Inactive)
REMARK    1  A    between atoms: C4_5  and  N1_6 
REMARK    2  A    between atoms: N1_6  and  C5_7 
REMARK    3  A    between atoms: C12_17  and  S1_18 
ROOT
HETATM    1  C5  UNL     1      23.257   3.889  52.357  1.00  0.00     0.160 A 
HETATM    2  N2  UNL     1      21.948   3.636  52.263  1.00  0.00    -0.222 NA
HETATM    3  C6  UNL     1      21.495   2.377  52.231  1.00  0.00     0.238 A 
HETATM    4  N3  UNL     1      22.274   1.265  52.291  1.00  0.00    -0.215 NA
HETATM    5  C7  UNL     1      23.615   1.485  52.387  1.00  0.00     0.202 A 
HETATM    6  C8  UNL     1      24.076   2.810  52.419  1.00  0.00     0.129 A 
HETATM    7  N4  UNL     1      25.462   3.188  52.505  1.00  0.00    -0.379 N 
HETATM    8  C9  UNL     1      26.530   2.523  53.241  1.00  0.00     0.161 C 
HETATM    9  C10 UNL     1      26.553   1.069  53.072  1.00  0.00    -0.005 A 
HETATM   10  C11 UNL     1      27.853   0.621  53.332  1.00  0.00     0.029 A 
HETATM   11  C12 UNL     1      28.173  -0.717  53.251  1.00  0.00    -0.002 A 
HETATM   12  C13 UNL     1      27.230  -1.664  52.912  1.00  0.00     0.021 A 
HETATM   13  C14 UNL     1      25.924  -1.246  52.647  1.00  0.00     0.039 A 
HETATM   14  C15 UNL     1      25.649   0.104  52.741  1.00  0.00     0.086 A 
HETATM   15  O1  UNL     1      24.318   0.272  52.441  1.00  0.00    -0.289 OA
HETATM   16  H5  UNL     1      25.589   4.070  51.917  1.00  0.00     0.160 HD
ENDROOT
BRANCH   1  17
HETATM   17  N1  UNL     1      23.732   5.222  52.396  1.00  0.00    -0.339 N 
HETATM   18  H3  UNL     1      23.995   5.852  53.178  1.00  0.00     0.167 HD
BRANCH  17  19
HETATM   19  C4  UNL     1      23.938   6.037  51.254  1.00  0.00     0.035 A 
HETATM   20  C3  UNL     1      23.007   6.988  50.901  1.00  0.00     0.032 A 
HETATM   21  C2  UNL     1      23.139   7.786  49.802  1.00  0.00     0.046 A 
HETATM   22  C1  UNL     1      24.234   7.686  48.961  1.00  0.00     0.138 A 
HETATM   23  F1  UNL     1      24.405   8.455  47.862  1.00  0.00    -0.204 F 
HETATM   24  C17 UNL     1      25.188   6.761  49.260  1.00  0.00     0.074 A 
HETATM   25  C16 UNL     1      25.010   5.991  50.366  1.00  0.00     0.056 A 
HETATM   26 CL1  UNL     1      26.603   6.564  48.256  1.00  0.00    -0.081 Cl
ENDBRANCH  17  19
ENDBRANCH   1  17
BRANCH  11  27
HETATM   27  S1  UNL     1      29.812  -1.331  53.571  1.00  0.00    -0.143 SA
HETATM   28  H9  UNL     1      30.772  -0.459  53.027  1.00  0.00     0.107 HD
ENDBRANCH  11  27
TORSDOF 3
ENDMDL
