MODEL 1
REMARK VINA RESULT:      -7.9      0.000      0.000
REMARK  3 active torsions:
REMARK  status: ('A' for Active; 'I' for Inactive)
REMARK    1  A    between atoms: C2_3  and  C3_4 
REMARK    2  A    between atoms: C12_16  and  O3_17 
REMARK    3  A    between atoms: O3_17  and  C13_18 
ROOT
HETATM    1  C3  UNL     1      25.919   1.452  52.514  1.00  0.00     0.076 C 
HETATM    2  C4  UNL     1      24.663   1.475  52.027  1.00  0.00     0.009 C 
HETATM    3  C5  UNL     1      24.265   0.466  52.970  1.00  0.00     0.190 A 
HETATM    4  C6  UNL     1      23.629  -0.436  53.697  1.00  0.00     0.052 A 
HETATM    5 CL1  UNL     1      25.200  -0.591  54.508  1.00  0.00    -0.201 Cl
HETATM    6  C7  UNL     1      22.770  -1.419  54.403  1.00  0.00     0.189 C 
HETATM    7  O1  UNL     1      21.493  -1.552  53.869  1.00  0.00    -0.388 OA
HETATM    8  C8  UNL     1      20.835  -0.389  53.782  1.00  0.00     0.193 C 
HETATM    9  C9  UNL     1      19.457  -0.454  53.116  1.00  0.00     0.195 C 
HETATM   10  O2  UNL     1      19.089   0.987  53.110  1.00  0.00    -0.373 OA
HETATM   11  C10 UNL     1      20.084   1.759  52.419  1.00  0.00     0.111 A 
HETATM   12  C11 UNL     1      20.485   1.203  51.190  1.00  0.00     0.099 A 
HETATM   13  C12 UNL     1      21.430   1.767  50.368  1.00  0.00     0.049 A 
HETATM   14  C18 UNL     1      21.327   2.592  51.431  1.00  0.00     0.088 A 
HETATM   15  C19 UNL     1      22.640   3.169  51.318  1.00  0.00     0.172 A 
HETATM   16  N1  UNL     1      23.659   4.028  51.525  1.00  0.00    -0.247 NA
HETATM   17  C20 UNL     1      23.457   5.091  52.386  1.00  0.00     0.225 A 
HETATM   18  N2  UNL     1      22.194   4.711  52.657  1.00  0.00    -0.266 NA
HETATM   19  C21 UNL     1      21.667   3.657  52.092  1.00  0.00     0.127 A 
HETATM   20  C22 UNL     1      20.671   2.933  52.817  1.00  0.00     0.082 A 
HETATM   21  N3  UNL     1      23.614   2.009  51.125  1.00  0.00    -0.364 N 
HETATM   22  H23 UNL     1      23.800   1.239  50.487  1.00  0.00     0.162 HD
ENDROOT
BRANCH  13  23
HETATM   23  O3  UNL     1      21.868   1.281  49.155  1.00  0.00    -0.353 OA
BRANCH  23  24
HETATM   24  C13 UNL     1      21.527   1.625  47.868  1.00  0.00     0.132 C 
HETATM   25  C14 UNL     1      20.340   2.523  47.803  1.00  0.00     0.058 C 
HETATM   26  C15 UNL     1      20.622   3.969  48.028  1.00  0.00     0.170 C 
HETATM   27  O4  UNL     1      21.726   4.486  47.424  1.00  0.00    -0.391 OA
HETATM   28  C16 UNL     1      22.830   3.769  47.917  1.00  0.00     0.170 C 
HETATM   29  C17 UNL     1      22.741   2.403  47.317  1.00  0.00     0.058 C 
ENDBRANCH  23  24
ENDBRANCH  13  23
BRANCH   1  30
HETATM   30  C2  UNL     1      27.037   2.235  52.083  1.00  0.00     0.082 C 
HETATM   31  C1  UNL     1      27.888   2.026  53.120  1.00  0.00     0.357 C 
HETATM   32  F1  UNL     1      27.875   1.333  54.285  1.00  0.00    -0.462 F 
ENDBRANCH   1  30
TORSDOF 3
ENDMDL
MODEL 2
REMARK VINA RESULT:      -7.6      2.973      3.697
REMARK  3 active torsions:
REMARK  status: ('A' for Active; 'I' for Inactive)
REMARK    1  A    between atoms: C2_3  and  C3_4 
REMARK    2  A    between atoms: C12_16  and  O3_17 
REMARK    3  A    between atoms: O3_17  and  C13_18 
ROOT
HETATM    1  C3  UNL     1      26.052   4.945  49.228  1.00  0.00     0.076 C 
HETATM    2  C4  UNL     1      24.756   4.579  49.224  1.00  0.00     0.009 C 
HETATM    3  C5  UNL     1      25.031   3.546  50.184  1.00  0.00     0.190 A 
HETATM    4  C6  UNL     1      24.988   2.535  51.035  1.00  0.00     0.052 A 
HETATM    5 CL1  UNL     1      26.718   2.882  51.219  1.00  0.00    -0.201 Cl
HETATM    6  C7  UNL     1      24.762   1.381  51.939  1.00  0.00     0.189 C 
HETATM    7  O1  UNL     1      23.475   0.857  51.890  1.00  0.00    -0.388 OA
HETATM    8  C8  UNL     1      22.525   1.774  52.115  1.00  0.00     0.193 C 
HETATM    9  C9  UNL     1      21.081   1.279  51.983  1.00  0.00     0.195 C 
HETATM   10  O2  UNL     1      20.337   2.549  52.197  1.00  0.00    -0.373 OA
HETATM   11  C10 UNL     1      20.750   3.541  51.244  1.00  0.00     0.111 A 
HETATM   12  C11 UNL     1      20.825   3.066  49.921  1.00  0.00     0.099 A 
HETATM   13  C12 UNL     1      21.206   3.839  48.852  1.00  0.00     0.049 A 
HETATM   14  C18 UNL     1      21.258   4.649  49.929  1.00  0.00     0.088 A 
HETATM   15  C19 UNL     1      22.217   5.576  49.390  1.00  0.00     0.172 A 
HETATM   16  N1  UNL     1      22.949   6.703  49.270  1.00  0.00    -0.247 NA
HETATM   17  C20 UNL     1      22.772   7.703  50.209  1.00  0.00     0.225 A 
HETATM   18  N2  UNL     1      21.858   6.986  50.890  1.00  0.00    -0.266 NA
HETATM   19  C21 UNL     1      21.491   5.798  50.489  1.00  0.00     0.127 A 
HETATM   20  C22 UNL     1      21.075   4.853  51.476  1.00  0.00     0.082 A 
HETATM   21  N3  UNL     1      23.346   4.740  48.791  1.00  0.00    -0.364 N 
HETATM   22  H23 UNL     1      23.504   4.028  48.083  1.00  0.00     0.162 HD
ENDROOT
BRANCH  13  23
HETATM   23  O3  UNL     1      21.298   3.442  47.535  1.00  0.00    -0.353 OA
BRANCH  23  24
HETATM   24  C13 UNL     1      20.473   3.677  46.460  1.00  0.00     0.132 C 
HETATM   25  C14 UNL     1      19.622   4.886  46.638  1.00  0.00     0.058 C 
HETATM   26  C15 UNL     1      20.281   6.183  46.313  1.00  0.00     0.170 C 
HETATM   27  O4  UNL     1      21.050   6.223  45.191  1.00  0.00    -0.391 OA
HETATM   28  C16 UNL     1      22.072   5.274  45.369  1.00  0.00     0.170 C 
HETATM   29  C17 UNL     1      21.419   3.934  45.268  1.00  0.00     0.058 C 
ENDBRANCH  23  24
ENDBRANCH  13  23
BRANCH   1  30
HETATM   30  C2  UNL     1      26.664   5.998  48.474  1.00  0.00     0.082 C 
HETATM   31  C1  UNL     1      26.522   7.029  49.346  1.00  0.00     0.357 C 
HETATM   32  F1  UNL     1      25.998   7.212  50.582  1.00  0.00    -0.462 F 
ENDBRANCH   1  30
TORSDOF 3
ENDMDL
MODEL 3
REMARK VINA RESULT:      -7.4      8.998     11.597
REMARK  3 active torsions:
REMARK  status: ('A' for Active; 'I' for Inactive)
REMARK    1  A    between atoms: C2_3  and  C3_4 
REMARK    2  A    between atoms: C12_16  and  O3_17 
REMARK    3  A    between atoms: O3_17  and  C13_18 
ROOT
HETATM    1  C3  UNL     1      30.427  10.342  44.710  1.00  0.00     0.076 C 
HETATM    2  C4  UNL     1      30.111   9.395  45.614  1.00  0.00     0.009 C 
HETATM    3  C5  UNL     1      31.114   8.522  45.069  1.00  0.00     0.190 A 
HETATM    4  C6  UNL     1      31.934   7.526  44.781  1.00  0.00     0.052 A 
HETATM    5 CL1  UNL     1      32.531   8.647  43.541  1.00  0.00    -0.201 Cl
HETATM    6  C7  UNL     1      32.763   6.311  44.585  1.00  0.00     0.189 C 
HETATM    7  O1  UNL     1      32.406   5.237  45.393  1.00  0.00    -0.388 OA
HETATM    8  C8  UNL     1      32.388   5.542  46.696  1.00  0.00     0.193 C 
HETATM    9  C9  UNL     1      31.912   4.426  47.633  1.00  0.00     0.195 C 
HETATM   10  O2  UNL     1      31.933   5.139  48.938  1.00  0.00    -0.373 OA
HETATM   11  C10 UNL     1      31.103   6.311  48.886  1.00  0.00     0.111 A 
HETATM   12  C11 UNL     1      29.841   6.091  48.304  1.00  0.00     0.099 A 
HETATM   13  C12 UNL     1      28.892   7.070  48.143  1.00  0.00     0.049 A 
HETATM   14  C18 UNL     1      29.945   7.671  48.734  1.00  0.00     0.088 A 
HETATM   15  C19 UNL     1      29.650   9.004  48.278  1.00  0.00     0.172 A 
HETATM   16  N1  UNL     1      29.706  10.349  48.203  1.00  0.00    -0.247 NA
HETATM   17  C20 UNL     1      30.568  11.019  49.051  1.00  0.00     0.225 A 
HETATM   18  N2  UNL     1      31.011   9.874  49.604  1.00  0.00    -0.266 NA
HETATM   19  C21 UNL     1      30.539   8.714  49.233  1.00  0.00     0.127 A 
HETATM   20  C22 UNL     1      31.401   7.578  49.318  1.00  0.00     0.082 A 
HETATM   21  N3  UNL     1      29.347   8.899  46.785  1.00  0.00    -0.364 N 
HETATM   22  H23 UNL     1      28.703   8.442  46.146  1.00  0.00     0.162 HD
ENDROOT
BRANCH  13  23
HETATM   23  O3  UNL     1      27.639   6.926  47.588  1.00  0.00    -0.353 OA
BRANCH  23  24
HETATM   24  C13 UNL     1      26.395   6.858  48.169  1.00  0.00     0.132 C 
HETATM   25  C14 UNL     1      26.383   7.357  49.572  1.00  0.00     0.058 C 
HETATM   26  C15 UNL     1      26.282   8.836  49.721  1.00  0.00     0.170 C 
HETATM   27  O4  UNL     1      25.402   9.482  48.910  1.00  0.00    -0.391 OA
HETATM   28  C16 UNL     1      25.809   9.227  47.588  1.00  0.00     0.170 C 
HETATM   29  C17 UNL     1      25.498   7.789  47.326  1.00  0.00     0.058 C 
ENDBRANCH  23  24
ENDBRANCH  13  23
BRANCH   1  30
HETATM   30  C2  UNL     1      29.839  11.639  44.562  1.00  0.00     0.082 C 
HETATM   31  C1  UNL     1      30.720  12.383  45.278  1.00  0.00     0.357 C 
HETATM   32  F1  UNL     1      31.857  12.162  45.983  1.00  0.00    -0.462 F 
ENDBRANCH   1  30
TORSDOF 3
ENDMDL
MODEL 4
REMARK VINA RESULT:      -7.2      3.211      5.525
REMARK  3 active torsions:
REMARK  status: ('A' for Active; 'I' for Inactive)
REMARK    1  A    between atoms: C2_3  and  C3_4 
REMARK    2  A    between atoms: C12_16  and  O3_17 
REMARK    3  A    between atoms: O3_17  and  C13_18 
ROOT
HETATM    1  C3  UNL     1      20.065   1.826  52.075  1.00  0.00     0.076 C 
HETATM    2  C4  UNL     1      21.100   2.583  51.662  1.00  0.00     0.009 C 
HETATM    3  C5  UNL     1      22.020   1.734  52.368  1.00  0.00     0.190 A 
HETATM    4  C6  UNL     1      23.074   1.152  52.912  1.00  0.00     0.052 A 
HETATM    5 CL1  UNL     1      21.867   0.005  53.527  1.00  0.00    -0.201 Cl
HETATM    6  C7  UNL     1      24.355   0.638  53.457  1.00  0.00     0.189 C 
HETATM    7  O1  UNL     1      25.456   1.443  53.186  1.00  0.00    -0.388 OA
HETATM    8  C8  UNL     1      25.614   1.698  51.881  1.00  0.00     0.193 C 
HETATM    9  C9  UNL     1      26.755   2.656  51.525  1.00  0.00     0.195 C 
HETATM   10  O2  UNL     1      26.565   2.773  50.054  1.00  0.00    -0.373 OA
HETATM   11  C10 UNL     1      25.239   3.237  49.754  1.00  0.00     0.111 A 
HETATM   12  C11 UNL     1      24.827   4.333  50.534  1.00  0.00     0.099 A 
HETATM   13  C12 UNL     1      23.597   4.932  50.422  1.00  0.00     0.049 A 
HETATM   14  C18 UNL     1      23.606   3.937  49.512  1.00  0.00     0.088 A 
HETATM   15  C19 UNL     1      22.179   3.762  49.446  1.00  0.00     0.172 A 
HETATM   16  N1  UNL     1      20.982   3.348  48.982  1.00  0.00    -0.247 NA
HETATM   17  C20 UNL     1      20.954   2.576  47.835  1.00  0.00     0.225 A 
HETATM   18  N2  UNL     1      22.295   2.589  47.720  1.00  0.00    -0.266 NA
HETATM   19  C21 UNL     1      23.044   3.236  48.573  1.00  0.00     0.127 A 
HETATM   20  C22 UNL     1      24.359   2.740  48.826  1.00  0.00     0.082 A 
HETATM   21  N3  UNL     1      21.677   3.709  50.887  1.00  0.00    -0.364 N 
HETATM   22  H23 UNL     1      21.658   4.273  51.732  1.00  0.00     0.162 HD
ENDROOT
BRANCH  13  23
HETATM   23  O3  UNL     1      23.130   6.007  51.149  1.00  0.00    -0.353 OA
BRANCH  23  24
HETATM   24  C13 UNL     1      23.043   7.342  50.833  1.00  0.00     0.132 C 
HETATM   25  C14 UNL     1      23.580   7.653  49.479  1.00  0.00     0.058 C 
HETATM   26  C15 UNL     1      22.640   7.408  48.349  1.00  0.00     0.170 C 
HETATM   27  O4  UNL     1      21.348   7.800  48.522  1.00  0.00    -0.391 OA
HETATM   28  C16 UNL     1      20.856   7.088  49.630  1.00  0.00     0.170 C 
HETATM   29  C17 UNL     1      21.534   7.664  50.831  1.00  0.00     0.058 C 
ENDBRANCH  23  24
ENDBRANCH  13  23
BRANCH   1  30
HETATM   30  C2  UNL     1      18.677   2.009  51.780  1.00  0.00     0.082 C 
HETATM   31  C1  UNL     1      18.301   0.719  51.588  1.00  0.00     0.357 C 
HETATM   32  F1  UNL     1      18.897  -0.498  51.618  1.00  0.00    -0.462 F 
ENDBRANCH   1  30
TORSDOF 3
ENDMDL
MODEL 5
REMARK VINA RESULT:      -7.0      9.346     12.674
REMARK  3 active torsions:
REMARK  status: ('A' for Active; 'I' for Inactive)
REMARK    1  A    between atoms: C2_3  and  C3_4 
REMARK    2  A    between atoms: C12_16  and  O3_17 
REMARK    3  A    between atoms: O3_17  and  C13_18 
ROOT
HETATM    1  C3  UNL     1      27.285   7.418  47.554  1.00  0.00     0.076 C 
HETATM    2  C4  UNL     1      28.497   7.665  47.021  1.00  0.00     0.009 C 
HETATM    3  C5  UNL     1      27.884   8.321  45.898  1.00  0.00     0.190 A 
HETATM    4  C6  UNL     1      27.609   8.956  44.772  1.00  0.00     0.052 A 
HETATM    5 CL1  UNL     1      25.931   8.771  45.317  1.00  0.00    -0.201 Cl
HETATM    6  C7  UNL     1      27.482   9.660  43.473  1.00  0.00     0.189 C 
HETATM    7  O1  UNL     1      28.683   9.833  42.794  1.00  0.00    -0.388 OA
HETATM    8  C8  UNL     1      29.619  10.448  43.528  1.00  0.00     0.193 C 
HETATM    9  C9  UNL     1      30.995  10.585  42.869  1.00  0.00     0.195 C 
HETATM   10  O2  UNL     1      31.768  11.205  43.979  1.00  0.00    -0.373 OA
HETATM   11  C10 UNL     1      31.714  10.379  45.153  1.00  0.00     0.111 A 
HETATM   12  C11 UNL     1      31.949   9.014  44.902  1.00  0.00     0.099 A 
HETATM   13  C12 UNL     1      31.936   8.045  45.875  1.00  0.00     0.049 A 
HETATM   14  C18 UNL     1      31.674   9.206  46.509  1.00  0.00     0.088 A 
HETATM   15  C19 UNL     1      30.980   8.628  47.629  1.00  0.00     0.172 A 
HETATM   16  N1  UNL     1      30.412   8.542  48.849  1.00  0.00    -0.247 NA
HETATM   17  C20 UNL     1      30.424   9.663  49.659  1.00  0.00     0.225 A 
HETATM   18  N2  UNL     1      31.056  10.404  48.729  1.00  0.00    -0.266 NA
HETATM   19  C21 UNL     1      31.407   9.893  47.578  1.00  0.00     0.127 A 
HETATM   20  C22 UNL     1      31.459  10.761  46.445  1.00  0.00     0.082 A 
HETATM   21  N3  UNL     1      29.979   7.628  47.056  1.00  0.00    -0.364 N 
HETATM   22  H23 UNL     1      29.951   6.784  46.489  1.00  0.00     0.162 HD
ENDROOT
BRANCH  13  23
HETATM   23  O3  UNL     1      32.161   6.696  45.702  1.00  0.00    -0.353 OA
BRANCH  23  24
HETATM   24  C13 UNL     1      33.171   5.882  46.156  1.00  0.00     0.132 C 
HETATM   25  C14 UNL     1      33.539   6.152  47.574  1.00  0.00     0.058 C 
HETATM   26  C15 UNL     1      32.668   5.502  48.593  1.00  0.00     0.170 C 
HETATM   27  O4  UNL     1      32.305   4.211  48.365  1.00  0.00    -0.391 OA
HETATM   28  C16 UNL     1      31.598   4.199  47.150  1.00  0.00     0.170 C 
HETATM   29  C17 UNL     1      32.608   4.448  46.077  1.00  0.00     0.058 C 
ENDBRANCH  23  24
ENDBRANCH  13  23
BRANCH   1  30
HETATM   30  C2  UNL     1      26.992   6.744  48.783  1.00  0.00     0.082 C 
HETATM   31  C1  UNL     1      25.666   6.505  48.613  1.00  0.00     0.357 C 
HETATM   32  F1  UNL     1      24.733   6.745  47.661  1.00  0.00    -0.462 F 
ENDBRANCH   1  30
TORSDOF 3
ENDMDL
MODEL 6
REMARK VINA RESULT:      -6.7      3.704      5.334
REMARK  3 active torsions:
REMARK  status: ('A' for Active; 'I' for Inactive)
REMARK    1  A    between atoms: C2_3  and  C3_4 
REMARK    2  A    between atoms: C12_16  and  O3_17 
REMARK    3  A    between atoms: O3_17  and  C13_18 
ROOT
HETATM    1  C3  UNL     1      24.793   7.018  47.590  1.00  0.00     0.076 C 
HETATM    2  C4  UNL     1      24.000   6.071  48.127  1.00  0.00     0.009 C 
HETATM    3  C5  UNL     1      25.145   5.421  48.704  1.00  0.00     0.190 A 
HETATM    4  C6  UNL     1      25.990   4.622  49.333  1.00  0.00     0.052 A 
HETATM    5 CL1  UNL     1      27.200   5.785  48.755  1.00  0.00    -0.201 Cl
HETATM    6  C7  UNL     1      26.792   3.618  50.072  1.00  0.00     0.189 C 
HETATM    7  O1  UNL     1      26.061   2.533  50.543  1.00  0.00    -0.388 OA
HETATM    8  C8  UNL     1      25.016   2.892  51.300  1.00  0.00     0.193 C 
HETATM    9  C9  UNL     1      24.115   1.747  51.773  1.00  0.00     0.195 C 
HETATM   10  O2  UNL     1      23.048   2.511  52.474  1.00  0.00    -0.373 OA
HETATM   11  C10 UNL     1      22.441   3.460  51.584  1.00  0.00     0.111 A 
HETATM   12  C11 UNL     1      22.114   2.932  50.321  1.00  0.00     0.099 A 
HETATM   13  C12 UNL     1      21.535   3.663  49.313  1.00  0.00     0.049 A 
HETATM   14  C18 UNL     1      21.682   4.515  50.349  1.00  0.00     0.088 A 
HETATM   15  C19 UNL     1      21.704   5.722  49.565  1.00  0.00     0.172 A 
HETATM   16  N1  UNL     1      21.654   7.039  49.282  1.00  0.00    -0.247 NA
HETATM   17  C20 UNL     1      21.475   7.929  50.325  1.00  0.00     0.225 A 
HETATM   18  N2  UNL     1      21.451   6.942  51.242  1.00  0.00    -0.266 NA
HETATM   19  C21 UNL     1      21.562   5.688  50.893  1.00  0.00     0.127 A 
HETATM   20  C22 UNL     1      22.161   4.782  51.821  1.00  0.00     0.082 A 
HETATM   21  N3  UNL     1      22.671   5.476  48.409  1.00  0.00    -0.364 N 
HETATM   22  H23 UNL     1      22.804   4.853  47.617  1.00  0.00     0.162 HD
ENDROOT
BRANCH  13  23
HETATM   23  O3  UNL     1      21.186   3.211  48.058  1.00  0.00    -0.353 OA
BRANCH  23  24
HETATM   24  C13 UNL     1      19.967   2.859  47.531  1.00  0.00     0.132 C 
HETATM   25  C14 UNL     1      18.823   3.285  48.384  1.00  0.00     0.058 C 
HETATM   26  C15 UNL     1      18.395   4.702  48.215  1.00  0.00     0.170 C 
HETATM   27  O4  UNL     1      18.331   5.183  46.944  1.00  0.00    -0.391 OA
HETATM   28  C16 UNL     1      19.626   5.075  46.406  1.00  0.00     0.170 C 
HETATM   29  C17 UNL     1      19.867   3.617  46.190  1.00  0.00     0.058 C 
ENDBRANCH  23  24
ENDBRANCH  13  23
BRANCH   1  30
HETATM   30  C2  UNL     1      24.398   8.140  46.793  1.00  0.00     0.082 C 
HETATM   31  C1  UNL     1      24.276   9.087  47.758  1.00  0.00     0.357 C 
HETATM   32  F1  UNL     1      24.433   9.153  49.102  1.00  0.00    -0.462 F 
ENDBRANCH   1  30
TORSDOF 3
ENDMDL
MODEL 7
REMARK VINA RESULT:      -6.7      7.047      8.931
REMARK  3 active torsions:
REMARK  status: ('A' for Active; 'I' for Inactive)
REMARK    1  A    between atoms: C2_3  and  C3_4 
REMARK    2  A    between atoms: C12_16  and  O3_17 
REMARK    3  A    between atoms: O3_17  and  C13_18 
ROOT
HETATM    1  C3  UNL     1      30.019   7.791  46.607  1.00  0.00     0.076 C 
HETATM    2  C4  UNL     1      28.722   8.077  46.827  1.00  0.00     0.009 C 
HETATM    3  C5  UNL     1      28.549   6.825  47.513  1.00  0.00     0.190 A 
HETATM    4  C6  UNL     1      28.100   5.769  48.167  1.00  0.00     0.052 A 
HETATM    5 CL1  UNL     1      29.782   5.220  48.022  1.00  0.00    -0.201 Cl
HETATM    6  C7  UNL     1      27.430   4.660  48.890  1.00  0.00     0.189 C 
HETATM    7  O1  UNL     1      26.057   4.819  49.038  1.00  0.00    -0.388 OA
HETATM    8  C8  UNL     1      25.721   5.978  49.619  1.00  0.00     0.193 C 
HETATM    9  C9  UNL     1      24.218   6.255  49.726  1.00  0.00     0.195 C 
HETATM   10  O2  UNL     1      24.234   7.623  50.311  1.00  0.00    -0.373 OA
HETATM   11  C10 UNL     1      24.980   8.520  49.473  1.00  0.00     0.111 A 
HETATM   12  C11 UNL     1      24.663   8.420  48.106  1.00  0.00     0.099 A 
HETATM   13  C12 UNL     1      25.259   9.176  47.126  1.00  0.00     0.049 A 
HETATM   14  C18 UNL     1      25.825   9.565  48.287  1.00  0.00     0.088 A 
HETATM   15  C19 UNL     1      27.053  10.050  47.715  1.00  0.00     0.172 A 
HETATM   16  N1  UNL     1      28.231  10.702  47.630  1.00  0.00    -0.247 NA
HETATM   17  C20 UNL     1      28.680  11.393  48.740  1.00  0.00     0.225 A 
HETATM   18  N2  UNL     1      27.611  11.030  49.474  1.00  0.00    -0.266 NA
HETATM   19  C21 UNL     1      26.659  10.291  48.968  1.00  0.00     0.127 A 
HETATM   20  C22 UNL     1      25.939   9.426  49.848  1.00  0.00     0.082 A 
HETATM   21  N3  UNL     1      27.542   8.973  46.749  1.00  0.00    -0.364 N 
HETATM   22  H23 UNL     1      27.246   8.476  45.913  1.00  0.00     0.162 HD
ENDROOT
BRANCH  13  23
HETATM   23  O3  UNL     1      24.996   9.133  45.773  1.00  0.00    -0.353 OA
BRANCH  23  24
HETATM   24  C13 UNL     1      24.890   8.071  44.906  1.00  0.00     0.132 C 
HETATM   25  C14 UNL     1      23.507   7.883  44.387  1.00  0.00     0.058 C 
HETATM   26  C15 UNL     1      23.134   8.754  43.237  1.00  0.00     0.170 C 
HETATM   27  O4  UNL     1      24.063   8.917  42.256  1.00  0.00    -0.391 OA
HETATM   28  C16 UNL     1      25.193   9.494  42.862  1.00  0.00     0.170 C 
HETATM   29  C17 UNL     1      25.801   8.426  43.712  1.00  0.00     0.058 C 
ENDBRANCH  23  24
ENDBRANCH  13  23
BRANCH   1  30
HETATM   30  C2  UNL     1      30.988   8.597  45.927  1.00  0.00     0.082 C 
HETATM   31  C1  UNL     1      31.549   9.238  46.984  1.00  0.00     0.357 C 
HETATM   32  F1  UNL     1      31.389   9.252  48.329  1.00  0.00    -0.462 F 
ENDBRANCH   1  30
TORSDOF 3
ENDMDL
MODEL 8
REMARK VINA RESULT:      -6.7      8.976     11.887
REMARK  3 active torsions:
REMARK  status: ('A' for Active; 'I' for Inactive)
REMARK    1  A    between atoms: C2_3  and  C3_4 
REMARK    2  A    between atoms: C12_16  and  O3_17 
REMARK    3  A    between atoms: O3_17  and  C13_18 
ROOT
HETATM    1  C3  UNL     1      26.262   7.330  48.005  1.00  0.00     0.076 C 
HETATM    2  C4  UNL     1      27.303   8.122  47.685  1.00  0.00     0.009 C 
HETATM    3  C5  UNL     1      28.215   7.031  47.898  1.00  0.00     0.190 A 
HETATM    4  C6  UNL     1      29.264   6.238  48.025  1.00  0.00     0.052 A 
HETATM    5 CL1  UNL     1      28.038   5.022  48.436  1.00  0.00    -0.201 Cl
HETATM    6  C7  UNL     1      30.545   5.496  48.134  1.00  0.00     0.189 C 
HETATM    7  O1  UNL     1      31.678   6.280  47.949  1.00  0.00    -0.388 OA
HETATM    8  C8  UNL     1      31.668   6.956  46.794  1.00  0.00     0.193 C 
HETATM    9  C9  UNL     1      32.846   7.910  46.573  1.00  0.00     0.195 C 
HETATM   10  O2  UNL     1      32.454   8.533  45.281  1.00  0.00    -0.373 OA
HETATM   11  C10 UNL     1      31.161   9.148  45.390  1.00  0.00     0.111 A 
HETATM   12  C11 UNL     1      30.998   9.933  46.546  1.00  0.00     0.099 A 
HETATM   13  C12 UNL     1      29.841  10.605  46.858  1.00  0.00     0.049 A 
HETATM   14  C18 UNL     1      29.601   9.981  45.685  1.00  0.00     0.088 A 
HETATM   15  C19 UNL     1      28.169   9.922  45.821  1.00  0.00     0.172 A 
HETATM   16  N1  UNL     1      26.877   9.762  45.470  1.00  0.00    -0.247 NA
HETATM   17  C20 UNL     1      26.591   9.431  44.158  1.00  0.00     0.225 A 
HETATM   18  N2  UNL     1      27.893   9.405  43.816  1.00  0.00    -0.266 NA
HETATM   19  C21 UNL     1      28.829   9.678  44.686  1.00  0.00     0.127 A 
HETATM   20  C22 UNL     1      30.102   9.050  44.523  1.00  0.00     0.082 A 
HETATM   21  N3  UNL     1      27.884   9.409  47.231  1.00  0.00    -0.364 N 
HETATM   22  H23 UNL     1      28.055   9.651  48.204  1.00  0.00     0.162 HD
ENDROOT
BRANCH  13  23
HETATM   23  O3  UNL     1      29.613  11.391  47.966  1.00  0.00    -0.353 OA
BRANCH  23  24
HETATM   24  C13 UNL     1      29.587  12.757  48.115  1.00  0.00     0.132 C 
HETATM   25  C14 UNL     1      29.445  13.478  46.820  1.00  0.00     0.058 C 
HETATM   26  C15 UNL     1      28.052  13.590  46.302  1.00  0.00     0.170 C 
HETATM   27  O4  UNL     1      27.079  13.898  47.202  1.00  0.00    -0.391 OA
HETATM   28  C16 UNL     1      27.081  12.873  48.164  1.00  0.00     0.170 C 
HETATM   29  C17 UNL     1      28.331  13.053  48.963  1.00  0.00     0.058 C 
ENDBRANCH  23  24
ENDBRANCH  13  23
BRANCH   1  30
HETATM   30  C2  UNL     1      24.874   7.683  48.039  1.00  0.00     0.082 C 
HETATM   31  C1  UNL     1      24.328   6.475  48.335  1.00  0.00     0.357 C 
HETATM   32  F1  UNL     1      24.777   5.217  48.564  1.00  0.00    -0.462 F 
ENDBRANCH   1  30
TORSDOF 3
ENDMDL
MODEL 9
REMARK VINA RESULT:      -6.7     23.737     26.747
REMARK  3 active torsions:
REMARK  status: ('A' for Active; 'I' for Inactive)
REMARK    1  A    between atoms: C2_3  and  C3_4 
REMARK    2  A    between atoms: C12_16  and  O3_17 
REMARK    3  A    between atoms: O3_17  and  C13_18 
ROOT
HETATM    1  C3  UNL     1      39.231   3.403  71.913  1.00  0.00     0.076 C 
HETATM    2  C4  UNL     1      40.001   2.798  70.988  1.00  0.00     0.009 C 
HETATM    3  C5  UNL     1      40.672   4.040  70.715  1.00  0.00     0.190 A 
HETATM    4  C6  UNL     1      41.438   5.014  70.257  1.00  0.00     0.052 A 
HETATM    5 CL1  UNL     1      40.563   5.988  71.455  1.00  0.00    -0.201 Cl
HETATM    6  C7  UNL     1      42.361   5.986  69.621  1.00  0.00     0.189 C 
HETATM    7  O1  UNL     1      43.097   5.468  68.561  1.00  0.00    -0.388 OA
HETATM    8  C8  UNL     1      43.787   4.368  68.887  1.00  0.00     0.193 C 
HETATM    9  C9  UNL     1      44.545   3.695  67.738  1.00  0.00     0.195 C 
HETATM   10  O2  UNL     1      45.088   2.498  68.435  1.00  0.00    -0.373 OA
HETATM   11  C10 UNL     1      44.024   1.729  69.019  1.00  0.00     0.111 A 
HETATM   12  C11 UNL     1      42.931   1.519  68.158  1.00  0.00     0.099 A 
HETATM   13  C12 UNL     1      41.803   0.821  68.512  1.00  0.00     0.049 A 
HETATM   14  C18 UNL     1      42.606   0.795  69.595  1.00  0.00     0.088 A 
HETATM   15  C19 UNL     1      41.564   0.596  70.567  1.00  0.00     0.172 A 
HETATM   16  N1  UNL     1      40.984   0.301  71.749  1.00  0.00    -0.247 NA
HETATM   17  C20 UNL     1      41.799  -0.051  72.809  1.00  0.00     0.225 A 
HETATM   18  N2  UNL     1      42.920   0.104  72.079  1.00  0.00    -0.266 NA
HETATM   19  C21 UNL     1      42.867   0.452  70.821  1.00  0.00     0.127 A 
HETATM   20  C22 UNL     1      43.958   1.203  70.285  1.00  0.00     0.082 A 
HETATM   21  N3  UNL     1      40.462   1.602  70.241  1.00  0.00    -0.364 N 
HETATM   22  H23 UNL     1      39.831   1.857  69.485  1.00  0.00     0.162 HD
ENDROOT
BRANCH  13  23
HETATM   23  O3  UNL     1      40.701   0.574  67.721  1.00  0.00    -0.353 OA
BRANCH  23  24
HETATM   24  C13 UNL     1      40.305  -0.558  67.050  1.00  0.00     0.132 C 
HETATM   25  C14 UNL     1      41.036  -1.778  67.491  1.00  0.00     0.058 C 
HETATM   26  C15 UNL     1      40.510  -2.425  68.727  1.00  0.00     0.170 C 
HETATM   27  O4  UNL     1      39.158  -2.533  68.842  1.00  0.00    -0.391 OA
HETATM   28  C16 UNL     1      38.645  -1.224  68.810  1.00  0.00     0.170 C 
HETATM   29  C17 UNL     1      38.814  -0.744  67.405  1.00  0.00     0.058 C 
ENDBRANCH  23  24
ENDBRANCH  13  23
BRANCH   1  30
HETATM   30  C2  UNL     1      38.211   2.809  72.723  1.00  0.00     0.082 C 
HETATM   31  C1  UNL     1      37.194   3.682  72.502  1.00  0.00     0.357 C 
HETATM   32  F1  UNL     1      37.002   4.813  71.781  1.00  0.00    -0.462 F 
ENDBRANCH   1  30
TORSDOF 3
ENDMDL
