MODEL 1
REMARK VINA RESULT:      -9.3      0.000      0.000
REMARK  2 active torsions:
REMARK  status: ('A' for Active; 'I' for Inactive)
REMARK    1  A    between atoms: N1_4  and  C3_5 
REMARK    2  A    between atoms: C16_23  and  C17_24 
ROOT
HETATM    1  C3  UNL     1      24.414   1.191  52.557  1.00  0.00     0.139 A 
HETATM    2  N2  UNL     1      23.530   0.703  53.441  1.00  0.00    -0.224 NA
HETATM    3  C4  UNL     1      23.701  -0.502  53.983  1.00  0.00     0.235 A 
HETATM    4  N3  UNL     1      24.789  -1.173  53.594  1.00  0.00    -0.244 NA
HETATM    5  C5  UNL     1      25.677  -0.706  52.720  1.00  0.00     0.074 A 
HETATM    6  C6  UNL     1      25.583   0.542  52.099  1.00  0.00     0.017 A 
HETATM    7  C7  UNL     1      26.315   1.307  51.082  1.00  0.00     0.071 C 
HETATM    8  C8  UNL     1      26.905   2.595  51.481  1.00  0.00     0.172 C 
HETATM    9  O1  UNL     1      27.980   2.830  52.199  1.00  0.00    -0.389 OA
HETATM   10  C9  UNL     1      28.363   2.283  53.358  1.00  0.00     0.197 C 
HETATM   11  C10 UNL     1      29.049   0.939  53.179  1.00  0.00     0.295 C 
HETATM   12  N4  UNL     1      29.367   0.249  54.381  1.00  0.00     0.087 N 
HETATM   13  C11 UNL     1      30.048  -1.056  54.076  1.00  0.00     0.299 C 
HETATM   14  C12 UNL     1      29.018  -1.808  53.213  1.00  0.00     0.299 C 
HETATM   15  N5  UNL     1      27.697  -1.509  53.715  1.00  0.00     0.090 N 
HETATM   16  C13 UNL     1      26.766  -1.750  52.586  1.00  0.00     0.329 C 
HETATM   17  H11 UNL     1      28.549   0.055  54.996  1.00  0.00     0.316 HD
HETATM   18  H16 UNL     1      27.367  -2.121  54.466  1.00  0.00     0.316 HD
ENDROOT
BRANCH   1  19
HETATM   19  N1  UNL     1      23.844   2.481  52.236  1.00  0.00    -0.335 N 
HETATM   20  C2  UNL     1      23.159   2.576  50.945  1.00  0.00     0.136 A 
HETATM   21  C1  UNL     1      22.590   3.559  50.272  1.00  0.00     0.144 A 
HETATM   22  F1  UNL     1      21.986   3.559  49.090  1.00  0.00    -0.204 F 
HETATM   23  C16 UNL     1      22.647   4.809  51.002  1.00  0.00     0.038 A 
HETATM   24  C15 UNL     1      23.219   4.803  52.175  1.00  0.00     0.011 A 
HETATM   25  C14 UNL     1      23.857   3.730  52.964  1.00  0.00     0.158 A 
BRANCH  23  26
HETATM   26  C17 UNL     1      22.118   6.115  50.556  1.00  0.00     0.112 A 
HETATM   27  N6  UNL     1      21.194   6.794  50.641  1.00  0.00    -0.239 NA
HETATM   28  C18 UNL     1      21.012   7.990  50.088  1.00  0.00     0.075 A 
HETATM   29  C19 UNL     1      19.924   8.841  50.160  1.00  0.00     0.033 A 
HETATM   30  C23 UNL     1      22.064   8.483  49.315  1.00  0.00     0.035 A 
HETATM   31  C20 UNL     1      19.945  10.048  49.502  1.00  0.00     0.002 A 
HETATM   32  C21 UNL     1      20.996  10.518  48.742  1.00  0.00     0.002 A 
HETATM   33  C22 UNL     1      22.107   9.710  48.637  1.00  0.00     0.021 A 
HETATM   34  S1  UNL     1      23.302   7.102  49.454  1.00  0.00    -0.067 SA
ENDBRANCH  23  26
ENDBRANCH   1  19
TORSDOF 2
ENDMDL
MODEL 2
REMARK VINA RESULT:      -9.1      4.752      8.015
REMARK  2 active torsions:
REMARK  status: ('A' for Active; 'I' for Inactive)
REMARK    1  A    between atoms: N1_4  and  C3_5 
REMARK    2  A    between atoms: C16_23  and  C17_24 
ROOT
HETATM    1  C3  UNL     1      24.309   3.325  49.845  1.00  0.00     0.139 A 
HETATM    2  N2  UNL     1      25.162   2.602  50.588  1.00  0.00    -0.224 NA
HETATM    3  C4  UNL     1      26.447   2.942  50.677  1.00  0.00     0.235 A 
HETATM    4  N3  UNL     1      26.817   4.028  49.992  1.00  0.00    -0.244 NA
HETATM    5  C5  UNL     1      25.987   4.758  49.251  1.00  0.00     0.074 A 
HETATM    6  C6  UNL     1      24.627   4.481  49.095  1.00  0.00     0.017 A 
HETATM    7  C7  UNL     1      23.489   5.014  48.335  1.00  0.00     0.071 C 
HETATM    8  C8  UNL     1      22.338   5.535  49.090  1.00  0.00     0.172 C 
HETATM    9  O1  UNL     1      22.220   6.666  49.748  1.00  0.00    -0.389 OA
HETATM   10  C9  UNL     1      23.062   7.234  50.619  1.00  0.00     0.197 C 
HETATM   11  C10 UNL     1      24.180   8.006  49.940  1.00  0.00     0.295 C 
HETATM   12  N4  UNL     1      25.178   8.528  50.808  1.00  0.00     0.087 N 
HETATM   13  C11 UNL     1      26.220   9.276  50.024  1.00  0.00     0.299 C 
HETATM   14  C12 UNL     1      26.772   8.217  49.052  1.00  0.00     0.299 C 
HETATM   15  N5  UNL     1      26.816   6.946  49.739  1.00  0.00     0.090 N 
HETATM   16  C13 UNL     1      26.789   5.909  48.680  1.00  0.00     0.329 C 
HETATM   17  H11 UNL     1      25.660   7.811  51.391  1.00  0.00     0.316 HD
HETATM   18  H16 UNL     1      27.674   6.766  50.267  1.00  0.00     0.316 HD
ENDROOT
BRANCH   1  19
HETATM   19  N1  UNL     1      23.065   2.610  50.026  1.00  0.00    -0.335 N 
HETATM   20  C2  UNL     1      22.454   2.712  51.353  1.00  0.00     0.136 A 
HETATM   21  C1  UNL     1      21.396   2.169  51.926  1.00  0.00     0.144 A 
HETATM   22  F1  UNL     1      20.907   2.316  53.152  1.00  0.00    -0.204 F 
HETATM   23  C16 UNL     1      20.681   1.300  51.013  1.00  0.00     0.038 A 
HETATM   24  C15 UNL     1      21.147   1.176  49.801  1.00  0.00     0.011 A 
HETATM   25  C14 UNL     1      22.317   1.768  49.121  1.00  0.00     0.158 A 
BRANCH  23  26
HETATM   26  C17 UNL     1      19.459   0.524  51.311  1.00  0.00     0.112 A 
HETATM   27  N6  UNL     1      19.028  -0.234  52.061  1.00  0.00    -0.239 NA
HETATM   28  C18 UNL     1      17.814  -0.775  52.059  1.00  0.00     0.075 A 
HETATM   29  C19 UNL     1      17.251  -1.688  52.934  1.00  0.00     0.033 A 
HETATM   30  C23 UNL     1      16.958  -0.380  51.029  1.00  0.00     0.035 A 
HETATM   31  C20 UNL     1      15.961  -2.123  52.745  1.00  0.00     0.002 A 
HETATM   32  C21 UNL     1      15.131  -1.719  51.720  1.00  0.00     0.002 A 
HETATM   33  C22 UNL     1      15.640  -0.811  50.819  1.00  0.00     0.021 A 
HETATM   34  S1  UNL     1      18.037   0.809  50.091  1.00  0.00    -0.067 SA
ENDBRANCH  23  26
ENDBRANCH   1  19
TORSDOF 2
ENDMDL
MODEL 3
REMARK VINA RESULT:      -9.0      3.371      9.821
REMARK  2 active torsions:
REMARK  status: ('A' for Active; 'I' for Inactive)
REMARK    1  A    between atoms: N1_4  and  C3_5 
REMARK    2  A    between atoms: C16_23  and  C17_24 
ROOT
HETATM    1  C3  UNL     1      22.205   4.873  49.933  1.00  0.00     0.139 A 
HETATM    2  N2  UNL     1      22.358   5.842  50.850  1.00  0.00    -0.224 NA
HETATM    3  C4  UNL     1      21.560   6.908  50.855  1.00  0.00     0.235 A 
HETATM    4  N3  UNL     1      20.620   6.944  49.906  1.00  0.00    -0.244 NA
HETATM    5  C5  UNL     1      20.453   5.994  48.989  1.00  0.00     0.074 A 
HETATM    6  C6  UNL     1      21.238   4.842  48.903  1.00  0.00     0.017 A 
HETATM    7  C7  UNL     1      21.365   3.678  48.018  1.00  0.00     0.071 C 
HETATM    8  C8  UNL     1      21.132   2.344  48.596  1.00  0.00     0.172 C 
HETATM    9  O1  UNL     1      19.999   1.767  48.924  1.00  0.00    -0.389 OA
HETATM   10  C9  UNL     1      18.965   2.259  49.617  1.00  0.00     0.197 C 
HETATM   11  C10 UNL     1      18.030   3.101  48.765  1.00  0.00     0.295 C 
HETATM   12  N4  UNL     1      16.982   3.755  49.468  1.00  0.00     0.087 N 
HETATM   13  C11 UNL     1      16.123   4.545  48.520  1.00  0.00     0.299 C 
HETATM   14  C12 UNL     1      17.112   5.533  47.874  1.00  0.00     0.299 C 
HETATM   15  N5  UNL     1      18.066   5.946  48.877  1.00  0.00     0.090 N 
HETATM   16  C13 UNL     1      19.268   6.397  48.136  1.00  0.00     0.329 C 
HETATM   17  H11 UNL     1      17.305   4.392  50.226  1.00  0.00     0.316 HD
HETATM   18  H16 UNL     1      17.783   6.752  49.441  1.00  0.00     0.316 HD
ENDROOT
BRANCH   1  19
HETATM   19  N1  UNL     1      23.258   3.947  50.290  1.00  0.00    -0.335 N 
HETATM   20  C2  UNL     1      23.012   3.123  51.475  1.00  0.00     0.136 A 
HETATM   21  C1  UNL     1      23.727   2.241  52.150  1.00  0.00     0.144 A 
HETATM   22  F1  UNL     1      23.424   1.531  53.230  1.00  0.00    -0.204 F 
HETATM   23  C16 UNL     1      25.033   2.043  51.555  1.00  0.00     0.038 A 
HETATM   24  C15 UNL     1      25.319   2.722  50.479  1.00  0.00     0.011 A 
HETATM   25  C14 UNL     1      24.551   3.707  49.691  1.00  0.00     0.158 A 
BRANCH  23  26
HETATM   26  C17 UNL     1      26.094   1.139  52.042  1.00  0.00     0.112 A 
HETATM   27  N6  UNL     1      26.372   0.025  52.116  1.00  0.00    -0.239 NA
HETATM   28  C18 UNL     1      27.472  -0.504  52.641  1.00  0.00     0.075 A 
HETATM   29  C19 UNL     1      27.850  -1.831  52.754  1.00  0.00     0.033 A 
HETATM   30  C23 UNL     1      28.404   0.393  53.166  1.00  0.00     0.035 A 
HETATM   31  C20 UNL     1      29.047  -2.162  53.341  1.00  0.00     0.002 A 
HETATM   32  C21 UNL     1      29.955  -1.259  53.854  1.00  0.00     0.002 A 
HETATM   33  C22 UNL     1      29.630   0.077  53.768  1.00  0.00     0.021 A 
HETATM   34  S1  UNL     1      27.569   2.022  52.840  1.00  0.00    -0.067 SA
ENDBRANCH  23  26
ENDBRANCH   1  19
TORSDOF 2
ENDMDL
MODEL 4
REMARK VINA RESULT:      -9.0      5.340     10.141
REMARK  2 active torsions:
REMARK  status: ('A' for Active; 'I' for Inactive)
REMARK    1  A    between atoms: N1_4  and  C3_5 
REMARK    2  A    between atoms: C16_23  and  C17_24 
ROOT
HETATM    1  C3  UNL     1      25.795   8.419  47.717  1.00  0.00     0.139 A 
HETATM    2  N2  UNL     1      25.346   7.944  46.545  1.00  0.00    -0.224 NA
HETATM    3  C4  UNL     1      25.269   8.732  45.474  1.00  0.00     0.235 A 
HETATM    4  N3  UNL     1      25.661   9.997  45.645  1.00  0.00    -0.244 NA
HETATM    5  C5  UNL     1      26.109  10.487  46.799  1.00  0.00     0.074 A 
HETATM    6  C6  UNL     1      26.225   9.741  47.974  1.00  0.00     0.017 A 
HETATM    7  C7  UNL     1      26.600   9.971  49.375  1.00  0.00     0.071 C 
HETATM    8  C8  UNL     1      27.762   9.241  49.906  1.00  0.00     0.172 C 
HETATM    9  O1  UNL     1      29.042   9.452  49.698  1.00  0.00    -0.389 OA
HETATM   10  C9  UNL     1      29.690   9.669  48.548  1.00  0.00     0.197 C 
HETATM   11  C10 UNL     1      29.607  11.114  48.087  1.00  0.00     0.295 C 
HETATM   12  N4  UNL     1      30.169  11.383  46.809  1.00  0.00     0.087 N 
HETATM   13  C11 UNL     1      30.035  12.842  46.470  1.00  0.00     0.299 C 
HETATM   14  C12 UNL     1      28.515  13.085  46.513  1.00  0.00     0.299 C 
HETATM   15  N5  UNL     1      27.850  11.913  45.993  1.00  0.00     0.090 N 
HETATM   16  C13 UNL     1      26.479  11.935  46.558  1.00  0.00     0.329 C 
HETATM   17  H11 UNL     1      29.756  10.827  46.031  1.00  0.00     0.316 HD
HETATM   18  H16 UNL     1      27.719  11.901  44.978  1.00  0.00     0.316 HD
ENDROOT
BRANCH   1  19
HETATM   19  N1  UNL     1      25.703   7.256  48.573  1.00  0.00    -0.335 N 
HETATM   20  C2  UNL     1      26.702   6.211  48.344  1.00  0.00     0.136 A 
HETATM   21  C1  UNL     1      26.908   5.006  48.844  1.00  0.00     0.144 A 
HETATM   22  F1  UNL     1      27.850   4.110  48.576  1.00  0.00    -0.204 F 
HETATM   23  C16 UNL     1      25.930   4.674  49.860  1.00  0.00     0.038 A 
HETATM   24  C15 UNL     1      25.021   5.566  50.142  1.00  0.00     0.011 A 
HETATM   25  C14 UNL     1      24.759   6.920  49.615  1.00  0.00     0.158 A 
BRANCH  23  26
HETATM   26  C17 UNL     1      25.850   3.414  50.627  1.00  0.00     0.112 A 
HETATM   27  N6  UNL     1      26.469   2.488  50.914  1.00  0.00    -0.239 NA
HETATM   28  C18 UNL     1      26.091   1.462  51.670  1.00  0.00     0.075 A 
HETATM   29  C19 UNL     1      26.794   0.330  52.041  1.00  0.00     0.033 A 
HETATM   30  C23 UNL     1      24.792   1.510  52.180  1.00  0.00     0.035 A 
HETATM   31  C20 UNL     1      26.205  -0.621  52.841  1.00  0.00     0.002 A 
HETATM   32  C21 UNL     1      24.918  -0.553  53.334  1.00  0.00     0.002 A 
HETATM   33  C22 UNL     1      24.172   0.554  52.996  1.00  0.00     0.021 A 
HETATM   34  S1  UNL     1      24.185   3.125  51.485  1.00  0.00    -0.067 SA
ENDBRANCH  23  26
ENDBRANCH   1  19
TORSDOF 2
ENDMDL
MODEL 5
REMARK VINA RESULT:      -9.0      5.060      8.743
REMARK  2 active torsions:
REMARK  status: ('A' for Active; 'I' for Inactive)
REMARK    1  A    between atoms: N1_4  and  C3_5 
REMARK    2  A    between atoms: C16_23  and  C17_24 
ROOT
HETATM    1  C3  UNL     1      27.346   5.582  48.521  1.00  0.00     0.139 A 
HETATM    2  N2  UNL     1      28.432   4.795  48.576  1.00  0.00    -0.224 NA
HETATM    3  C4  UNL     1      29.576   5.171  48.009  1.00  0.00     0.235 A 
HETATM    4  N3  UNL     1      29.567   6.359  47.397  1.00  0.00    -0.244 NA
HETATM    5  C5  UNL     1      28.502   7.153  47.331  1.00  0.00     0.074 A 
HETATM    6  C6  UNL     1      27.261   6.846  47.893  1.00  0.00     0.017 A 
HETATM    7  C7  UNL     1      25.917   7.435  47.948  1.00  0.00     0.071 C 
HETATM    8  C8  UNL     1      25.375   7.794  49.269  1.00  0.00     0.172 C 
HETATM    9  O1  UNL     1      25.678   8.813  50.042  1.00  0.00    -0.389 OA
HETATM   10  C9  UNL     1      26.879   9.283  50.395  1.00  0.00     0.197 C 
HETATM   11  C10 UNL     1      27.491  10.191  49.341  1.00  0.00     0.295 C 
HETATM   12  N4  UNL     1      28.820  10.623  49.601  1.00  0.00     0.087 N 
HETATM   13  C11 UNL     1      29.310  11.518  48.497  1.00  0.00     0.299 C 
HETATM   14  C12 UNL     1      29.207  10.634  47.241  1.00  0.00     0.299 C 
HETATM   15  N5  UNL     1      29.557   9.280  47.606  1.00  0.00     0.090 N 
HETATM   16  C13 UNL     1      28.921   8.406  46.591  1.00  0.00     0.329 C 
HETATM   17  H11 UNL     1      29.507   9.850  49.724  1.00  0.00     0.316 HD
HETATM   18  H16 UNL     1      30.556   9.061  47.558  1.00  0.00     0.316 HD
ENDROOT
BRANCH   1  19
HETATM   19  N1  UNL     1      26.364   4.798  49.237  1.00  0.00    -0.335 N 
HETATM   20  C2  UNL     1      26.895   3.796  50.162  1.00  0.00     0.136 A 
HETATM   21  C1  UNL     1      26.352   2.862  50.922  1.00  0.00     0.144 A 
HETATM   22  F1  UNL     1      26.914   1.981  51.742  1.00  0.00    -0.204 F 
HETATM   23  C16 UNL     1      24.907   2.861  50.819  1.00  0.00     0.038 A 
HETATM   24  C15 UNL     1      24.354   3.744  50.033  1.00  0.00     0.011 A 
HETATM   25  C14 UNL     1      24.919   4.805  49.177  1.00  0.00     0.158 A 
BRANCH  23  26
HETATM   26  C17 UNL     1      23.974   1.955  51.520  1.00  0.00     0.112 A 
HETATM   27  N6  UNL     1      23.941   0.962  52.099  1.00  0.00    -0.239 NA
HETATM   28  C18 UNL     1      22.879   0.376  52.644  1.00  0.00     0.075 A 
HETATM   29  C19 UNL     1      22.787  -0.813  53.346  1.00  0.00     0.033 A 
HETATM   30  C23 UNL     1      21.660   1.041  52.501  1.00  0.00     0.035 A 
HETATM   31  C20 UNL     1      21.573  -1.240  53.829  1.00  0.00     0.002 A 
HETATM   32  C21 UNL     1      20.378  -0.566  53.676  1.00  0.00     0.002 A 
HETATM   33  C22 UNL     1      20.412   0.625  52.985  1.00  0.00     0.021 A 
HETATM   34  S1  UNL     1      22.173   2.545  51.534  1.00  0.00    -0.067 SA
ENDBRANCH  23  26
ENDBRANCH   1  19
TORSDOF 2
ENDMDL
MODEL 6
REMARK VINA RESULT:      -8.6      5.885     10.138
REMARK  2 active torsions:
REMARK  status: ('A' for Active; 'I' for Inactive)
REMARK    1  A    between atoms: N1_4  and  C3_5 
REMARK    2  A    between atoms: C16_23  and  C17_24 
ROOT
HETATM    1  C3  UNL     1      18.201   2.491  51.276  1.00  0.00     0.139 A 
HETATM    2  N2  UNL     1      18.144   3.748  51.745  1.00  0.00    -0.224 NA
HETATM    3  C4  UNL     1      16.989   4.410  51.782  1.00  0.00     0.235 A 
HETATM    4  N3  UNL     1      15.918   3.750  51.332  1.00  0.00    -0.244 NA
HETATM    5  C5  UNL     1      15.954   2.504  50.865  1.00  0.00     0.074 A 
HETATM    6  C6  UNL     1      17.115   1.732  50.785  1.00  0.00     0.017 A 
HETATM    7  C7  UNL     1      17.507   0.409  50.283  1.00  0.00     0.071 C 
HETATM    8  C8  UNL     1      18.052  -0.560  51.248  1.00  0.00     0.172 C 
HETATM    9  O1  UNL     1      17.423  -1.270  52.157  1.00  0.00    -0.389 OA
HETATM   10  C9  UNL     1      16.502  -0.886  53.047  1.00  0.00     0.197 C 
HETATM   11  C10 UNL     1      15.103  -0.817  52.458  1.00  0.00     0.295 C 
HETATM   12  N4  UNL     1      14.100  -0.294  53.319  1.00  0.00     0.087 N 
HETATM   13  C11 UNL     1      12.764  -0.284  52.630  1.00  0.00     0.299 C 
HETATM   14  C12 UNL     1      13.003   0.598  51.390  1.00  0.00     0.299 C 
HETATM   15  N5  UNL     1      13.901   1.669  51.758  1.00  0.00     0.090 N 
HETATM   16  C13 UNL     1      14.536   2.121  50.498  1.00  0.00     0.329 C 
HETATM   17  H11 UNL     1      14.293   0.668  53.671  1.00  0.00     0.316 HD
HETATM   18  H16 UNL     1      13.449   2.503  52.143  1.00  0.00     0.316 HD
ENDROOT
BRANCH   1  19
HETATM   19  N1  UNL     1      19.608   2.180  51.410  1.00  0.00    -0.335 N 
HETATM   20  C2  UNL     1      20.007   1.544  52.667  1.00  0.00     0.136 A 
HETATM   21  C1  UNL     1      21.163   1.181  53.191  1.00  0.00     0.144 A 
HETATM   22  F1  UNL     1      21.441   0.604  54.354  1.00  0.00    -0.204 F 
HETATM   23  C16 UNL     1      22.268   1.464  52.296  1.00  0.00     0.038 A 
HETATM   24  C15 UNL     1      21.992   2.007  51.143  1.00  0.00     0.011 A 
HETATM   25  C14 UNL     1      20.719   2.419  50.518  1.00  0.00     0.158 A 
BRANCH  23  26
HETATM   26  C17 UNL     1      23.698   1.198  52.553  1.00  0.00     0.112 A 
HETATM   27  N6  UNL     1      24.471   0.346  52.573  1.00  0.00    -0.239 NA
HETATM   28  C18 UNL     1      25.768   0.434  52.856  1.00  0.00     0.075 A 
HETATM   29  C19 UNL     1      26.734  -0.556  52.895  1.00  0.00     0.033 A 
HETATM   30  C23 UNL     1      26.252   1.707  53.163  1.00  0.00     0.035 A 
HETATM   31  C20 UNL     1      28.033  -0.243  53.215  1.00  0.00     0.002 A 
HETATM   32  C21 UNL     1      28.492   1.023  53.516  1.00  0.00     0.002 A 
HETATM   33  C22 UNL     1      27.572   2.048  53.491  1.00  0.00     0.021 A 
HETATM   34  S1  UNL     1      24.709   2.734  53.011  1.00  0.00    -0.067 SA
ENDBRANCH  23  26
ENDBRANCH   1  19
TORSDOF 2
ENDMDL
MODEL 7
REMARK VINA RESULT:      -8.3      4.510      6.676
REMARK  2 active torsions:
REMARK  status: ('A' for Active; 'I' for Inactive)
REMARK    1  A    between atoms: N1_4  and  C3_5 
REMARK    2  A    between atoms: C16_23  and  C17_24 
ROOT
HETATM    1  C3  UNL     1      22.765   5.396  49.825  1.00  0.00     0.139 A 
HETATM    2  N2  UNL     1      21.638   6.109  49.981  1.00  0.00    -0.224 NA
HETATM    3  C4  UNL     1      20.452   5.505  50.040  1.00  0.00     0.235 A 
HETATM    4  N3  UNL     1      20.464   4.173  49.936  1.00  0.00    -0.244 NA
HETATM    5  C5  UNL     1      21.570   3.450  49.781  1.00  0.00     0.074 A 
HETATM    6  C6  UNL     1      22.855   3.990  49.707  1.00  0.00     0.017 A 
HETATM    7  C7  UNL     1      24.224   3.511  49.482  1.00  0.00     0.071 C 
HETATM    8  C8  UNL     1      25.213   3.719  50.553  1.00  0.00     0.172 C 
HETATM    9  O1  UNL     1      25.349   3.081  51.693  1.00  0.00    -0.389 OA
HETATM   10  C9  UNL     1      24.421   2.752  52.599  1.00  0.00     0.197 C 
HETATM   11  C10 UNL     1      23.666   1.485  52.238  1.00  0.00     0.295 C 
HETATM   12  N4  UNL     1      22.582   1.152  53.096  1.00  0.00     0.087 N 
HETATM   13  C11 UNL     1      21.923  -0.121  52.643  1.00  0.00     0.299 C 
HETATM   14  C12 UNL     1      21.468   0.197  51.206  1.00  0.00     0.299 C 
HETATM   15  N5  UNL     1      21.031   1.573  51.161  1.00  0.00     0.090 N 
HETATM   16  C13 UNL     1      21.152   1.994  49.745  1.00  0.00     0.329 C 
HETATM   17  H11 UNL     1      21.851   1.889  53.171  1.00  0.00     0.316 HD
HETATM   18  H16 UNL     1      20.047   1.727  51.401  1.00  0.00     0.316 HD
ENDROOT
BRANCH   1  19
HETATM   19  N1  UNL     1      23.778   6.428  49.806  1.00  0.00    -0.335 N 
HETATM   20  C2  UNL     1      24.306   6.785  48.488  1.00  0.00     0.136 A 
HETATM   21  C1  UNL     1      25.258   7.595  48.064  1.00  0.00     0.144 A 
HETATM   22  F1  UNL     1      25.680   7.862  46.833  1.00  0.00    -0.204 F 
HETATM   23  C16 UNL     1      25.893   8.295  49.162  1.00  0.00     0.038 A 
HETATM   24  C15 UNL     1      25.460   8.053  50.368  1.00  0.00     0.011 A 
HETATM   25  C14 UNL     1      24.399   7.165  50.884  1.00  0.00     0.158 A 
BRANCH  23  26
HETATM   26  C17 UNL     1      26.996   9.273  49.062  1.00  0.00     0.112 A 
HETATM   27  N6  UNL     1      27.210  10.403  49.095  1.00  0.00    -0.239 NA
HETATM   28  C18 UNL     1      28.387  11.009  48.969  1.00  0.00     0.075 A 
HETATM   29  C19 UNL     1      28.695  12.358  48.999  1.00  0.00     0.033 A 
HETATM   30  C23 UNL     1      29.495  10.182  48.776  1.00  0.00     0.035 A 
HETATM   31  C20 UNL     1      29.996  12.774  48.846  1.00  0.00     0.002 A 
HETATM   32  C21 UNL     1      31.078  11.940  48.656  1.00  0.00     0.002 A 
HETATM   33  C22 UNL     1      30.828  10.586  48.618  1.00  0.00     0.021 A 
HETATM   34  S1  UNL     1      28.705   8.499  48.792  1.00  0.00    -0.067 SA
ENDBRANCH  23  26
ENDBRANCH   1  19
TORSDOF 2
ENDMDL
MODEL 8
REMARK VINA RESULT:      -8.1      6.429     10.407
REMARK  2 active torsions:
REMARK  status: ('A' for Active; 'I' for Inactive)
REMARK    1  A    between atoms: N1_4  and  C3_5 
REMARK    2  A    between atoms: C16_23  and  C17_24 
ROOT
HETATM    1  C3  UNL     1      28.832   8.944  48.292  1.00  0.00     0.139 A 
HETATM    2  N2  UNL     1      29.760   8.788  49.250  1.00  0.00    -0.224 NA
HETATM    3  C4  UNL     1      30.816   9.597  49.315  1.00  0.00     0.235 A 
HETATM    4  N3  UNL     1      30.884  10.552  48.383  1.00  0.00    -0.244 NA
HETATM    5  C5  UNL     1      29.974  10.723  47.427  1.00  0.00     0.074 A 
HETATM    6  C6  UNL     1      28.837   9.927  47.276  1.00  0.00     0.017 A 
HETATM    7  C7  UNL     1      27.715   9.800  46.337  1.00  0.00     0.071 C 
HETATM    8  C8  UNL     1      26.354  10.009  46.857  1.00  0.00     0.172 C 
HETATM    9  O1  UNL     1      25.750  11.131  47.176  1.00  0.00    -0.389 OA
HETATM   10  C9  UNL     1      26.197  12.159  47.906  1.00  0.00     0.197 C 
HETATM   11  C10 UNL     1      27.065  13.116  47.107  1.00  0.00     0.295 C 
HETATM   12  N4  UNL     1      27.674  14.161  47.856  1.00  0.00     0.087 N 
HETATM   13  C11 UNL     1      28.496  15.043  46.958  1.00  0.00     0.299 C 
HETATM   14  C12 UNL     1      29.524  14.076  46.342  1.00  0.00     0.299 C 
HETATM   15  N5  UNL     1      29.903  13.111  47.349  1.00  0.00     0.090 N 
HETATM   16  C13 UNL     1      30.402  11.926  46.611  1.00  0.00     0.329 C 
HETATM   17  H11 UNL     1      28.280  13.833  48.637  1.00  0.00     0.316 HD
HETATM   18  H16 UNL     1      30.679  13.394  47.953  1.00  0.00     0.316 HD
ENDROOT
BRANCH   1  19
HETATM   19  N1  UNL     1      27.904   7.876  48.590  1.00  0.00    -0.335 N 
HETATM   20  C2  UNL     1      26.826   8.205  49.524  1.00  0.00     0.136 A 
HETATM   21  C1  UNL     1      25.853   7.515  50.091  1.00  0.00     0.144 A 
HETATM   22  F1  UNL     1      24.906   7.896  50.940  1.00  0.00    -0.204 F 
HETATM   23  C16 UNL     1      25.857   6.132  49.661  1.00  0.00     0.038 A 
HETATM   24  C15 UNL     1      26.772   5.764  48.806  1.00  0.00     0.011 A 
HETATM   25  C14 UNL     1      27.868   6.501  48.145  1.00  0.00     0.158 A 
BRANCH  23  26
HETATM   26  C17 UNL     1      24.921   5.073  50.091  1.00  0.00     0.112 A 
HETATM   27  N6  UNL     1      23.800   4.861  50.239  1.00  0.00    -0.239 NA
HETATM   28  C18 UNL     1      23.237   3.734  50.664  1.00  0.00     0.075 A 
HETATM   29  C19 UNL     1      21.901   3.431  50.859  1.00  0.00     0.033 A 
HETATM   30  C23 UNL     1      24.103   2.681  50.965  1.00  0.00     0.035 A 
HETATM   31  C20 UNL     1      21.532   2.187  51.311  1.00  0.00     0.002 A 
HETATM   32  C21 UNL     1      22.405   1.159  51.604  1.00  0.00     0.002 A 
HETATM   33  C22 UNL     1      23.749   1.406  51.426  1.00  0.00     0.021 A 
HETATM   34  S1  UNL     1      25.756   3.447  50.590  1.00  0.00    -0.067 SA
ENDBRANCH  23  26
ENDBRANCH   1  19
TORSDOF 2
ENDMDL
MODEL 9
REMARK VINA RESULT:      -8.1      4.260      5.801
REMARK  2 active torsions:
REMARK  status: ('A' for Active; 'I' for Inactive)
REMARK    1  A    between atoms: N1_4  and  C3_5 
REMARK    2  A    between atoms: C16_23  and  C17_24 
ROOT
HETATM    1  C3  UNL     1      23.637   4.905  50.460  1.00  0.00     0.139 A 
HETATM    2  N2  UNL     1      22.850   5.684  51.219  1.00  0.00    -0.224 NA
HETATM    3  C4  UNL     1      22.025   5.151  52.118  1.00  0.00     0.235 A 
HETATM    4  N3  UNL     1      22.036   3.818  52.209  1.00  0.00    -0.244 NA
HETATM    5  C5  UNL     1      22.808   3.029  51.466  1.00  0.00     0.074 A 
HETATM    6  C6  UNL     1      23.702   3.493  50.499  1.00  0.00     0.017 A 
HETATM    7  C7  UNL     1      24.615   2.923  49.500  1.00  0.00     0.071 C 
HETATM    8  C8  UNL     1      26.050   3.227  49.624  1.00  0.00     0.172 C 
HETATM    9  O1  UNL     1      26.931   2.742  50.469  1.00  0.00    -0.389 OA
HETATM   10  C9  UNL     1      26.839   2.583  51.794  1.00  0.00     0.197 C 
HETATM   11  C10 UNL     1      26.100   1.315  52.186  1.00  0.00     0.295 C 
HETATM   12  N4  UNL     1      25.859   1.152  53.578  1.00  0.00     0.087 N 
HETATM   13  C11 UNL     1      25.133  -0.138  53.841  1.00  0.00     0.299 C 
HETATM   14  C12 UNL     1      23.834   0.006  53.026  1.00  0.00     0.299 C 
HETATM   15  N5  UNL     1      23.402   1.383  53.095  1.00  0.00     0.090 N 
HETATM   16  C13 UNL     1      22.546   1.603  51.905  1.00  0.00     0.329 C 
HETATM   17  H11 UNL     1      25.318   1.927  54.015  1.00  0.00     0.316 HD
HETATM   18  H16 UNL     1      22.807   1.613  53.896  1.00  0.00     0.316 HD
ENDROOT
BRANCH   1  19
HETATM   19  N1  UNL     1      24.336   5.876  49.647  1.00  0.00    -0.335 N 
HETATM   20  C2  UNL     1      25.307   6.718  50.347  1.00  0.00     0.136 A 
HETATM   21  C1  UNL     1      26.069   7.737  49.994  1.00  0.00     0.144 A 
HETATM   22  F1  UNL     1      26.933   8.455  50.702  1.00  0.00    -0.204 F 
HETATM   23  C16 UNL     1      25.911   8.061  48.591  1.00  0.00     0.038 A 
HETATM   24  C15 UNL     1      25.082   7.339  47.890  1.00  0.00     0.011 A 
HETATM   25  C14 UNL     1      24.220   6.192  48.241  1.00  0.00     0.158 A 
BRANCH  23  26
HETATM   26  C17 UNL     1      26.600   9.141  47.853  1.00  0.00     0.112 A 
HETATM   27  N6  UNL     1      26.399  10.125  47.293  1.00  0.00    -0.239 NA
HETATM   28  C18 UNL     1      27.289  10.919  46.704  1.00  0.00     0.075 A 
HETATM   29  C19 UNL     1      27.098  12.107  46.020  1.00  0.00     0.033 A 
HETATM   30  C23 UNL     1      28.623  10.516  46.773  1.00  0.00     0.035 A 
HETATM   31  C20 UNL     1      28.172  12.775  45.481  1.00  0.00     0.002 A 
HETATM   32  C21 UNL     1      29.485  12.359  45.560  1.00  0.00     0.002 A 
HETATM   33  C22 UNL     1      29.732  11.182  46.232  1.00  0.00     0.021 A 
HETATM   34  S1  UNL     1      28.480   8.932  47.736  1.00  0.00    -0.067 SA
ENDBRANCH  23  26
ENDBRANCH   1  19
TORSDOF 2
ENDMDL
