MODEL 1
REMARK VINA RESULT:      -7.5      0.000      0.000
REMARK  5 active torsions:
REMARK  status: ('A' for Active; 'I' for Inactive)
REMARK    1  A    between atoms: N1_1  and  C1_2 
REMARK    2  A    between atoms: C3_6  and  N3_7 
REMARK    3  A    between atoms: C4_8  and  C5_9 
REMARK    4  A    between atoms: C5_9  and  C6_10 
REMARK    5  A    between atoms: C10_15  and  C11_16 
ROOT
HETATM    1  C6  UNL     1      23.557   0.906  52.991  1.00  0.00    -0.042 A 
HETATM    2  C7  UNL     1      22.191   0.972  52.927  1.00  0.00     0.010 A 
HETATM    3  C8  UNL     1      21.238   0.194  53.551  1.00  0.00     0.016 A 
HETATM    4  P1  UNL     1      21.933  -1.052  54.566  1.00  0.00    -0.034 P 
HETATM    5  C9  UNL     1      23.689  -0.988  54.527  1.00  0.00     0.029 A 
HETATM    6  C10 UNL     1      24.276   0.004  53.728  1.00  0.00    -0.011 A 
ENDROOT
BRANCH   1   7
HETATM    7  C5  UNL     1      24.412   1.860  52.234  1.00  0.00     0.086 C 
BRANCH   7   8
HETATM    8  C4  UNL     1      23.540   2.883  51.619  1.00  0.00     0.096 C 
HETATM    9  N3  UNL     1      23.730   4.088  52.013  1.00  0.00    -0.245 NA
BRANCH   9  10
HETATM   10  C3  UNL     1      23.010   5.204  51.555  1.00  0.00     0.181 C 
HETATM   11  C1  UNL     1      23.758   6.346  50.980  1.00  0.00     0.427 C 
HETATM   12  O1  UNL     1      22.851   7.214  50.430  1.00  0.00    -0.330 OA
HETATM   13  C2  UNL     1      21.615   6.825  50.912  1.00  0.00     0.322 C 
HETATM   14  N2  UNL     1      21.779   5.531  51.492  1.00  0.00    -0.245 NA
BRANCH  11  15
HETATM   15  N1  UNL     1      24.493   6.990  52.065  1.00  0.00     0.115 N 
HETATM   16  H1  UNL     1      23.813   7.454  52.735  1.00  0.00     0.316 HD
HETATM   17  H2  UNL     1      25.150   7.705  51.695  1.00  0.00     0.316 HD
ENDBRANCH  11  15
ENDBRANCH   9  10
ENDBRANCH   7   8
ENDBRANCH   1   7
BRANCH   6  18
HETATM   18  C11 UNL     1      25.738  -0.073  53.791  1.00  0.00     0.016 C 
HETATM   19  S1  UNL     1      26.966   0.702  54.565  1.00  0.00    -0.088 SA
HETATM   20  C12 UNL     1      28.400  -0.078  54.562  1.00  0.00     0.022 C 
HETATM   21  C13 UNL     1      28.547  -0.770  53.452  1.00  0.00     0.020 C 
HETATM   22  C14 UNL     1      27.483  -1.469  52.757  1.00  0.00     0.003 C 
HETATM   23  C15 UNL     1      26.195  -1.150  52.913  1.00  0.00     0.020 C 
ENDBRANCH   6  18
TORSDOF 5
ENDMDL
MODEL 2
REMARK VINA RESULT:      -7.3      4.271      6.707
REMARK  5 active torsions:
REMARK  status: ('A' for Active; 'I' for Inactive)
REMARK    1  A    between atoms: N1_1  and  C1_2 
REMARK    2  A    between atoms: C3_6  and  N3_7 
REMARK    3  A    between atoms: C4_8  and  C5_9 
REMARK    4  A    between atoms: C5_9  and  C6_10 
REMARK    5  A    between atoms: C10_15  and  C11_16 
ROOT
HETATM    1  C6  UNL     1      24.357   2.267  51.674  1.00  0.00    -0.042 A 
HETATM    2  C7  UNL     1      24.839   3.134  50.731  1.00  0.00     0.010 A 
HETATM    3  C8  UNL     1      24.306   3.499  49.512  1.00  0.00     0.016 A 
HETATM    4  P1  UNL     1      22.784   2.707  49.167  1.00  0.00    -0.034 P 
HETATM    5  C9  UNL     1      22.322   1.635  50.481  1.00  0.00     0.029 A 
HETATM    6  C10 UNL     1      23.189   1.559  51.581  1.00  0.00    -0.011 A 
ENDROOT
BRANCH   1   7
HETATM    7  C5  UNL     1      25.095   2.017  52.941  1.00  0.00     0.086 C 
BRANCH   7   8
HETATM    8  C4  UNL     1      26.245   1.135  52.648  1.00  0.00     0.096 C 
HETATM    9  N3  UNL     1      26.746   0.518  53.654  1.00  0.00    -0.245 NA
BRANCH   9  10
HETATM   10  C3  UNL     1      27.837  -0.363  53.591  1.00  0.00     0.181 C 
HETATM   11  C1  UNL     1      29.109   0.031  54.241  1.00  0.00     0.427 C 
HETATM   12  O1  UNL     1      29.950  -1.052  54.221  1.00  0.00    -0.330 OA
HETATM   13  C2  UNL     1      29.387  -1.951  53.334  1.00  0.00     0.322 C 
HETATM   14  N2  UNL     1      28.051  -1.514  53.083  1.00  0.00    -0.245 NA
BRANCH  11  15
HETATM   15  N1  UNL     1      29.677   1.137  53.476  1.00  0.00     0.115 N 
HETATM   16  H1  UNL     1      29.741   2.002  54.087  1.00  0.00     0.316 HD
HETATM   17  H2  UNL     1      29.096   1.348  52.641  1.00  0.00     0.316 HD
ENDBRANCH  11  15
ENDBRANCH   9  10
ENDBRANCH   7   8
ENDBRANCH   1   7
BRANCH   6  18
HETATM   18  C11 UNL     1      22.676   0.625  52.586  1.00  0.00     0.016 C 
HETATM   19  S1  UNL     1      23.141  -0.790  53.285  1.00  0.00    -0.088 SA
HETATM   20  C12 UNL     1      22.354  -1.187  54.658  1.00  0.00     0.022 C 
HETATM   21  C13 UNL     1      21.111  -0.757  54.619  1.00  0.00     0.020 C 
HETATM   22  C14 UNL     1      20.677   0.490  54.019  1.00  0.00     0.003 C 
HETATM   23  C15 UNL     1      21.395   1.124  53.087  1.00  0.00     0.020 C 
ENDBRANCH   6  18
TORSDOF 5
ENDMDL
MODEL 3
REMARK VINA RESULT:      -7.3      4.079      6.545
REMARK  5 active torsions:
REMARK  status: ('A' for Active; 'I' for Inactive)
REMARK    1  A    between atoms: N1_1  and  C1_2 
REMARK    2  A    between atoms: C3_6  and  N3_7 
REMARK    3  A    between atoms: C4_8  and  C5_9 
REMARK    4  A    between atoms: C5_9  and  C6_10 
REMARK    5  A    between atoms: C10_15  and  C11_16 
ROOT
HETATM    1  C6  UNL     1      23.191   2.331  51.198  1.00  0.00    -0.042 A 
HETATM    2  C7  UNL     1      22.330   1.289  51.419  1.00  0.00     0.010 A 
HETATM    3  C8  UNL     1      21.465   0.658  50.549  1.00  0.00     0.016 A 
HETATM    4  P1  UNL     1      21.515   1.327  48.932  1.00  0.00    -0.034 P 
HETATM    5  C9  UNL     1      22.669   2.649  48.834  1.00  0.00     0.029 A 
HETATM    6  C10 UNL     1      23.366   2.978  50.006  1.00  0.00    -0.011 A 
ENDROOT
BRANCH   1   7
HETATM    7  C5  UNL     1      24.052   2.863  52.288  1.00  0.00     0.086 C 
BRANCH   7   8
HETATM    8  C4  UNL     1      25.148   1.900  52.531  1.00  0.00     0.096 C 
HETATM    9  N3  UNL     1      25.745   2.008  53.661  1.00  0.00    -0.245 NA
BRANCH   9  10
HETATM   10  C3  UNL     1      26.808   1.194  54.086  1.00  0.00     0.181 C 
HETATM   11  C1  UNL     1      26.653  -0.277  54.012  1.00  0.00     0.427 C 
HETATM   12  O1  UNL     1      27.869  -0.847  54.288  1.00  0.00    -0.330 OA
HETATM   13  C2  UNL     1      28.647   0.163  54.823  1.00  0.00     0.322 C 
HETATM   14  N2  UNL     1      27.976   1.395  54.560  1.00  0.00    -0.245 NA
BRANCH  11  15
HETATM   15  N1  UNL     1      25.663  -0.672  55.011  1.00  0.00     0.115 N 
HETATM   16  H1  UNL     1      25.496   0.127  55.689  1.00  0.00     0.316 HD
HETATM   17  H2  UNL     1      25.982  -1.509  55.538  1.00  0.00     0.316 HD
ENDBRANCH  11  15
ENDBRANCH   9  10
ENDBRANCH   7   8
ENDBRANCH   1   7
BRANCH   6  18
HETATM   18  C11 UNL     1      24.282   4.097  49.770  1.00  0.00     0.016 C 
HETATM   19  S1  UNL     1      24.236   5.741  49.822  1.00  0.00    -0.088 SA
HETATM   20  C12 UNL     1      25.689   6.484  49.848  1.00  0.00     0.022 C 
HETATM   21  C13 UNL     1      26.575   5.792  49.163  1.00  0.00     0.020 C 
HETATM   22  C14 UNL     1      26.642   4.344  49.110  1.00  0.00     0.003 C 
HETATM   23  C15 UNL     1      25.591   3.566  49.389  1.00  0.00     0.020 C 
ENDBRANCH   6  18
TORSDOF 5
ENDMDL
MODEL 4
REMARK VINA RESULT:      -7.0      3.933      6.436
REMARK  5 active torsions:
REMARK  status: ('A' for Active; 'I' for Inactive)
REMARK    1  A    between atoms: N1_1  and  C1_2 
REMARK    2  A    between atoms: C3_6  and  N3_7 
REMARK    3  A    between atoms: C4_8  and  C5_9 
REMARK    4  A    between atoms: C5_9  and  C6_10 
REMARK    5  A    between atoms: C10_15  and  C11_16 
ROOT
HETATM    1  C6  UNL     1      22.676   0.565  52.554  1.00  0.00    -0.042 A 
HETATM    2  C7  UNL     1      22.629  -0.233  53.665  1.00  0.00     0.010 A 
HETATM    3  C8  UNL     1      21.545  -0.813  54.291  1.00  0.00     0.016 A 
HETATM    4  P1  UNL     1      20.025  -0.442  53.507  1.00  0.00    -0.034 P 
HETATM    5  C9  UNL     1      20.275   0.588  52.105  1.00  0.00     0.029 A 
HETATM    6  C10 UNL     1      21.596   0.960  51.812  1.00  0.00    -0.011 A 
ENDROOT
BRANCH   1   7
HETATM    7  C5  UNL     1      23.968   1.086  52.033  1.00  0.00     0.086 C 
BRANCH   7   8
HETATM    8  C4  UNL     1      25.038   0.726  52.988  1.00  0.00     0.096 C 
HETATM    9  N3  UNL     1      26.229   0.718  52.515  1.00  0.00    -0.245 NA
BRANCH   9  10
HETATM   10  C3  UNL     1      27.382   0.404  53.253  1.00  0.00     0.181 C 
HETATM   11  C1  UNL     1      27.752   1.267  54.398  1.00  0.00     0.427 C 
HETATM   12  O1  UNL     1      28.779   0.661  55.073  1.00  0.00    -0.330 OA
HETATM   13  C2  UNL     1      29.249  -0.333  54.234  1.00  0.00     0.322 C 
HETATM   14  N2  UNL     1      28.278  -0.504  53.202  1.00  0.00    -0.245 NA
BRANCH  11  15
HETATM   15  N1  UNL     1      28.178   2.558  53.865  1.00  0.00     0.115 N 
HETATM   16  H1  UNL     1      28.027   2.582  52.815  1.00  0.00     0.316 HD
HETATM   17  H2  UNL     1      29.182   2.731  54.071  1.00  0.00     0.316 HD
ENDBRANCH  11  15
ENDBRANCH   9  10
ENDBRANCH   7   8
ENDBRANCH   1   7
BRANCH   6  18
HETATM   18  C11 UNL     1      21.644   1.820  50.627  1.00  0.00     0.016 C 
HETATM   19  S1  UNL     1      21.753   3.427  50.291  1.00  0.00    -0.088 SA
HETATM   20  C12 UNL     1      22.173   3.797  48.757  1.00  0.00     0.022 C 
HETATM   21  C13 UNL     1      21.700   2.898  47.920  1.00  0.00     0.020 C 
HETATM   22  C14 UNL     1      21.603   1.476  48.188  1.00  0.00     0.003 C 
HETATM   23  C15 UNL     1      21.578   0.981  49.430  1.00  0.00     0.020 C 
ENDBRANCH   6  18
TORSDOF 5
ENDMDL
MODEL 5
REMARK VINA RESULT:      -6.7      2.304      3.891
REMARK  5 active torsions:
REMARK  status: ('A' for Active; 'I' for Inactive)
REMARK    1  A    between atoms: N1_1  and  C1_2 
REMARK    2  A    between atoms: C3_6  and  N3_7 
REMARK    3  A    between atoms: C4_8  and  C5_9 
REMARK    4  A    between atoms: C5_9  and  C6_10 
REMARK    5  A    between atoms: C10_15  and  C11_16 
ROOT
HETATM    1  C6  UNL     1      24.678   1.682  51.794  1.00  0.00    -0.042 A 
HETATM    2  C7  UNL     1      25.927   2.133  51.457  1.00  0.00     0.010 A 
HETATM    3  C8  UNL     1      27.130   1.972  52.112  1.00  0.00     0.016 A 
HETATM    4  P1  UNL     1      26.984   1.045  53.589  1.00  0.00    -0.034 P 
HETATM    5  C9  UNL     1      25.319   0.552  53.861  1.00  0.00     0.029 A 
HETATM    6  C10 UNL     1      24.371   0.946  52.905  1.00  0.00    -0.011 A 
ENDROOT
BRANCH   1   7
HETATM    7  C5  UNL     1      23.498   1.965  50.932  1.00  0.00     0.086 C 
BRANCH   7   8
HETATM    8  C4  UNL     1      23.510   3.400  50.578  1.00  0.00     0.096 C 
HETATM    9  N3  UNL     1      22.683   4.140  51.220  1.00  0.00    -0.245 NA
BRANCH   9  10
HETATM   10  C3  UNL     1      22.536   5.525  51.035  1.00  0.00     0.181 C 
HETATM   11  C1  UNL     1      23.750   6.373  51.014  1.00  0.00     0.427 C 
HETATM   12  O1  UNL     1      23.379   7.636  50.628  1.00  0.00    -0.330 OA
HETATM   13  C2  UNL     1      22.000   7.671  50.724  1.00  0.00     0.322 C 
HETATM   14  N2  UNL     1      21.555   6.322  50.863  1.00  0.00    -0.245 NA
BRANCH  11  15
HETATM   15  N1  UNL     1      24.305   6.392  52.364  1.00  0.00     0.115 N 
HETATM   16  H1  UNL     1      23.611   6.835  53.034  1.00  0.00     0.316 HD
HETATM   17  H2  UNL     1      25.197   6.926  52.391  1.00  0.00     0.316 HD
ENDBRANCH  11  15
ENDBRANCH   9  10
ENDBRANCH   7   8
ENDBRANCH   1   7
BRANCH   6  18
HETATM   18  C11 UNL     1      23.034   0.470  53.270  1.00  0.00     0.016 C 
HETATM   19  S1  UNL     1      21.477   0.981  53.125  1.00  0.00    -0.088 SA
HETATM   20  C12 UNL     1      20.338  -0.162  53.367  1.00  0.00     0.022 C 
HETATM   21  C13 UNL     1      20.746  -1.040  54.259  1.00  0.00     0.020 C 
HETATM   22  C14 UNL     1      22.110  -1.513  54.400  1.00  0.00     0.003 C 
HETATM   23  C15 UNL     1      23.159  -0.821  53.946  1.00  0.00     0.020 C 
ENDBRANCH   6  18
TORSDOF 5
ENDMDL
MODEL 6
REMARK VINA RESULT:      -6.7      4.134      4.971
REMARK  5 active torsions:
REMARK  status: ('A' for Active; 'I' for Inactive)
REMARK    1  A    between atoms: N1_1  and  C1_2 
REMARK    2  A    between atoms: C3_6  and  N3_7 
REMARK    3  A    between atoms: C4_8  and  C5_9 
REMARK    4  A    between atoms: C5_9  and  C6_10 
REMARK    5  A    between atoms: C10_15  and  C11_16 
ROOT
HETATM    1  C6  UNL     1      24.893   2.901  50.148  1.00  0.00    -0.042 A 
HETATM    2  C7  UNL     1      23.998   3.526  49.320  1.00  0.00     0.010 A 
HETATM    3  C8  UNL     1      22.619   3.487  49.319  1.00  0.00     0.016 A 
HETATM    4  P1  UNL     1      21.964   2.472  50.585  1.00  0.00    -0.034 P 
HETATM    5  C9  UNL     1      23.250   1.754  51.544  1.00  0.00     0.029 A 
HETATM    6  C10 UNL     1      24.569   2.073  51.188  1.00  0.00    -0.011 A 
ENDROOT
BRANCH   1   7
HETATM    7  C5  UNL     1      26.359   3.086  49.979  1.00  0.00     0.086 C 
BRANCH   7   8
HETATM    8  C4  UNL     1      26.594   4.386  49.315  1.00  0.00     0.096 C 
HETATM    9  N3  UNL     1      27.796   4.606  48.928  1.00  0.00    -0.245 NA
BRANCH   9  10
HETATM   10  C3  UNL     1      28.228   5.774  48.279  1.00  0.00     0.181 C 
HETATM   11  C1  UNL     1      29.671   5.932  47.984  1.00  0.00     0.427 C 
HETATM   12  O1  UNL     1      29.823   7.036  47.185  1.00  0.00    -0.330 OA
HETATM   13  C2  UNL     1      28.621   7.716  47.247  1.00  0.00     0.322 C 
HETATM   14  N2  UNL     1      27.667   6.830  47.834  1.00  0.00    -0.245 NA
BRANCH  11  15
HETATM   15  N1  UNL     1      30.369   6.116  49.253  1.00  0.00     0.115 N 
HETATM   16  H1  UNL     1      29.982   6.966  49.757  1.00  0.00     0.316 HD
HETATM   17  H2  UNL     1      31.389   6.245  49.100  1.00  0.00     0.316 HD
ENDBRANCH  11  15
ENDBRANCH   9  10
ENDBRANCH   7   8
ENDBRANCH   1   7
BRANCH   6  18
HETATM   18  C11 UNL     1      25.525   1.398  52.070  1.00  0.00     0.016 C 
HETATM   19  S1  UNL     1      26.494   0.069  52.026  1.00  0.00    -0.088 SA
HETATM   20  C12 UNL     1      27.665   0.016  53.161  1.00  0.00     0.022 C 
HETATM   21  C13 UNL     1      27.260   0.598  54.270  1.00  0.00     0.020 C 
HETATM   22  C14 UNL     1      26.415   1.775  54.335  1.00  0.00     0.003 C 
HETATM   23  C15 UNL     1      25.619   2.142  53.325  1.00  0.00     0.020 C 
ENDBRANCH   6  18
TORSDOF 5
ENDMDL
MODEL 7
REMARK VINA RESULT:      -6.6      3.133      4.773
REMARK  5 active torsions:
REMARK  status: ('A' for Active; 'I' for Inactive)
REMARK    1  A    between atoms: N1_1  and  C1_2 
REMARK    2  A    between atoms: C3_6  and  N3_7 
REMARK    3  A    between atoms: C4_8  and  C5_9 
REMARK    4  A    between atoms: C5_9  and  C6_10 
REMARK    5  A    between atoms: C10_15  and  C11_16 
ROOT
HETATM    1  C6  UNL     1      26.377   1.223  52.526  1.00  0.00    -0.042 A 
HETATM    2  C7  UNL     1      27.735   1.395  52.521  1.00  0.00     0.010 A 
HETATM    3  C8  UNL     1      28.682   0.977  53.432  1.00  0.00     0.016 A 
HETATM    4  P1  UNL     1      27.992   0.098  54.779  1.00  0.00    -0.034 P 
HETATM    5  C9  UNL     1      26.246  -0.025  54.621  1.00  0.00     0.029 A 
HETATM    6  C10 UNL     1      25.662   0.567  53.491  1.00  0.00    -0.011 A 
ENDROOT
BRANCH   1   7
HETATM    7  C5  UNL     1      25.527   1.755  51.427  1.00  0.00     0.086 C 
BRANCH   7   8
HETATM    8  C4  UNL     1      26.036   3.091  51.046  1.00  0.00     0.096 C 
HETATM    9  N3  UNL     1      26.385   3.226  49.820  1.00  0.00    -0.245 NA
BRANCH   9  10
HETATM   10  C3  UNL     1      26.892   4.408  49.257  1.00  0.00     0.181 C 
HETATM   11  C1  UNL     1      26.138   5.669  49.447  1.00  0.00     0.427 C 
HETATM   12  O1  UNL     1      26.913   6.702  48.989  1.00  0.00    -0.330 OA
HETATM   13  C2  UNL     1      27.932   6.116  48.260  1.00  0.00     0.322 C 
HETATM   14  N2  UNL     1      27.918   4.722  48.566  1.00  0.00    -0.245 NA
BRANCH  11  15
HETATM   15  N1  UNL     1      24.903   5.571  48.673  1.00  0.00     0.115 N 
HETATM   16  H1  UNL     1      25.074   5.903  47.679  1.00  0.00     0.316 HD
HETATM   17  H2  UNL     1      24.150   6.145  49.102  1.00  0.00     0.316 HD
ENDBRANCH  11  15
ENDBRANCH   9  10
ENDBRANCH   7   8
ENDBRANCH   1   7
BRANCH   6  18
HETATM   18  C11 UNL     1      24.208   0.388  53.502  1.00  0.00     0.016 C 
HETATM   19  S1  UNL     1      22.888   1.097  52.821  1.00  0.00    -0.088 SA
HETATM   20  C12 UNL     1      21.514   0.218  52.872  1.00  0.00     0.022 C 
HETATM   21  C13 UNL     1      21.476  -0.517  53.964  1.00  0.00     0.020 C 
HETATM   22  C14 UNL     1      22.623  -1.160  54.577  1.00  0.00     0.003 C 
HETATM   23  C15 UNL     1      23.876  -0.745  54.365  1.00  0.00     0.020 C 
ENDBRANCH   6  18
TORSDOF 5
ENDMDL
MODEL 8
REMARK VINA RESULT:      -6.4      4.093      6.333
REMARK  5 active torsions:
REMARK  status: ('A' for Active; 'I' for Inactive)
REMARK    1  A    between atoms: N1_1  and  C1_2 
REMARK    2  A    between atoms: C3_6  and  N3_7 
REMARK    3  A    between atoms: C4_8  and  C5_9 
REMARK    4  A    between atoms: C5_9  and  C6_10 
REMARK    5  A    between atoms: C10_15  and  C11_16 
ROOT
HETATM    1  C6  UNL     1      22.791   3.919  50.702  1.00  0.00    -0.042 A 
HETATM    2  C7  UNL     1      21.623   3.256  50.970  1.00  0.00     0.010 A 
HETATM    3  C8  UNL     1      20.739   2.640  50.108  1.00  0.00     0.016 A 
HETATM    4  P1  UNL     1      21.230   2.751  48.432  1.00  0.00    -0.034 P 
HETATM    5  C9  UNL     1      22.743   3.632  48.277  1.00  0.00     0.029 A 
HETATM    6  C10 UNL     1      23.331   4.107  49.459  1.00  0.00    -0.011 A 
ENDROOT
BRANCH   1   7
HETATM    7  C5  UNL     1      23.609   4.512  51.794  1.00  0.00     0.086 C 
BRANCH   7   8
HETATM    8  C4  UNL     1      23.997   3.433  52.727  1.00  0.00     0.096 C 
HETATM    9  N3  UNL     1      25.003   2.723  52.373  1.00  0.00    -0.245 NA
BRANCH   9  10
HETATM   10  C3  UNL     1      25.530   1.653  53.115  1.00  0.00     0.181 C 
HETATM   11  C1  UNL     1      26.367   1.952  54.300  1.00  0.00     0.427 C 
HETATM   12  O1  UNL     1      26.597   0.775  54.965  1.00  0.00    -0.330 OA
HETATM   13  C2  UNL     1      26.224  -0.231  54.094  1.00  0.00     0.322 C 
HETATM   14  N2  UNL     1      25.479   0.380  53.040  1.00  0.00    -0.245 NA
BRANCH  11  15
HETATM   15  N1  UNL     1      27.622   2.528  53.826  1.00  0.00     0.115 N 
HETATM   16  H1  UNL     1      27.432   3.194  53.022  1.00  0.00     0.316 HD
HETATM   17  H2  UNL     1      28.275   1.785  53.509  1.00  0.00     0.316 HD
ENDBRANCH  11  15
ENDBRANCH   9  10
ENDBRANCH   7   8
ENDBRANCH   1   7
BRANCH   6  18
HETATM   18  C11 UNL     1      24.577   4.822  49.170  1.00  0.00     0.016 C 
HETATM   19  S1  UNL     1      25.042   6.354  48.791  1.00  0.00    -0.088 SA
HETATM   20  C12 UNL     1      26.633   6.669  48.970  1.00  0.00     0.022 C 
HETATM   21  C13 UNL     1      27.349   5.595  48.710  1.00  0.00     0.020 C 
HETATM   22  C14 UNL     1      26.966   4.237  49.043  1.00  0.00     0.003 C 
HETATM   23  C15 UNL     1      25.694   3.882  49.254  1.00  0.00     0.020 C 
ENDBRANCH   6  18
TORSDOF 5
ENDMDL
MODEL 9
REMARK VINA RESULT:      -6.4      1.864      2.123
REMARK  5 active torsions:
REMARK  status: ('A' for Active; 'I' for Inactive)
REMARK    1  A    between atoms: N1_1  and  C1_2 
REMARK    2  A    between atoms: C3_6  and  N3_7 
REMARK    3  A    between atoms: C4_8  and  C5_9 
REMARK    4  A    between atoms: C5_9  and  C6_10 
REMARK    5  A    between atoms: C10_15  and  C11_16 
ROOT
HETATM    1  C6  UNL     1      23.304   2.085  52.769  1.00  0.00    -0.042 A 
HETATM    2  C7  UNL     1      21.949   2.158  52.584  1.00  0.00     0.010 A 
HETATM    3  C8  UNL     1      21.006   1.151  52.553  1.00  0.00     0.016 A 
HETATM    4  P1  UNL     1      21.698  -0.439  52.792  1.00  0.00    -0.034 P 
HETATM    5  C9  UNL     1      23.439  -0.341  53.012  1.00  0.00     0.029 A 
HETATM    6  C10 UNL     1      24.019   0.936  52.970  1.00  0.00    -0.011 A 
ENDROOT
BRANCH   1   7
HETATM    7  C5  UNL     1      24.148   3.310  52.775  1.00  0.00     0.086 C 
BRANCH   7   8
HETATM    8  C4  UNL     1      24.168   3.872  51.407  1.00  0.00     0.096 C 
HETATM    9  N3  UNL     1      24.391   5.131  51.324  1.00  0.00    -0.245 NA
BRANCH   9  10
HETATM   10  C3  UNL     1      24.451   5.857  50.123  1.00  0.00     0.181 C 
HETATM   11  C1  UNL     1      25.762   6.373  49.667  1.00  0.00     0.427 C 
HETATM   12  O1  UNL     1      25.607   6.866  48.397  1.00  0.00    -0.330 OA
HETATM   13  C2  UNL     1      24.243   6.964  48.194  1.00  0.00     0.322 C 
HETATM   14  N2  UNL     1      23.609   6.225  49.238  1.00  0.00    -0.245 NA
BRANCH  11  15
HETATM   15  N1  UNL     1      26.168   7.435  50.584  1.00  0.00     0.115 N 
HETATM   16  H1  UNL     1      26.366   7.026  51.543  1.00  0.00     0.316 HD
HETATM   17  H2  UNL     1      25.426   8.157  50.666  1.00  0.00     0.316 HD
ENDBRANCH  11  15
ENDBRANCH   9  10
ENDBRANCH   7   8
ENDBRANCH   1   7
BRANCH   6  18
HETATM   18  C11 UNL     1      25.469   0.857  53.161  1.00  0.00     0.016 C 
HETATM   19  S1  UNL     1      26.831   1.200  52.304  1.00  0.00    -0.088 SA
HETATM   20  C12 UNL     1      28.208   1.285  53.178  1.00  0.00     0.022 C 
HETATM   21  C13 UNL     1      28.164   0.445  54.191  1.00  0.00     0.020 C 
HETATM   22  C14 UNL     1      26.980   0.134  54.967  1.00  0.00     0.003 C 
HETATM   23  C15 UNL     1      25.743   0.323  54.495  1.00  0.00     0.020 C 
ENDBRANCH   6  18
TORSDOF 5
ENDMDL
