MODEL 1
REMARK VINA RESULT:      -7.6      0.000      0.000
REMARK  9 active torsions:
REMARK  status: ('A' for Active; 'I' for Inactive)
REMARK    1  A    between atoms: O1_2  and  C2_3 
REMARK    2  A    between atoms: C2_3  and  C3_4 
REMARK    3  A    between atoms: C4_5  and  C5_6 
REMARK    4  A    between atoms: C5_6  and  C6_7 
REMARK    5  A    between atoms: C8_11  and  C9_12 
REMARK    6  A    between atoms: C10_13  and  N3_14 
REMARK    7  A    between atoms: N3_14  and  C11_15 
REMARK    8  A    between atoms: C18_24  and  O3_25 
REMARK    9  A    between atoms: C20_27  and  O4_28 
ROOT
HETATM    1  C6  UNL     1      21.003   0.343  51.680  1.00  0.00     0.155 A 
HETATM    2  N1  UNL     1      19.824  -0.043  52.187  1.00  0.00    -0.135 NA
HETATM    3  N2  UNL     1      19.756  -0.662  53.381  1.00  0.00    -0.159 NA
HETATM    4  C7  UNL     1      20.920  -0.886  54.062  1.00  0.00     0.172 A 
HETATM    5  C8  UNL     1      22.140  -0.495  53.553  1.00  0.00     0.079 A 
HETATM    6  N4  UNL     1      22.132   0.117  52.355  1.00  0.00    -0.230 NA
ENDROOT
BRANCH   1   7
HETATM    7  C5  UNL     1      20.920   1.026  50.330  1.00  0.00     0.148 C 
BRANCH   7   8
HETATM    8  C4  UNL     1      21.748   2.286  50.386  1.00  0.00     0.067 A 
HETATM    9  C3  UNL     1      21.501   3.312  51.169  1.00  0.00     0.009 A 
HETATM   10  C20 UNL     1      22.471   4.460  51.032  1.00  0.00     0.213 A 
HETATM   11  C18 UNL     1      23.474   4.078  50.022  1.00  0.00     0.101 A 
HETATM   12  C17 UNL     1      23.711   3.042  49.248  1.00  0.00     0.177 A 
HETATM   13  O2  UNL     1      22.750   2.074  49.465  1.00  0.00    -0.324 OA
BRANCH   9  14
HETATM   14  C2  UNL     1      20.569   3.744  52.174  1.00  0.00     0.207 C 
BRANCH  14  15
HETATM   15  O1  UNL     1      19.264   3.370  52.190  1.00  0.00    -0.392 OA
HETATM   16  C1  UNL     1      18.458   3.796  51.174  1.00  0.00     0.201 C 
ENDBRANCH  14  15
ENDBRANCH   9  14
BRANCH  10  17
HETATM   17  O4  UNL     1      23.036   4.787  52.251  1.00  0.00    -0.379 OA
HETATM   18  C21 UNL     1      23.845   3.774  52.695  1.00  0.00     0.202 C 
ENDBRANCH  10  17
BRANCH  11  19
HETATM   19  O3  UNL     1      24.337   5.191  49.968  1.00  0.00    -0.355 OA
HETATM   20  C19 UNL     1      25.643   4.968  49.417  1.00  0.00     0.209 C 
ENDBRANCH  11  19
ENDBRANCH   7   8
ENDBRANCH   1   7
BRANCH   5  21
HETATM   21  C9  UNL     1      23.398  -0.720  54.250  1.00  0.00     0.050 C 
HETATM   22  C10 UNL     1      24.554  -0.585  53.663  1.00  0.00     0.090 C 
BRANCH  22  23
HETATM   23  N3  UNL     1      25.787  -0.811  54.366  1.00  0.00    -0.368 N 
HETATM   24  H11 UNL     1      25.607  -1.305  55.281  1.00  0.00     0.165 HD
BRANCH  23  25
HETATM   25  C11 UNL     1      27.084  -0.437  53.921  1.00  0.00     0.023 C 
HETATM   26  C12 UNL     1      27.702   0.653  54.261  1.00  0.00    -0.001 C 
HETATM   27  C13 UNL     1      28.993   0.739  54.370  1.00  0.00     0.014 C 
HETATM   28  C14 UNL     1      29.803  -0.355  53.867  1.00  0.00    -0.003 C 
HETATM   29  C15 UNL     1      29.242  -1.376  53.208  1.00  0.00    -0.021 C 
HETATM   30  C16 UNL     1      27.774  -1.393  52.987  1.00  0.00     0.085 C 
ENDBRANCH  23  25
ENDBRANCH  22  23
ENDBRANCH   5  21
TORSDOF 9
ENDMDL
MODEL 2
REMARK VINA RESULT:      -7.3      3.817      7.038
REMARK  9 active torsions:
REMARK  status: ('A' for Active; 'I' for Inactive)
REMARK    1  A    between atoms: O1_2  and  C2_3 
REMARK    2  A    between atoms: C2_3  and  C3_4 
REMARK    3  A    between atoms: C4_5  and  C5_6 
REMARK    4  A    between atoms: C5_6  and  C6_7 
REMARK    5  A    between atoms: C8_11  and  C9_12 
REMARK    6  A    between atoms: C10_13  and  N3_14 
REMARK    7  A    between atoms: N3_14  and  C11_15 
REMARK    8  A    between atoms: C18_24  and  O3_25 
REMARK    9  A    between atoms: C20_27  and  O4_28 
ROOT
HETATM    1  C6  UNL     1      23.451   3.170  51.271  1.00  0.00     0.155 A 
HETATM    2  N1  UNL     1      22.197   3.088  51.739  1.00  0.00    -0.135 NA
HETATM    3  N2  UNL     1      21.516   4.198  52.081  1.00  0.00    -0.159 NA
HETATM    4  C7  UNL     1      22.135   5.408  51.940  1.00  0.00     0.172 A 
HETATM    5  C8  UNL     1      23.423   5.507  51.459  1.00  0.00     0.079 A 
HETATM    6  N4  UNL     1      24.044   4.358  51.137  1.00  0.00    -0.230 NA
ENDROOT
BRANCH   1   7
HETATM    7  C5  UNL     1      24.088   1.839  50.928  1.00  0.00     0.148 C 
BRANCH   7   8
HETATM    8  C4  UNL     1      24.947   1.411  52.092  1.00  0.00     0.067 A 
HETATM    9  C3  UNL     1      24.609   0.500  52.979  1.00  0.00     0.009 A 
HETATM   10  C20 UNL     1      25.636   0.256  54.056  1.00  0.00     0.213 A 
HETATM   11  C18 UNL     1      26.786   1.139  53.785  1.00  0.00     0.101 A 
HETATM   12  C17 UNL     1      27.111   2.043  52.889  1.00  0.00     0.177 A 
HETATM   13  O2  UNL     1      26.085   2.174  51.973  1.00  0.00    -0.324 OA
BRANCH   9  14
HETATM   14  C2  UNL     1      23.533  -0.398  53.294  1.00  0.00     0.207 C 
BRANCH  14  15
HETATM   15  O1  UNL     1      22.382  -0.001  53.895  1.00  0.00    -0.392 OA
HETATM   16  C1  UNL     1      21.848  -0.804  54.862  1.00  0.00     0.201 C 
ENDBRANCH  14  15
ENDBRANCH   9  14
BRANCH  10  17
HETATM   17  O4  UNL     1      25.990  -1.079  54.118  1.00  0.00    -0.379 OA
HETATM   18  C21 UNL     1      26.573  -1.480  52.945  1.00  0.00     0.202 C 
ENDBRANCH  10  17
BRANCH  11  19
HETATM   19  O3  UNL     1      27.691   0.838  54.823  1.00  0.00    -0.355 OA
HETATM   20  C19 UNL     1      29.080   0.774  54.467  1.00  0.00     0.209 C 
ENDBRANCH  11  19
ENDBRANCH   7   8
ENDBRANCH   1   7
BRANCH   5  21
HETATM   21  C9  UNL     1      24.112   6.780  51.297  1.00  0.00     0.050 C 
HETATM   22  C10 UNL     1      25.193   6.900  50.577  1.00  0.00     0.090 C 
BRANCH  22  23
HETATM   23  N3  UNL     1      25.860   8.164  50.428  1.00  0.00    -0.368 N 
HETATM   24  H11 UNL     1      25.400   8.900  51.028  1.00  0.00     0.165 HD
BRANCH  23  25
HETATM   25  C11 UNL     1      26.987   8.422  49.599  1.00  0.00     0.023 C 
HETATM   26  C12 UNL     1      27.840   9.383  49.783  1.00  0.00    -0.001 C 
HETATM   27  C13 UNL     1      29.094   9.298  49.458  1.00  0.00     0.014 C 
HETATM   28  C14 UNL     1      29.522   8.175  48.643  1.00  0.00    -0.003 C 
HETATM   29  C15 UNL     1      28.629   7.311  48.146  1.00  0.00    -0.021 C 
HETATM   30  C16 UNL     1      27.183   7.499  48.429  1.00  0.00     0.085 C 
ENDBRANCH  23  25
ENDBRANCH  22  23
ENDBRANCH   5  21
TORSDOF 9
ENDMDL
MODEL 3
REMARK VINA RESULT:      -7.3      5.355      7.605
REMARK  9 active torsions:
REMARK  status: ('A' for Active; 'I' for Inactive)
REMARK    1  A    between atoms: O1_2  and  C2_3 
REMARK    2  A    between atoms: C2_3  and  C3_4 
REMARK    3  A    between atoms: C4_5  and  C5_6 
REMARK    4  A    between atoms: C5_6  and  C6_7 
REMARK    5  A    between atoms: C8_11  and  C9_12 
REMARK    6  A    between atoms: C10_13  and  N3_14 
REMARK    7  A    between atoms: N3_14  and  C11_15 
REMARK    8  A    between atoms: C18_24  and  O3_25 
REMARK    9  A    between atoms: C20_27  and  O4_28 
ROOT
HETATM    1  C6  UNL     1      26.205   4.615  49.259  1.00  0.00     0.155 A 
HETATM    2  N1  UNL     1      25.518   5.610  49.837  1.00  0.00    -0.135 NA
HETATM    3  N2  UNL     1      25.961   6.880  49.773  1.00  0.00    -0.159 NA
HETATM    4  C7  UNL     1      27.127   7.128  49.104  1.00  0.00     0.172 A 
HETATM    5  C8  UNL     1      27.843   6.114  48.505  1.00  0.00     0.079 A 
HETATM    6  N4  UNL     1      27.342   4.869  48.609  1.00  0.00    -0.230 NA
ENDROOT
BRANCH   1   7
HETATM    7  C5  UNL     1      25.584   3.242  49.415  1.00  0.00     0.148 C 
BRANCH   7   8
HETATM    8  C4  UNL     1      25.638   2.860  50.874  1.00  0.00     0.067 A 
HETATM    9  C3  UNL     1      24.614   2.898  51.698  1.00  0.00     0.009 A 
HETATM   10  C20 UNL     1      24.926   2.477  53.113  1.00  0.00     0.213 A 
HETATM   11  C18 UNL     1      26.354   2.111  53.165  1.00  0.00     0.101 A 
HETATM   12  C17 UNL     1      27.366   2.074  52.329  1.00  0.00     0.177 A 
HETATM   13  O2  UNL     1      26.948   2.491  51.080  1.00  0.00    -0.324 OA
BRANCH   9  14
HETATM   14  C2  UNL     1      23.215   3.221  51.717  1.00  0.00     0.207 C 
BRANCH  14  15
HETATM   15  O1  UNL     1      22.378   2.972  50.678  1.00  0.00    -0.392 OA
HETATM   16  C1  UNL     1      22.218   1.677  50.274  1.00  0.00     0.201 C 
ENDBRANCH  14  15
ENDBRANCH   9  14
BRANCH  10  17
HETATM   17  O4  UNL     1      24.096   1.451  53.526  1.00  0.00    -0.379 OA
HETATM   18  C21 UNL     1      24.370   0.300  52.835  1.00  0.00     0.202 C 
ENDBRANCH  10  17
BRANCH  11  19
HETATM   19  O3  UNL     1      26.551   1.724  54.506  1.00  0.00    -0.355 OA
HETATM   20  C19 UNL     1      27.398   0.587  54.730  1.00  0.00     0.209 C 
ENDBRANCH  11  19
ENDBRANCH   7   8
ENDBRANCH   1   7
BRANCH   5  21
HETATM   21  C9  UNL     1      29.088   6.342  47.786  1.00  0.00     0.050 C 
HETATM   22  C10 UNL     1      30.176   5.672  48.046  1.00  0.00     0.090 C 
BRANCH  22  23
HETATM   23  N3  UNL     1      31.397   5.910  47.327  1.00  0.00    -0.368 N 
HETATM   24  H11 UNL     1      31.422   6.897  46.954  1.00  0.00     0.165 HD
BRANCH  23  25
HETATM   25  C11 UNL     1      32.448   4.973  47.129  1.00  0.00     0.023 C 
HETATM   26  C12 UNL     1      33.714   5.252  47.186  1.00  0.00    -0.001 C 
HETATM   27  C13 UNL     1      34.615   4.407  47.585  1.00  0.00     0.014 C 
HETATM   28  C14 UNL     1      34.232   3.017  47.755  1.00  0.00    -0.003 C 
HETATM   29  C15 UNL     1      33.013   2.595  47.402  1.00  0.00    -0.021 C 
HETATM   30  C16 UNL     1      32.036   3.558  46.831  1.00  0.00     0.085 C 
ENDBRANCH  23  25
ENDBRANCH  22  23
ENDBRANCH   5  21
TORSDOF 9
ENDMDL
MODEL 4
REMARK VINA RESULT:      -7.0      3.448      5.059
REMARK  9 active torsions:
REMARK  status: ('A' for Active; 'I' for Inactive)
REMARK    1  A    between atoms: O1_2  and  C2_3 
REMARK    2  A    between atoms: C2_3  and  C3_4 
REMARK    3  A    between atoms: C4_5  and  C5_6 
REMARK    4  A    between atoms: C5_6  and  C6_7 
REMARK    5  A    between atoms: C8_11  and  C9_12 
REMARK    6  A    between atoms: C10_13  and  N3_14 
REMARK    7  A    between atoms: N3_14  and  C11_15 
REMARK    8  A    between atoms: C18_24  and  O3_25 
REMARK    9  A    between atoms: C20_27  and  O4_28 
ROOT
HETATM    1  C6  UNL     1      24.227   4.525  50.253  1.00  0.00     0.155 A 
HETATM    2  N1  UNL     1      23.597   5.180  51.238  1.00  0.00    -0.135 NA
HETATM    3  N2  UNL     1      23.509   4.649  52.472  1.00  0.00    -0.159 NA
HETATM    4  C7  UNL     1      24.078   3.427  52.694  1.00  0.00     0.172 A 
HETATM    5  C8  UNL     1      24.729   2.742  51.691  1.00  0.00     0.079 A 
HETATM    6  N4  UNL     1      24.778   3.332  50.483  1.00  0.00    -0.230 NA
ENDROOT
BRANCH   1   7
HETATM    7  C5  UNL     1      24.245   5.247  48.921  1.00  0.00     0.148 C 
BRANCH   7   8
HETATM    8  C4  UNL     1      25.529   6.033  48.826  1.00  0.00     0.067 A 
HETATM    9  C3  UNL     1      25.620   7.339  48.948  1.00  0.00     0.009 A 
HETATM   10  C20 UNL     1      27.017   7.891  48.803  1.00  0.00     0.213 A 
HETATM   11  C18 UNL     1      27.925   6.754  48.569  1.00  0.00     0.101 A 
HETATM   12  C17 UNL     1      27.818   5.449  48.453  1.00  0.00     0.177 A 
HETATM   13  O2  UNL     1      26.495   5.080  48.596  1.00  0.00    -0.324 OA
BRANCH   9  14
HETATM   14  C2  UNL     1      24.798   8.492  49.189  1.00  0.00     0.207 C 
BRANCH  14  15
HETATM   15  O1  UNL     1      23.748   8.493  50.049  1.00  0.00    -0.392 OA
HETATM   16  C1  UNL     1      22.486   8.458  49.528  1.00  0.00     0.201 C 
ENDBRANCH  14  15
ENDBRANCH   9  14
BRANCH  10  17
HETATM   17  O4  UNL     1      27.376   8.644  49.906  1.00  0.00    -0.379 OA
HETATM   18  C21 UNL     1      27.833   9.877  49.520  1.00  0.00     0.202 C 
ENDBRANCH  10  17
BRANCH  11  19
HETATM   19  O3  UNL     1      29.194   7.355  48.458  1.00  0.00    -0.355 OA
HETATM   20  C19 UNL     1      30.331   6.488  48.576  1.00  0.00     0.209 C 
ENDBRANCH  11  19
ENDBRANCH   7   8
ENDBRANCH   1   7
BRANCH   5  21
HETATM   21  C9  UNL     1      25.345   1.438  51.893  1.00  0.00     0.050 C 
HETATM   22  C10 UNL     1      25.131   0.725  52.964  1.00  0.00     0.090 C 
BRANCH  22  23
HETATM   23  N3  UNL     1      25.747  -0.560  53.148  1.00  0.00    -0.368 N 
HETATM   24  H11 UNL     1      25.066  -1.334  52.921  1.00  0.00     0.165 HD
BRANCH  23  25
HETATM   25  C11 UNL     1      27.083  -0.794  53.574  1.00  0.00     0.023 C 
HETATM   26  C12 UNL     1      27.837  -1.764  53.156  1.00  0.00    -0.001 C 
HETATM   27  C13 UNL     1      29.128  -1.673  53.052  1.00  0.00     0.014 C 
HETATM   28  C14 UNL     1      29.789  -0.524  53.646  1.00  0.00    -0.003 C 
HETATM   29  C15 UNL     1      29.100   0.360  54.377  1.00  0.00    -0.021 C 
HETATM   30  C16 UNL     1      27.642   0.168  54.585  1.00  0.00     0.085 C 
ENDBRANCH  23  25
ENDBRANCH  22  23
ENDBRANCH   5  21
TORSDOF 9
ENDMDL
MODEL 5
REMARK VINA RESULT:      -6.8      1.433      2.705
REMARK  9 active torsions:
REMARK  status: ('A' for Active; 'I' for Inactive)
REMARK    1  A    between atoms: O1_2  and  C2_3 
REMARK    2  A    between atoms: C2_3  and  C3_4 
REMARK    3  A    between atoms: C4_5  and  C5_6 
REMARK    4  A    between atoms: C5_6  and  C6_7 
REMARK    5  A    between atoms: C8_11  and  C9_12 
REMARK    6  A    between atoms: C10_13  and  N3_14 
REMARK    7  A    between atoms: N3_14  and  C11_15 
REMARK    8  A    between atoms: C18_24  and  O3_25 
REMARK    9  A    between atoms: C20_27  and  O4_28 
ROOT
HETATM    1  C6  UNL     1      20.848   0.369  51.304  1.00  0.00     0.155 A 
HETATM    2  N1  UNL     1      19.630   0.247  51.849  1.00  0.00    -0.135 NA
HETATM    3  N2  UNL     1      19.481  -0.186  53.115  1.00  0.00    -0.159 NA
HETATM    4  C7  UNL     1      20.604  -0.499  53.830  1.00  0.00     0.172 A 
HETATM    5  C8  UNL     1      21.863  -0.377  53.282  1.00  0.00     0.079 A 
HETATM    6  N4  UNL     1      21.937   0.061  52.012  1.00  0.00    -0.230 NA
ENDROOT
BRANCH   1   7
HETATM    7  C5  UNL     1      20.857   0.868  49.874  1.00  0.00     0.148 C 
BRANCH   7   8
HETATM    8  C4  UNL     1      21.149   2.348  49.890  1.00  0.00     0.067 A 
HETATM    9  C3  UNL     1      22.353   2.874  49.949  1.00  0.00     0.009 A 
HETATM   10  C20 UNL     1      22.383   4.383  49.963  1.00  0.00     0.213 A 
HETATM   11  C18 UNL     1      20.989   4.857  49.887  1.00  0.00     0.101 A 
HETATM   12  C17 UNL     1      19.793   4.317  49.823  1.00  0.00     0.177 A 
HETATM   13  O2  UNL     1      19.908   2.940  49.828  1.00  0.00    -0.324 OA
BRANCH   9  14
HETATM   14  C2  UNL     1      23.734   2.485  50.008  1.00  0.00     0.207 C 
BRANCH  14  15
HETATM   15  O1  UNL     1      24.502   2.626  51.119  1.00  0.00    -0.392 OA
HETATM   16  C1  UNL     1      25.795   3.037  50.962  1.00  0.00     0.201 C 
ENDBRANCH  14  15
ENDBRANCH   9  14
BRANCH  10  17
HETATM   17  O4  UNL     1      23.173   4.878  48.942  1.00  0.00    -0.379 OA
HETATM   18  C21 UNL     1      22.586   4.653  47.724  1.00  0.00     0.202 C 
ENDBRANCH  10  17
BRANCH  11  19
HETATM   19  O3  UNL     1      21.112   6.261  49.893  1.00  0.00    -0.355 OA
HETATM   20  C19 UNL     1      21.680   6.853  51.071  1.00  0.00     0.209 C 
ENDBRANCH  11  19
ENDBRANCH   7   8
ENDBRANCH   1   7
BRANCH   5  21
HETATM   21  C9  UNL     1      23.079  -0.702  54.015  1.00  0.00     0.050 C 
HETATM   22  C10 UNL     1      24.234  -0.176  53.715  1.00  0.00     0.090 C 
BRANCH  22  23
HETATM   23  N3  UNL     1      25.425  -0.507  54.448  1.00  0.00    -0.368 N 
HETATM   24  H11 UNL     1      25.180  -0.929  55.384  1.00  0.00     0.165 HD
BRANCH  23  25
HETATM   25  C11 UNL     1      26.762  -0.310  54.005  1.00  0.00     0.023 C 
HETATM   26  C12 UNL     1      27.578   0.581  54.479  1.00  0.00    -0.001 C 
HETATM   27  C13 UNL     1      28.864   0.413  54.539  1.00  0.00     0.014 C 
HETATM   28  C14 UNL     1      29.446  -0.717  53.838  1.00  0.00    -0.003 C 
HETATM   29  C15 UNL     1      28.693  -1.501  53.058  1.00  0.00    -0.021 C 
HETATM   30  C16 UNL     1      27.243  -1.216  52.906  1.00  0.00     0.085 C 
ENDBRANCH  23  25
ENDBRANCH  22  23
ENDBRANCH   5  21
TORSDOF 9
ENDMDL
MODEL 6
REMARK VINA RESULT:      -6.8      4.705      7.634
REMARK  9 active torsions:
REMARK  status: ('A' for Active; 'I' for Inactive)
REMARK    1  A    between atoms: O1_2  and  C2_3 
REMARK    2  A    between atoms: C2_3  and  C3_4 
REMARK    3  A    between atoms: C4_5  and  C5_6 
REMARK    4  A    between atoms: C5_6  and  C6_7 
REMARK    5  A    between atoms: C8_11  and  C9_12 
REMARK    6  A    between atoms: C10_13  and  N3_14 
REMARK    7  A    between atoms: N3_14  and  C11_15 
REMARK    8  A    between atoms: C18_24  and  O3_25 
REMARK    9  A    between atoms: C20_27  and  O4_28 
ROOT
HETATM    1  C6  UNL     1      24.922   4.306  50.386  1.00  0.00     0.155 A 
HETATM    2  N1  UNL     1      24.083   4.985  51.181  1.00  0.00    -0.135 NA
HETATM    3  N2  UNL     1      24.146   6.327  51.262  1.00  0.00    -0.159 NA
HETATM    4  C7  UNL     1      25.087   6.979  50.515  1.00  0.00     0.172 A 
HETATM    5  C8  UNL     1      25.957   6.294  49.694  1.00  0.00     0.079 A 
HETATM    6  N4  UNL     1      25.837   4.954  49.662  1.00  0.00    -0.230 NA
ENDROOT
BRANCH   1   7
HETATM    7  C5  UNL     1      24.731   2.803  50.399  1.00  0.00     0.148 C 
BRANCH   7   8
HETATM    8  C4  UNL     1      25.354   2.257  51.660  1.00  0.00     0.067 A 
HETATM    9  C3  UNL     1      24.692   1.648  52.620  1.00  0.00     0.009 A 
HETATM   10  C20 UNL     1      25.540   1.201  53.785  1.00  0.00     0.213 A 
HETATM   11  C18 UNL     1      26.935   1.580  53.494  1.00  0.00     0.101 A 
HETATM   12  C17 UNL     1      27.582   2.186  52.525  1.00  0.00     0.177 A 
HETATM   13  O2  UNL     1      26.692   2.549  51.532  1.00  0.00    -0.324 OA
BRANCH   9  14
HETATM   14  C2  UNL     1      23.360   1.235  52.962  1.00  0.00     0.207 C 
BRANCH  14  15
HETATM   15  O1  UNL     1      22.528   0.604  52.093  1.00  0.00    -0.392 OA
HETATM   16  C1  UNL     1      21.503  -0.138  52.605  1.00  0.00     0.201 C 
ENDBRANCH  14  15
ENDBRANCH   9  14
BRANCH  10  17
HETATM   17  O4  UNL     1      25.391  -0.153  54.024  1.00  0.00    -0.379 OA
HETATM   18  C21 UNL     1      25.917  -0.885  52.992  1.00  0.00     0.202 C 
ENDBRANCH  10  17
BRANCH  11  19
HETATM   19  O3  UNL     1      27.649   1.119  54.618  1.00  0.00    -0.355 OA
HETATM   20  C19 UNL     1      29.044   0.841  54.426  1.00  0.00     0.209 C 
ENDBRANCH  11  19
ENDBRANCH   7   8
ENDBRANCH   1   7
BRANCH   5  21
HETATM   21  C9  UNL     1      26.971   6.956  48.886  1.00  0.00     0.050 C 
HETATM   22  C10 UNL     1      27.400   8.158  49.155  1.00  0.00     0.090 C 
BRANCH  22  23
HETATM   23  N3  UNL     1      28.401   8.798  48.348  1.00  0.00    -0.368 N 
HETATM   24  H11 UNL     1      27.975   9.573  47.772  1.00  0.00     0.165 HD
BRANCH  23  25
HETATM   25  C11 UNL     1      29.782   8.463  48.305  1.00  0.00     0.023 C 
HETATM   26  C12 UNL     1      30.657   8.797  49.204  1.00  0.00    -0.001 C 
HETATM   27  C13 UNL     1      31.692   8.071  49.501  1.00  0.00     0.014 C 
HETATM   28  C14 UNL     1      32.020   6.952  48.636  1.00  0.00    -0.003 C 
HETATM   29  C15 UNL     1      31.343   6.740  47.502  1.00  0.00    -0.021 C 
HETATM   30  C16 UNL     1      30.240   7.659  47.120  1.00  0.00     0.085 C 
ENDBRANCH  23  25
ENDBRANCH  22  23
ENDBRANCH   5  21
TORSDOF 9
ENDMDL
MODEL 7
REMARK VINA RESULT:      -6.8      2.408      5.908
REMARK  9 active torsions:
REMARK  status: ('A' for Active; 'I' for Inactive)
REMARK    1  A    between atoms: O1_2  and  C2_3 
REMARK    2  A    between atoms: C2_3  and  C3_4 
REMARK    3  A    between atoms: C4_5  and  C5_6 
REMARK    4  A    between atoms: C5_6  and  C6_7 
REMARK    5  A    between atoms: C8_11  and  C9_12 
REMARK    6  A    between atoms: C10_13  and  N3_14 
REMARK    7  A    between atoms: N3_14  and  C11_15 
REMARK    8  A    between atoms: C18_24  and  O3_25 
REMARK    9  A    between atoms: C20_27  and  O4_28 
ROOT
HETATM    1  C6  UNL     1      25.910   3.016  50.769  1.00  0.00     0.155 A 
HETATM    2  N1  UNL     1      27.168   2.858  51.206  1.00  0.00    -0.135 NA
HETATM    3  N2  UNL     1      27.430   2.103  52.290  1.00  0.00    -0.159 NA
HETATM    4  C7  UNL     1      26.383   1.503  52.932  1.00  0.00     0.172 A 
HETATM    5  C8  UNL     1      25.086   1.657  52.493  1.00  0.00     0.079 A 
HETATM    6  N4  UNL     1      24.897   2.425  51.405  1.00  0.00    -0.230 NA
ENDROOT
BRANCH   1   7
HETATM    7  C5  UNL     1      25.771   3.892  49.541  1.00  0.00     0.148 C 
BRANCH   7   8
HETATM    8  C4  UNL     1      24.579   4.796  49.736  1.00  0.00     0.067 A 
HETATM    9  C3  UNL     1      23.418   4.647  49.138  1.00  0.00     0.009 A 
HETATM   10  C20 UNL     1      22.386   5.689  49.492  1.00  0.00     0.213 A 
HETATM   11  C18 UNL     1      22.999   6.611  50.465  1.00  0.00     0.101 A 
HETATM   12  C17 UNL     1      24.163   6.744  51.059  1.00  0.00     0.177 A 
HETATM   13  O2  UNL     1      25.013   5.738  50.641  1.00  0.00    -0.324 OA
BRANCH   9  14
HETATM   14  C2  UNL     1      22.752   3.779  48.206  1.00  0.00     0.207 C 
BRANCH  14  15
HETATM   15  O1  UNL     1      22.874   2.427  48.227  1.00  0.00    -0.392 OA
HETATM   16  C1  UNL     1      22.220   1.735  49.206  1.00  0.00     0.201 C 
ENDBRANCH  14  15
ENDBRANCH   9  14
BRANCH  10  17
HETATM   17  O4  UNL     1      21.226   5.105  49.965  1.00  0.00    -0.379 OA
HETATM   18  C21 UNL     1      21.401   4.652  51.246  1.00  0.00     0.202 C 
ENDBRANCH  10  17
BRANCH  11  19
HETATM   19  O3  UNL     1      21.972   7.534  50.745  1.00  0.00    -0.355 OA
HETATM   20  C19 UNL     1      21.661   8.485  49.716  1.00  0.00     0.209 C 
ENDBRANCH  11  19
ENDBRANCH   7   8
ENDBRANCH   1   7
BRANCH   5  21
HETATM   21  C9  UNL     1      23.947   1.033  53.154  1.00  0.00     0.050 C 
HETATM   22  C10 UNL     1      23.206   0.137  52.565  1.00  0.00     0.090 C 
BRANCH  22  23
HETATM   23  N3  UNL     1      22.086  -0.469  53.231  1.00  0.00    -0.368 N 
HETATM   24  H11 UNL     1      22.414  -1.182  53.937  1.00  0.00     0.165 HD
BRANCH  23  25
HETATM   25  C11 UNL     1      20.715  -0.172  53.000  1.00  0.00     0.023 C 
HETATM   26  C12 UNL     1      20.276   0.690  52.135  1.00  0.00    -0.001 C 
HETATM   27  C13 UNL     1      19.144   0.566  51.512  1.00  0.00     0.014 C 
HETATM   28  C14 UNL     1      18.215  -0.455  51.964  1.00  0.00    -0.003 C 
HETATM   29  C15 UNL     1      18.469  -1.173  53.063  1.00  0.00    -0.021 C 
HETATM   30  C16 UNL     1      19.716  -0.928  53.832  1.00  0.00     0.085 C 
ENDBRANCH  23  25
ENDBRANCH  22  23
ENDBRANCH   5  21
TORSDOF 9
ENDMDL
MODEL 8
REMARK VINA RESULT:      -6.7      3.679      6.864
REMARK  9 active torsions:
REMARK  status: ('A' for Active; 'I' for Inactive)
REMARK    1  A    between atoms: O1_2  and  C2_3 
REMARK    2  A    between atoms: C2_3  and  C3_4 
REMARK    3  A    between atoms: C4_5  and  C5_6 
REMARK    4  A    between atoms: C5_6  and  C6_7 
REMARK    5  A    between atoms: C8_11  and  C9_12 
REMARK    6  A    between atoms: C10_13  and  N3_14 
REMARK    7  A    between atoms: N3_14  and  C11_15 
REMARK    8  A    between atoms: C18_24  and  O3_25 
REMARK    9  A    between atoms: C20_27  and  O4_28 
ROOT
HETATM    1  C6  UNL     1      22.709   3.543  50.513  1.00  0.00     0.155 A 
HETATM    2  N1  UNL     1      21.598   4.041  51.072  1.00  0.00    -0.135 NA
HETATM    3  N2  UNL     1      21.516   5.344  51.401  1.00  0.00    -0.159 NA
HETATM    4  C7  UNL     1      22.595   6.145  51.151  1.00  0.00     0.172 A 
HETATM    5  C8  UNL     1      23.744   5.646  50.577  1.00  0.00     0.079 A 
HETATM    6  N4  UNL     1      23.756   4.335  50.274  1.00  0.00    -0.230 NA
ENDROOT
BRANCH   1   7
HETATM    7  C5  UNL     1      22.653   2.062  50.199  1.00  0.00     0.148 C 
BRANCH   7   8
HETATM    8  C4  UNL     1      23.096   1.301  51.424  1.00  0.00     0.067 A 
HETATM    9  C3  UNL     1      22.284   0.732  52.288  1.00  0.00     0.009 A 
HETATM   10  C20 UNL     1      22.970   0.037  53.438  1.00  0.00     0.213 A 
HETATM   11  C18 UNL     1      24.424   0.189  53.247  1.00  0.00     0.101 A 
HETATM   12  C17 UNL     1      25.223   0.758  52.372  1.00  0.00     0.177 A 
HETATM   13  O2  UNL     1      24.470   1.362  51.384  1.00  0.00    -0.324 OA
BRANCH   9  14
HETATM   14  C2  UNL     1      20.882   0.530  52.529  1.00  0.00     0.207 C 
BRANCH  14  15
HETATM   15  O1  UNL     1      20.012   0.117  51.571  1.00  0.00    -0.392 OA
HETATM   16  C1  UNL     1      19.121   1.024  51.074  1.00  0.00     0.201 C 
ENDBRANCH  14  15
ENDBRANCH   9  14
BRANCH  10  17
HETATM   17  O4  UNL     1      22.578  -1.286  53.531  1.00  0.00    -0.379 OA
HETATM   18  C21 UNL     1      22.064  -1.550  54.773  1.00  0.00     0.202 C 
ENDBRANCH  10  17
BRANCH  11  19
HETATM   19  O3  UNL     1      24.980  -0.493  54.348  1.00  0.00    -0.355 OA
HETATM   20  C19 UNL     1      26.197   0.043  54.890  1.00  0.00     0.209 C 
ENDBRANCH  11  19
ENDBRANCH   7   8
ENDBRANCH   1   7
BRANCH   5  21
HETATM   21  C9  UNL     1      24.912   6.471  50.298  1.00  0.00     0.050 C 
HETATM   22  C10 UNL     1      25.987   5.990  49.738  1.00  0.00     0.090 C 
BRANCH  22  23
HETATM   23  N3  UNL     1      27.130   6.818  49.470  1.00  0.00    -0.368 N 
HETATM   24  H11 UNL     1      27.466   7.285  50.355  1.00  0.00     0.165 HD
BRANCH  23  25
HETATM   25  C11 UNL     1      27.750   7.004  48.204  1.00  0.00     0.023 C 
HETATM   26  C12 UNL     1      27.264   7.719  47.236  1.00  0.00    -0.001 C 
HETATM   27  C13 UNL     1      28.001   8.360  46.380  1.00  0.00     0.014 C 
HETATM   28  C14 UNL     1      29.426   8.085  46.353  1.00  0.00    -0.003 C 
HETATM   29  C15 UNL     1      29.951   7.116  47.112  1.00  0.00    -0.021 C 
HETATM   30  C16 UNL     1      29.068   6.311  47.995  1.00  0.00     0.085 C 
ENDBRANCH  23  25
ENDBRANCH  22  23
ENDBRANCH   5  21
TORSDOF 9
ENDMDL
MODEL 9
REMARK VINA RESULT:      -6.6      2.536      4.938
REMARK  9 active torsions:
REMARK  status: ('A' for Active; 'I' for Inactive)
REMARK    1  A    between atoms: O1_2  and  C2_3 
REMARK    2  A    between atoms: C2_3  and  C3_4 
REMARK    3  A    between atoms: C4_5  and  C5_6 
REMARK    4  A    between atoms: C5_6  and  C6_7 
REMARK    5  A    between atoms: C8_11  and  C9_12 
REMARK    6  A    between atoms: C10_13  and  N3_14 
REMARK    7  A    between atoms: N3_14  and  C11_15 
REMARK    8  A    between atoms: C18_24  and  O3_25 
REMARK    9  A    between atoms: C20_27  and  O4_28 
ROOT
HETATM    1  C6  UNL     1      22.549   0.540  52.252  1.00  0.00     0.155 A 
HETATM    2  N1  UNL     1      22.858  -0.402  53.154  1.00  0.00    -0.135 NA
HETATM    3  N2  UNL     1      24.071  -0.425  53.739  1.00  0.00    -0.159 NA
HETATM    4  C7  UNL     1      24.978   0.536  53.389  1.00  0.00     0.172 A 
HETATM    5  C8  UNL     1      24.674   1.511  52.463  1.00  0.00     0.079 A 
HETATM    6  N4  UNL     1      23.444   1.472  51.918  1.00  0.00    -0.230 NA
ENDROOT
BRANCH   1   7
HETATM    7  C5  UNL     1      21.150   0.437  51.681  1.00  0.00     0.148 C 
BRANCH   7   8
HETATM    8  C4  UNL     1      21.013   1.454  50.576  1.00  0.00     0.067 A 
HETATM    9  C3  UNL     1      20.546   2.674  50.732  1.00  0.00     0.009 A 
HETATM   10  C20 UNL     1      20.500   3.499  49.469  1.00  0.00     0.213 A 
HETATM   11  C18 UNL     1      21.029   2.667  48.373  1.00  0.00     0.101 A 
HETATM   12  C17 UNL     1      21.498   1.448  48.234  1.00  0.00     0.177 A 
HETATM   13  O2  UNL     1      21.477   0.803  49.456  1.00  0.00    -0.324 OA
BRANCH   9  14
HETATM   14  C2  UNL     1      20.035   3.546  51.753  1.00  0.00     0.207 C 
BRANCH  14  15
HETATM   15  O1  UNL     1      18.784   3.437  52.268  1.00  0.00    -0.392 OA
HETATM   16  C1  UNL     1      17.794   2.950  51.462  1.00  0.00     0.201 C 
ENDBRANCH  14  15
ENDBRANCH   9  14
BRANCH  10  17
HETATM   17  O4  UNL     1      21.189   4.688  49.621  1.00  0.00    -0.379 OA
HETATM   18  C21 UNL     1      20.359   5.757  49.412  1.00  0.00     0.202 C 
ENDBRANCH  10  17
BRANCH  11  19
HETATM   19  O3  UNL     1      20.960   3.513  47.247  1.00  0.00    -0.355 OA
HETATM   20  C19 UNL     1      19.737   3.487  46.497  1.00  0.00     0.209 C 
ENDBRANCH  11  19
ENDBRANCH   7   8
ENDBRANCH   1   7
BRANCH   5  21
HETATM   21  C9  UNL     1      25.616   2.547  52.066  1.00  0.00     0.050 C 
HETATM   22  C10 UNL     1      25.996   2.707  50.829  1.00  0.00     0.090 C 
BRANCH  22  23
HETATM   23  N3  UNL     1      26.927   3.735  50.455  1.00  0.00    -0.368 N 
HETATM   24  H11 UNL     1      27.769   3.723  51.091  1.00  0.00     0.165 HD
BRANCH  23  25
HETATM   25  C11 UNL     1      26.772   4.656  49.382  1.00  0.00     0.023 C 
HETATM   26  C12 UNL     1      25.659   5.243  49.063  1.00  0.00    -0.001 C 
HETATM   27  C13 UNL     1      25.601   6.432  48.544  1.00  0.00     0.014 C 
HETATM   28  C14 UNL     1      26.834   7.045  48.083  1.00  0.00    -0.003 C 
HETATM   29  C15 UNL     1      27.983   6.360  48.088  1.00  0.00    -0.021 C 
HETATM   30  C16 UNL     1      28.002   4.956  48.573  1.00  0.00     0.085 C 
ENDBRANCH  23  25
ENDBRANCH  22  23
ENDBRANCH   5  21
TORSDOF 9
ENDMDL
