MODEL 1
REMARK VINA RESULT:      -9.5      0.000      0.000
REMARK  7 active torsions:
REMARK  status: ('A' for Active; 'I' for Inactive)
REMARK    1  A    between atoms: C2_2  and  N1_3 
REMARK    2  A    between atoms: N1_3  and  C3_4 
REMARK    3  A    between atoms: C3_4  and  C4_5 
REMARK    4  A    between atoms: C7_8  and  N2_9 
REMARK    5  A    between atoms: N2_9  and  C8_10 
REMARK    6  A    between atoms: C17_23  and  O1_24 
REMARK    7  A    between atoms: N5_29  and  C22_30 
ROOT
HETATM    1  C4  UNL     1      25.087   3.032  50.837  1.00  0.00     0.003 C 
HETATM    2  C5  UNL     1      23.973   2.589  51.483  1.00  0.00     0.015 C 
HETATM    3  C6  UNL     1      22.671   2.346  51.096  1.00  0.00     0.051 C 
HETATM    4  C7  UNL     1      21.519   3.008  51.469  1.00  0.00     0.129 C 
HETATM    5  N3  UNL     1      21.743   4.211  52.027  1.00  0.00    -0.225 NA
HETATM    6  C14 UNL     1      22.184   5.251  51.282  1.00  0.00     0.234 C 
HETATM    7  N4  UNL     1      22.765   5.899  50.256  1.00  0.00    -0.254 NA
HETATM    8  C15 UNL     1      23.285   5.336  49.177  1.00  0.00     0.120 C 
HETATM    9  C16 UNL     1      24.595   4.966  48.997  1.00  0.00     0.056 C 
HETATM   10  C17 UNL     1      24.914   4.113  50.004  1.00  0.00     0.075 C 
ENDROOT
BRANCH   1  11
HETATM   11  C3  UNL     1      26.416   2.392  51.015  1.00  0.00     0.314 C 
BRANCH  11  12
HETATM   12  N1  UNL     1      26.750   2.464  52.408  1.00  0.00     0.116 N 
HETATM   13  H4  UNL     1      26.088   3.104  52.872  1.00  0.00     0.319 HD
BRANCH  12  14
HETATM   14  C2  UNL     1      26.903   1.208  53.072  1.00  0.00     0.230 C 
HETATM   15  C1  UNL     1      25.822   1.126  54.129  1.00  0.00     0.074 C 
HETATM   16  C18 UNL     1      26.760   0.049  52.124  1.00  0.00     0.064 C 
HETATM   17  C19 UNL     1      27.292  -1.240  52.705  1.00  0.00     0.006 C 
HETATM   18  C20 UNL     1      28.635  -1.095  53.332  1.00  0.00     0.020 C 
HETATM   19  C21 UNL     1      28.606   0.002  54.382  1.00  0.00     0.128 C 
HETATM   20  N5  UNL     1      28.183   1.210  53.745  1.00  0.00    -0.324 N 
BRANCH  20  21
HETATM   21  C22 UNL     1      29.049   2.334  53.817  1.00  0.00     0.352 C 
HETATM   22  O2  UNL     1      29.633   2.385  54.942  1.00  0.00    -0.283 OA
ENDBRANCH  20  21
ENDBRANCH  12  14
ENDBRANCH  11  12
ENDBRANCH   1  11
BRANCH  10  23
HETATM   23  O1  UNL     1      25.561   5.026  50.818  1.00  0.00    -0.360 OA
HETATM   24  H16 UNL     1      25.357   5.094  51.800  1.00  0.00     0.217 HD
ENDBRANCH  10  23
BRANCH   4  25
HETATM   25  N2  UNL     1      20.487   2.102  51.096  1.00  0.00    -0.341 N 
HETATM   26  H9  UNL     1      20.178   2.362  50.129  1.00  0.00     0.167 HD
BRANCH  25  27
HETATM   27  C8  UNL     1      19.898   1.013  51.806  1.00  0.00     0.035 A 
HETATM   28  C9  UNL     1      18.586   0.692  51.517  1.00  0.00     0.032 A 
HETATM   29  C10 UNL     1      18.058  -0.373  52.230  1.00  0.00     0.046 A 
HETATM   30  C11 UNL     1      18.806  -1.059  53.165  1.00  0.00     0.138 A 
HETATM   31  F1  UNL     1      18.226  -2.095  53.829  1.00  0.00    -0.204 F 
HETATM   32  C12 UNL     1      20.123  -0.704  53.426  1.00  0.00     0.074 A 
HETATM   33 CL1  UNL     1      21.073  -1.581  54.620  1.00  0.00    -0.081 Cl
HETATM   34  C13 UNL     1      20.683   0.351  52.736  1.00  0.00     0.056 A 
ENDBRANCH  25  27
ENDBRANCH   4  25
TORSDOF 7
ENDMDL
MODEL 2
REMARK VINA RESULT:      -9.2      1.245      1.520
REMARK  7 active torsions:
REMARK  status: ('A' for Active; 'I' for Inactive)
REMARK    1  A    between atoms: C2_2  and  N1_3 
REMARK    2  A    between atoms: N1_3  and  C3_4 
REMARK    3  A    between atoms: C3_4  and  C4_5 
REMARK    4  A    between atoms: C7_8  and  N2_9 
REMARK    5  A    between atoms: N2_9  and  C8_10 
REMARK    6  A    between atoms: C17_23  and  O1_24 
REMARK    7  A    between atoms: N5_29  and  C22_30 
ROOT
HETATM    1  C4  UNL     1      25.041   2.408  51.085  1.00  0.00     0.003 C 
HETATM    2  C5  UNL     1      23.934   1.904  51.697  1.00  0.00     0.015 C 
HETATM    3  C6  UNL     1      22.650   1.622  51.278  1.00  0.00     0.051 C 
HETATM    4  C7  UNL     1      21.467   2.227  51.646  1.00  0.00     0.129 C 
HETATM    5  N3  UNL     1      21.632   3.423  52.240  1.00  0.00    -0.225 NA
HETATM    6  C14 UNL     1      22.046   4.499  51.531  1.00  0.00     0.234 C 
HETATM    7  N4  UNL     1      22.619   5.197  50.535  1.00  0.00    -0.254 NA
HETATM    8  C15 UNL     1      23.181   4.684  49.451  1.00  0.00     0.120 C 
HETATM    9  C16 UNL     1      24.507   4.370  49.288  1.00  0.00     0.056 C 
HETATM   10  C17 UNL     1      24.841   3.504  50.277  1.00  0.00     0.075 C 
ENDROOT
BRANCH   1  11
HETATM   11  C3  UNL     1      26.392   1.816  51.272  1.00  0.00     0.314 C 
BRANCH  11  12
HETATM   12  N1  UNL     1      26.682   1.831  52.677  1.00  0.00     0.116 N 
HETATM   13  H4  UNL     1      25.920   2.324  53.164  1.00  0.00     0.319 HD
BRANCH  12  14
HETATM   14  C2  UNL     1      27.014   0.566  53.251  1.00  0.00     0.230 C 
HETATM   15  C1  UNL     1      26.143   0.389  54.477  1.00  0.00     0.074 C 
HETATM   16  C18 UNL     1      26.768  -0.570  52.297  1.00  0.00     0.064 C 
HETATM   17  C19 UNL     1      27.460  -1.842  52.723  1.00  0.00     0.006 C 
HETATM   18  C20 UNL     1      28.884  -1.639  53.112  1.00  0.00     0.020 C 
HETATM   19  C21 UNL     1      28.983  -0.578  54.195  1.00  0.00     0.128 C 
HETATM   20  N5  UNL     1      28.391   0.622  53.691  1.00  0.00    -0.324 N 
BRANCH  20  21
HETATM   21  C22 UNL     1      29.198   1.792  53.656  1.00  0.00     0.352 C 
HETATM   22  O2  UNL     1      29.051   2.475  54.714  1.00  0.00    -0.283 OA
ENDBRANCH  20  21
ENDBRANCH  12  14
ENDBRANCH  11  12
ENDBRANCH   1  11
BRANCH  10  23
HETATM   23  O1  UNL     1      25.437   4.419  51.127  1.00  0.00    -0.360 OA
HETATM   24  H16 UNL     1      24.937   4.822  51.901  1.00  0.00     0.217 HD
ENDBRANCH  10  23
BRANCH   4  25
HETATM   25  N2  UNL     1      20.478   1.292  51.229  1.00  0.00    -0.341 N 
HETATM   26  H9  UNL     1      20.345   1.419  50.197  1.00  0.00     0.167 HD
BRANCH  25  27
HETATM   27  C8  UNL     1      19.739   0.321  51.969  1.00  0.00     0.035 A 
HETATM   28  C9  UNL     1      20.355  -0.261  53.059  1.00  0.00     0.032 A 
HETATM   29  C10 UNL     1      19.599  -1.197  53.747  1.00  0.00     0.046 A 
HETATM   30  C11 UNL     1      18.314  -1.515  53.357  1.00  0.00     0.138 A 
HETATM   31  F1  UNL     1      17.626  -2.442  54.077  1.00  0.00    -0.204 F 
HETATM   32  C12 UNL     1      17.730  -0.906  52.254  1.00  0.00     0.074 A 
HETATM   33 CL1  UNL     1      16.092  -1.316  51.760  1.00  0.00    -0.081 Cl
HETATM   34  C13 UNL     1      18.453   0.030  51.545  1.00  0.00     0.056 A 
ENDBRANCH  25  27
ENDBRANCH   4  25
TORSDOF 7
ENDMDL
MODEL 3
REMARK VINA RESULT:      -9.2      3.688      5.913
REMARK  7 active torsions:
REMARK  status: ('A' for Active; 'I' for Inactive)
REMARK    1  A    between atoms: C2_2  and  N1_3 
REMARK    2  A    between atoms: N1_3  and  C3_4 
REMARK    3  A    between atoms: C3_4  and  C4_5 
REMARK    4  A    between atoms: C7_8  and  N2_9 
REMARK    5  A    between atoms: N2_9  and  C8_10 
REMARK    6  A    between atoms: C17_23  and  O1_24 
REMARK    7  A    between atoms: N5_29  and  C22_30 
ROOT
HETATM    1  C4  UNL     1      23.694   0.041  53.194  1.00  0.00     0.003 C 
HETATM    2  C5  UNL     1      23.769   0.992  52.222  1.00  0.00     0.015 C 
HETATM    3  C6  UNL     1      23.249   2.262  52.080  1.00  0.00     0.051 C 
HETATM    4  C7  UNL     1      22.302   2.714  51.184  1.00  0.00     0.129 C 
HETATM    5  N3  UNL     1      21.595   1.730  50.601  1.00  0.00    -0.225 NA
HETATM    6  C14 UNL     1      20.689   1.014  51.307  1.00  0.00     0.234 C 
HETATM    7  N4  UNL     1      20.077   0.477  52.377  1.00  0.00    -0.254 NA
HETATM    8  C15 UNL     1      20.420   0.664  53.643  1.00  0.00     0.120 C 
HETATM    9  C16 UNL     1      21.262  -0.126  54.386  1.00  0.00     0.056 C 
HETATM   10  C17 UNL     1      22.446  -0.186  53.725  1.00  0.00     0.075 C 
ENDROOT
BRANCH   1  11
HETATM   11  C3  UNL     1      24.887  -0.713  53.662  1.00  0.00     0.314 C 
BRANCH  11  12
HETATM   12  N1  UNL     1      26.021  -0.229  52.928  1.00  0.00     0.116 N 
HETATM   13  H4  UNL     1      25.747   0.629  52.426  1.00  0.00     0.319 HD
BRANCH  12  14
HETATM   14  C2  UNL     1      27.231  -0.099  53.677  1.00  0.00     0.230 C 
HETATM   15  C1  UNL     1      26.856  -0.143  55.144  1.00  0.00     0.074 C 
HETATM   16  C18 UNL     1      28.201  -1.210  53.379  1.00  0.00     0.064 C 
HETATM   17  C19 UNL     1      29.601  -0.892  53.846  1.00  0.00     0.006 C 
HETATM   18  C20 UNL     1      30.060   0.470  53.458  1.00  0.00     0.020 C 
HETATM   19  C21 UNL     1      29.074   1.514  53.954  1.00  0.00     0.128 C 
HETATM   20  N5  UNL     1      27.791   1.205  53.402  1.00  0.00    -0.324 N 
BRANCH  20  21
HETATM   21  C22 UNL     1      27.152   2.203  52.618  1.00  0.00     0.352 C 
HETATM   22  O2  UNL     1      27.168   1.893  51.388  1.00  0.00    -0.283 OA
ENDBRANCH  20  21
ENDBRANCH  12  14
ENDBRANCH  11  12
ENDBRANCH   1  11
BRANCH  10  23
HETATM   23  O1  UNL     1      22.257  -1.417  53.124  1.00  0.00    -0.360 OA
HETATM   24  H16 UNL     1      22.142  -1.506  52.129  1.00  0.00     0.217 HD
ENDBRANCH  10  23
BRANCH   4  25
HETATM   25  N2  UNL     1      22.457   4.128  51.231  1.00  0.00    -0.341 N 
HETATM   26  H9  UNL     1      21.575   4.525  51.634  1.00  0.00     0.167 HD
BRANCH  25  27
HETATM   27  C8  UNL     1      23.547   4.962  50.837  1.00  0.00     0.035 A 
HETATM   28  C9  UNL     1      23.467   6.307  51.140  1.00  0.00     0.032 A 
HETATM   29  C10 UNL     1      24.548   7.077  50.740  1.00  0.00     0.046 A 
HETATM   30  C11 UNL     1      25.627   6.521  50.082  1.00  0.00     0.138 A 
HETATM   31  F1  UNL     1      26.655   7.333  49.717  1.00  0.00    -0.204 F 
HETATM   32  C12 UNL     1      25.668   5.162  49.796  1.00  0.00     0.074 A 
HETATM   33 CL1  UNL     1      27.045   4.459  48.957  1.00  0.00    -0.081 Cl
HETATM   34  C13 UNL     1      24.609   4.365  50.180  1.00  0.00     0.056 A 
ENDBRANCH  25  27
ENDBRANCH   4  25
TORSDOF 7
ENDMDL
MODEL 4
REMARK VINA RESULT:      -9.0      3.244      7.105
REMARK  7 active torsions:
REMARK  status: ('A' for Active; 'I' for Inactive)
REMARK    1  A    between atoms: C2_2  and  N1_3 
REMARK    2  A    between atoms: N1_3  and  C3_4 
REMARK    3  A    between atoms: C3_4  and  C4_5 
REMARK    4  A    between atoms: C7_8  and  N2_9 
REMARK    5  A    between atoms: N2_9  and  C8_10 
REMARK    6  A    between atoms: C17_23  and  O1_24 
REMARK    7  A    between atoms: N5_29  and  C22_30 
ROOT
HETATM    1  C4  UNL     1      23.119   3.846  49.548  1.00  0.00     0.003 C 
HETATM    2  C5  UNL     1      24.099   3.005  49.982  1.00  0.00     0.015 C 
HETATM    3  C6  UNL     1      25.062   3.080  50.966  1.00  0.00     0.051 C 
HETATM    4  C7  UNL     1      26.433   3.145  50.832  1.00  0.00     0.129 C 
HETATM    5  N3  UNL     1      26.841   3.485  49.596  1.00  0.00    -0.225 NA
HETATM    6  C14 UNL     1      26.664   4.741  49.127  1.00  0.00     0.234 C 
HETATM    7  N4  UNL     1      26.141   5.976  49.020  1.00  0.00    -0.254 NA
HETATM    8  C15 UNL     1      25.190   6.485  49.788  1.00  0.00     0.120 C 
HETATM    9  C16 UNL     1      23.840   6.463  49.540  1.00  0.00     0.056 C 
HETATM   10  C17 UNL     1      23.481   5.163  49.383  1.00  0.00     0.075 C 
ENDROOT
BRANCH   1  11
HETATM   11  C3  UNL     1      21.737   3.378  49.266  1.00  0.00     0.314 C 
BRANCH  11  12
HETATM   12  N1  UNL     1      21.098   3.128  50.526  1.00  0.00     0.116 N 
HETATM   13  H4  UNL     1      20.298   3.771  50.622  1.00  0.00     0.319 HD
BRANCH  12  14
HETATM   14  C2  UNL     1      20.778   1.762  50.796  1.00  0.00     0.230 C 
HETATM   15  C1  UNL     1      20.917   1.005  49.492  1.00  0.00     0.074 C 
HETATM   16  C18 UNL     1      21.698   1.160  51.821  1.00  0.00     0.064 C 
HETATM   17  C19 UNL     1      21.154  -0.125  52.399  1.00  0.00     0.006 C 
HETATM   18  C20 UNL     1      19.725  -0.032  52.807  1.00  0.00     0.020 C 
HETATM   19  C21 UNL     1      18.878   0.437  51.636  1.00  0.00     0.128 C 
HETATM   20  N5  UNL     1      19.391   1.698  51.199  1.00  0.00    -0.324 N 
BRANCH  20  21
HETATM   21  C22 UNL     1      18.501   2.806  51.191  1.00  0.00     0.352 C 
HETATM   22  O2  UNL     1      18.761   3.604  52.143  1.00  0.00    -0.283 OA
ENDBRANCH  20  21
ENDBRANCH  12  14
ENDBRANCH  11  12
ENDBRANCH   1  11
BRANCH  10  23
HETATM   23  O1  UNL     1      23.464   5.144  48.000  1.00  0.00    -0.360 OA
HETATM   24  H16 UNL     1      22.885   5.773  47.471  1.00  0.00     0.217 HD
ENDBRANCH  10  23
BRANCH   4  25
HETATM   25  N2  UNL     1      26.905   2.806  52.132  1.00  0.00    -0.341 N 
HETATM   26  H9  UNL     1      26.689   3.615  52.763  1.00  0.00     0.167 HD
BRANCH  25  27
HETATM   27  C8  UNL     1      27.559   1.631  52.611  1.00  0.00     0.035 A 
HETATM   28  C9  UNL     1      28.710   1.796  53.355  1.00  0.00     0.032 A 
HETATM   29  C10 UNL     1      29.309   0.628  53.800  1.00  0.00     0.046 A 
HETATM   30  C11 UNL     1      28.776  -0.612  53.512  1.00  0.00     0.138 A 
HETATM   31  F1  UNL     1      29.414  -1.719  53.980  1.00  0.00    -0.204 F 
HETATM   32  C12 UNL     1      27.615  -0.734  52.760  1.00  0.00     0.074 A 
HETATM   33 CL1  UNL     1      26.940  -2.317  52.395  1.00  0.00    -0.081 Cl
HETATM   34  C13 UNL     1      26.991   0.407  52.300  1.00  0.00     0.056 A 
ENDBRANCH  25  27
ENDBRANCH   4  25
TORSDOF 7
ENDMDL
MODEL 5
REMARK VINA RESULT:      -8.8      4.474      6.785
REMARK  7 active torsions:
REMARK  status: ('A' for Active; 'I' for Inactive)
REMARK    1  A    between atoms: C2_2  and  N1_3 
REMARK    2  A    between atoms: N1_3  and  C3_4 
REMARK    3  A    between atoms: C3_4  and  C4_5 
REMARK    4  A    between atoms: C7_8  and  N2_9 
REMARK    5  A    between atoms: N2_9  and  C8_10 
REMARK    6  A    between atoms: C17_23  and  O1_24 
REMARK    7  A    between atoms: N5_29  and  C22_30 
ROOT
HETATM    1  C4  UNL     1      23.601   1.913  51.859  1.00  0.00     0.003 C 
HETATM    2  C5  UNL     1      24.301   2.527  50.865  1.00  0.00     0.015 C 
HETATM    3  C6  UNL     1      24.420   3.834  50.440  1.00  0.00     0.051 C 
HETATM    4  C7  UNL     1      23.998   4.401  49.255  1.00  0.00     0.129 C 
HETATM    5  N3  UNL     1      23.101   3.654  48.588  1.00  0.00    -0.225 NA
HETATM    6  C14 UNL     1      21.837   3.507  49.050  1.00  0.00     0.234 C 
HETATM    7  N4  UNL     1      20.820   3.491  49.930  1.00  0.00    -0.254 NA
HETATM    8  C15 UNL     1      20.899   3.808  51.213  1.00  0.00     0.120 C 
HETATM    9  C16 UNL     1      21.122   2.944  52.257  1.00  0.00     0.056 C 
HETATM   10  C17 UNL     1      22.288   2.297  52.001  1.00  0.00     0.075 C 
ENDROOT
BRANCH   1  11
HETATM   11  C3  UNL     1      24.212   0.888  52.745  1.00  0.00     0.314 C 
BRANCH  11  12
HETATM   12  N1  UNL     1      25.531   0.618  52.251  1.00  0.00     0.116 N 
HETATM   13  H4  UNL     1      25.961   1.507  51.957  1.00  0.00     0.319 HD
BRANCH  12  14
HETATM   14  C2  UNL     1      26.361  -0.171  53.107  1.00  0.00     0.230 C 
HETATM   15  C1  UNL     1      25.504  -0.618  54.272  1.00  0.00     0.074 C 
HETATM   16  C18 UNL     1      26.910  -1.380  52.401  1.00  0.00     0.064 C 
HETATM   17  C19 UNL     1      28.071  -2.001  53.141  1.00  0.00     0.006 C 
HETATM   18  C20 UNL     1      29.089  -1.008  53.583  1.00  0.00     0.020 C 
HETATM   19  C21 UNL     1      28.432   0.077  54.419  1.00  0.00     0.128 C 
HETATM   20  N5  UNL     1      27.407   0.682  53.627  1.00  0.00    -0.324 N 
BRANCH  20  21
HETATM   21  C22 UNL     1      27.484   2.083  53.404  1.00  0.00     0.352 C 
HETATM   22  O2  UNL     1      27.811   2.334  52.204  1.00  0.00    -0.283 OA
ENDBRANCH  20  21
ENDBRANCH  12  14
ENDBRANCH  11  12
ENDBRANCH   1  11
BRANCH  10  23
HETATM   23  O1  UNL     1      21.742   1.129  51.500  1.00  0.00    -0.360 OA
HETATM   24  H16 UNL     1      22.270   0.274  51.466  1.00  0.00     0.217 HD
ENDBRANCH  10  23
BRANCH   4  25
HETATM   25  N2  UNL     1      24.723   5.624  49.202  1.00  0.00    -0.341 N 
HETATM   26  H9  UNL     1      24.091   6.377  49.567  1.00  0.00     0.167 HD
BRANCH  25  27
HETATM   27  C8  UNL     1      26.051   5.905  48.761  1.00  0.00     0.035 A 
HETATM   28  C9  UNL     1      26.989   4.897  48.865  1.00  0.00     0.032 A 
HETATM   29  C10 UNL     1      28.264   5.216  48.424  1.00  0.00     0.046 A 
HETATM   30  C11 UNL     1      28.561   6.464  47.915  1.00  0.00     0.138 A 
HETATM   31  F1  UNL     1      29.833   6.711  47.499  1.00  0.00    -0.204 F 
HETATM   32  C12 UNL     1      27.588   7.451  47.828  1.00  0.00     0.074 A 
HETATM   33 CL1  UNL     1      27.972   9.041  47.179  1.00  0.00    -0.081 Cl
HETATM   34  C13 UNL     1      26.308   7.170  48.258  1.00  0.00     0.056 A 
ENDBRANCH  25  27
ENDBRANCH   4  25
TORSDOF 7
ENDMDL
MODEL 6
REMARK VINA RESULT:      -8.7      2.013      2.414
REMARK  7 active torsions:
REMARK  status: ('A' for Active; 'I' for Inactive)
REMARK    1  A    between atoms: C2_2  and  N1_3 
REMARK    2  A    between atoms: N1_3  and  C3_4 
REMARK    3  A    between atoms: C3_4  and  C4_5 
REMARK    4  A    between atoms: C7_8  and  N2_9 
REMARK    5  A    between atoms: N2_9  and  C8_10 
REMARK    6  A    between atoms: C17_23  and  O1_24 
REMARK    7  A    between atoms: N5_29  and  C22_30 
ROOT
HETATM    1  C4  UNL     1      24.504   1.801  51.480  1.00  0.00     0.003 C 
HETATM    2  C5  UNL     1      23.478   1.137  52.080  1.00  0.00     0.015 C 
HETATM    3  C6  UNL     1      22.229   0.723  51.665  1.00  0.00     0.051 C 
HETATM    4  C7  UNL     1      20.989   1.162  52.081  1.00  0.00     0.129 C 
HETATM    5  N3  UNL     1      21.022   2.337  52.735  1.00  0.00    -0.225 NA
HETATM    6  C14 UNL     1      21.289   3.490  52.079  1.00  0.00     0.234 C 
HETATM    7  N4  UNL     1      21.755   4.302  51.113  1.00  0.00    -0.254 NA
HETATM    8  C15 UNL     1      22.352   3.916  49.996  1.00  0.00     0.120 C 
HETATM    9  C16 UNL     1      23.703   3.774  49.797  1.00  0.00     0.056 C 
HETATM   10  C17 UNL     1      24.158   2.905  50.735  1.00  0.00     0.075 C 
ENDROOT
BRANCH   1  11
HETATM   11  C3  UNL     1      25.919   1.367  51.616  1.00  0.00     0.314 C 
BRANCH  11  12
HETATM   12  N1  UNL     1      26.265   1.443  53.007  1.00  0.00     0.116 N 
HETATM   13  H4  UNL     1      25.434   1.744  53.536  1.00  0.00     0.319 HD
BRANCH  12  14
HETATM   14  C2  UNL     1      26.908   0.286  53.546  1.00  0.00     0.230 C 
HETATM   15  C1  UNL     1      26.299   0.030  54.908  1.00  0.00     0.074 C 
HETATM   16  C18 UNL     1      26.710  -0.925  52.677  1.00  0.00     0.064 C 
HETATM   17  C19 UNL     1      27.679  -2.036  53.008  1.00  0.00     0.006 C 
HETATM   18  C20 UNL     1      29.088  -1.572  53.137  1.00  0.00     0.020 C 
HETATM   19  C21 UNL     1      29.177  -0.453  54.160  1.00  0.00     0.128 C 
HETATM   20  N5  UNL     1      28.307   0.600  53.738  1.00  0.00    -0.324 N 
BRANCH  20  21
HETATM   21  C22 UNL     1      28.875   1.887  53.534  1.00  0.00     0.352 C 
HETATM   22  O2  UNL     1      28.377   2.734  54.335  1.00  0.00    -0.283 OA
ENDBRANCH  20  21
ENDBRANCH  12  14
ENDBRANCH  11  12
ENDBRANCH   1  11
BRANCH  10  23
HETATM   23  O1  UNL     1      24.657   3.840  51.624  1.00  0.00    -0.360 OA
HETATM   24  H16 UNL     1      24.153   4.683  51.841  1.00  0.00     0.217 HD
ENDBRANCH  10  23
BRANCH   4  25
HETATM   25  N2  UNL     1      20.111   0.137  51.629  1.00  0.00    -0.341 N 
HETATM   26  H9  UNL     1      20.648  -0.763  51.648  1.00  0.00     0.167 HD
BRANCH  25  27
HETATM   27  C8  UNL     1      18.749   0.193  51.206  1.00  0.00     0.035 A 
HETATM   28  C9  UNL     1      18.443   1.006  50.133  1.00  0.00     0.032 A 
HETATM   29  C10 UNL     1      17.109   1.027  49.758  1.00  0.00     0.046 A 
HETATM   30  C11 UNL     1      16.160   0.276  50.422  1.00  0.00     0.138 A 
HETATM   31  F1  UNL     1      14.868   0.342  50.001  1.00  0.00    -0.204 F 
HETATM   32  C12 UNL     1      16.510  -0.530  51.497  1.00  0.00     0.074 A 
HETATM   33 CL1  UNL     1      15.296  -1.484  52.341  1.00  0.00    -0.081 Cl
HETATM   34  C13 UNL     1      17.828  -0.575  51.899  1.00  0.00     0.056 A 
ENDBRANCH  25  27
ENDBRANCH   4  25
TORSDOF 7
ENDMDL
MODEL 7
REMARK VINA RESULT:      -8.7      6.685      9.877
REMARK  7 active torsions:
REMARK  status: ('A' for Active; 'I' for Inactive)
REMARK    1  A    between atoms: C2_2  and  N1_3 
REMARK    2  A    between atoms: N1_3  and  C3_4 
REMARK    3  A    between atoms: C3_4  and  C4_5 
REMARK    4  A    between atoms: C7_8  and  N2_9 
REMARK    5  A    between atoms: N2_9  and  C8_10 
REMARK    6  A    between atoms: C17_23  and  O1_24 
REMARK    7  A    between atoms: N5_29  and  C22_30 
ROOT
HETATM    1  C4  UNL     1      26.818   6.360  48.810  1.00  0.00     0.003 C 
HETATM    2  C5  UNL     1      27.938   5.931  48.164  1.00  0.00     0.015 C 
HETATM    3  C6  UNL     1      29.291   6.046  48.408  1.00  0.00     0.051 C 
HETATM    4  C7  UNL     1      30.244   6.742  47.693  1.00  0.00     0.129 C 
HETATM    5  N3  UNL     1      29.728   7.653  46.849  1.00  0.00    -0.225 NA
HETATM    6  C14 UNL     1      29.150   8.784  47.315  1.00  0.00     0.234 C 
HETATM    7  N4  UNL     1      28.541   9.613  48.182  1.00  0.00    -0.254 NA
HETATM    8  C15 UNL     1      28.246   9.338  49.444  1.00  0.00     0.120 C 
HETATM    9  C16 UNL     1      27.062   8.827  49.914  1.00  0.00     0.056 C 
HETATM   10  C17 UNL     1      26.838   7.661  49.258  1.00  0.00     0.075 C 
ENDROOT
BRANCH   1  11
HETATM   11  C3  UNL     1      25.639   5.481  49.025  1.00  0.00     0.314 C 
BRANCH  11  12
HETATM   12  N1  UNL     1      25.629   5.098  50.407  1.00  0.00     0.116 N 
HETATM   13  H4  UNL     1      25.092   5.799  50.938  1.00  0.00     0.319 HD
BRANCH  12  14
HETATM   14  C2  UNL     1      25.239   3.749  50.671  1.00  0.00     0.230 C 
HETATM   15  C1  UNL     1      24.586   3.218  49.412  1.00  0.00     0.074 C 
HETATM   16  C18 UNL     1      26.415   2.881  51.025  1.00  0.00     0.064 C 
HETATM   17  C19 UNL     1      25.998   1.583  51.674  1.00  0.00     0.006 C 
HETATM   18  C20 UNL     1      24.991   1.759  52.757  1.00  0.00     0.020 C 
HETATM   19  C21 UNL     1      23.783   2.513  52.229  1.00  0.00     0.128 C 
HETATM   20  N5  UNL     1      24.238   3.768  51.714  1.00  0.00    -0.324 N 
BRANCH  20  21
HETATM   21  C22 UNL     1      23.675   4.951  52.264  1.00  0.00     0.352 C 
HETATM   22  O2  UNL     1      22.797   5.438  51.489  1.00  0.00    -0.283 OA
ENDBRANCH  20  21
ENDBRANCH  12  14
ENDBRANCH  11  12
ENDBRANCH   1  11
BRANCH  10  23
HETATM   23  O1  UNL     1      25.946   8.148  48.319  1.00  0.00    -0.360 OA
HETATM   24  H16 UNL     1      26.260   8.648  47.504  1.00  0.00     0.217 HD
ENDBRANCH  10  23
BRANCH   4  25
HETATM   25  N2  UNL     1      31.470   6.187  48.157  1.00  0.00    -0.341 N 
HETATM   26  H9  UNL     1      31.641   6.570  49.118  1.00  0.00     0.167 HD
BRANCH  25  27
HETATM   27  C8  UNL     1      32.379   5.280  47.535  1.00  0.00     0.035 A 
HETATM   28  C9  UNL     1      33.547   5.799  47.013  1.00  0.00     0.032 A 
HETATM   29  C10 UNL     1      34.399   4.880  46.421  1.00  0.00     0.046 A 
HETATM   30  C11 UNL     1      34.088   3.537  46.365  1.00  0.00     0.138 A 
HETATM   31  F1  UNL     1      34.969   2.689  45.770  1.00  0.00    -0.204 F 
HETATM   32  C12 UNL     1      32.902   3.055  46.903  1.00  0.00     0.074 A 
HETATM   33 CL1  UNL     1      32.509   1.342  46.830  1.00  0.00    -0.081 Cl
HETATM   34  C13 UNL     1      32.029   3.940  47.501  1.00  0.00     0.056 A 
ENDBRANCH  25  27
ENDBRANCH   4  25
TORSDOF 7
ENDMDL
MODEL 8
REMARK VINA RESULT:      -8.6      5.122      7.499
REMARK  7 active torsions:
REMARK  status: ('A' for Active; 'I' for Inactive)
REMARK    1  A    between atoms: C2_2  and  N1_3 
REMARK    2  A    between atoms: N1_3  and  C3_4 
REMARK    3  A    between atoms: C3_4  and  C4_5 
REMARK    4  A    between atoms: C7_8  and  N2_9 
REMARK    5  A    between atoms: N2_9  and  C8_10 
REMARK    6  A    between atoms: C17_23  and  O1_24 
REMARK    7  A    between atoms: N5_29  and  C22_30 
ROOT
HETATM    1  C4  UNL     1      24.947   2.558  51.547  1.00  0.00     0.003 C 
HETATM    2  C5  UNL     1      25.660   2.967  50.461  1.00  0.00     0.015 C 
HETATM    3  C6  UNL     1      26.364   4.111  50.150  1.00  0.00     0.051 C 
HETATM    4  C7  UNL     1      26.086   5.066  49.193  1.00  0.00     0.129 C 
HETATM    5  N3  UNL     1      24.822   5.021  48.735  1.00  0.00    -0.225 NA
HETATM    6  C14 UNL     1      23.785   5.400  49.518  1.00  0.00     0.234 C 
HETATM    7  N4  UNL     1      23.101   5.676  50.643  1.00  0.00    -0.254 NA
HETATM    8  C15 UNL     1      23.577   5.612  51.876  1.00  0.00     0.120 C 
HETATM    9  C16 UNL     1      23.508   4.534  52.725  1.00  0.00     0.056 C 
HETATM   10  C17 UNL     1      24.086   3.484  52.090  1.00  0.00     0.075 C 
ENDROOT
BRANCH   1  11
HETATM   11  C3  UNL     1      25.084   1.193  52.120  1.00  0.00     0.314 C 
BRANCH  11  12
HETATM   12  N1  UNL     1      25.697   1.324  53.410  1.00  0.00     0.116 N 
HETATM   13  H4  UNL     1      24.966   1.553  54.100  1.00  0.00     0.319 HD
BRANCH  12  14
HETATM   14  C2  UNL     1      26.545   0.243  53.803  1.00  0.00     0.230 C 
HETATM   15  C1  UNL     1      26.053  -0.246  55.149  1.00  0.00     0.074 C 
HETATM   16  C18 UNL     1      26.504  -0.892  52.817  1.00  0.00     0.064 C 
HETATM   17  C19 UNL     1      27.655  -1.853  52.996  1.00  0.00     0.006 C 
HETATM   18  C20 UNL     1      28.975  -1.176  53.129  1.00  0.00     0.020 C 
HETATM   19  C21 UNL     1      28.932  -0.165  54.262  1.00  0.00     0.128 C 
HETATM   20  N5  UNL     1      27.882   0.765  53.982  1.00  0.00    -0.324 N 
BRANCH  20  21
HETATM   21  C22 UNL     1      28.223   2.142  53.898  1.00  0.00     0.352 C 
HETATM   22  O2  UNL     1      28.547   2.457  52.714  1.00  0.00    -0.283 OA
ENDBRANCH  20  21
ENDBRANCH  12  14
ENDBRANCH  11  12
ENDBRANCH   1  11
BRANCH  10  23
HETATM   23  O1  UNL     1      22.925   2.874  51.650  1.00  0.00    -0.360 OA
HETATM   24  H16 UNL     1      22.637   1.976  51.999  1.00  0.00     0.217 HD
ENDBRANCH  10  23
BRANCH   4  25
HETATM   25  N2  UNL     1      27.320   5.762  49.058  1.00  0.00    -0.341 N 
HETATM   26  H9  UNL     1      28.062   5.169  49.501  1.00  0.00     0.167 HD
BRANCH  25  27
HETATM   27  C8  UNL     1      27.621   7.023  48.461  1.00  0.00     0.035 A 
HETATM   28  C9  UNL     1      28.701   7.086  47.604  1.00  0.00     0.032 A 
HETATM   29  C10 UNL     1      28.954   8.330  47.047  1.00  0.00     0.046 A 
HETATM   30  C11 UNL     1      28.167   9.425  47.339  1.00  0.00     0.138 A 
HETATM   31  F1  UNL     1      28.470  10.617  46.757  1.00  0.00    -0.204 F 
HETATM   32  C12 UNL     1      27.088   9.320  48.206  1.00  0.00     0.074 A 
HETATM   33 CL1  UNL     1      26.088  10.719  48.575  1.00  0.00    -0.081 Cl
HETATM   34  C13 UNL     1      26.806   8.097  48.780  1.00  0.00     0.056 A 
ENDBRANCH  25  27
ENDBRANCH   4  25
TORSDOF 7
ENDMDL
MODEL 9
REMARK VINA RESULT:      -8.6      4.219      5.886
REMARK  7 active torsions:
REMARK  status: ('A' for Active; 'I' for Inactive)
REMARK    1  A    between atoms: C2_2  and  N1_3 
REMARK    2  A    between atoms: N1_3  and  C3_4 
REMARK    3  A    between atoms: C3_4  and  C4_5 
REMARK    4  A    between atoms: C7_8  and  N2_9 
REMARK    5  A    between atoms: N2_9  and  C8_10 
REMARK    6  A    between atoms: C17_23  and  O1_24 
REMARK    7  A    between atoms: N5_29  and  C22_30 
ROOT
HETATM    1  C4  UNL     1      26.503   5.451  48.816  1.00  0.00     0.003 C 
HETATM    2  C5  UNL     1      26.213   4.447  49.689  1.00  0.00     0.015 C 
HETATM    3  C6  UNL     1      25.152   3.578  49.833  1.00  0.00     0.051 C 
HETATM    4  C7  UNL     1      24.224   3.506  50.852  1.00  0.00     0.129 C 
HETATM    5  N3  UNL     1      24.178   4.608  51.621  1.00  0.00    -0.225 NA
HETATM    6  C14 UNL     1      23.670   5.768  51.144  1.00  0.00     0.234 C 
HETATM    7  N4  UNL     1      23.281   6.687  50.243  1.00  0.00    -0.254 NA
HETATM    8  C15 UNL     1      23.328   6.552  48.926  1.00  0.00     0.120 C 
HETATM    9  C16 UNL     1      24.352   6.943  48.100  1.00  0.00     0.056 C 
HETATM   10  C17 UNL     1      25.479   6.327  48.538  1.00  0.00     0.075 C 
ENDROOT
BRANCH   1  11
HETATM   11  C3  UNL     1      27.845   5.601  48.195  1.00  0.00     0.314 C 
BRANCH  11  12
HETATM   12  N1  UNL     1      28.628   6.445  49.051  1.00  0.00     0.116 N 
HETATM   13  H4  UNL     1      29.181   5.849  49.684  1.00  0.00     0.319 HD
BRANCH  12  14
HETATM   14  C2  UNL     1      29.394   7.454  48.389  1.00  0.00     0.230 C 
HETATM   15  C1  UNL     1      29.069   7.366  46.913  1.00  0.00     0.074 C 
HETATM   16  C18 UNL     1      29.063   8.833  48.890  1.00  0.00     0.064 C 
HETATM   17  C19 UNL     1      30.106   9.853  48.501  1.00  0.00     0.006 C 
HETATM   18  C20 UNL     1      31.501   9.402  48.763  1.00  0.00     0.020 C 
HETATM   19  C21 UNL     1      31.758   8.074  48.073  1.00  0.00     0.128 C 
HETATM   20  N5  UNL     1      30.795   7.133  48.554  1.00  0.00    -0.324 N 
BRANCH  20  21
HETATM   21  C22 UNL     1      31.279   5.944  49.164  1.00  0.00     0.352 C 
HETATM   22  O2  UNL     1      31.291   4.983  48.337  1.00  0.00    -0.283 OA
ENDBRANCH  20  21
ENDBRANCH  12  14
ENDBRANCH  11  12
ENDBRANCH   1  11
BRANCH  10  23
HETATM   23  O1  UNL     1      26.004   7.391  49.249  1.00  0.00    -0.360 OA
HETATM   24  H16 UNL     1      26.989   7.465  49.437  1.00  0.00     0.217 HD
ENDBRANCH  10  23
BRANCH   4  25
HETATM   25  N2  UNL     1      23.647   2.216  50.678  1.00  0.00    -0.341 N 
HETATM   26  H9  UNL     1      23.495   2.079  49.650  1.00  0.00     0.167 HD
BRANCH  25  27
HETATM   27  C8  UNL     1      23.296   1.213  51.631  1.00  0.00     0.035 A 
HETATM   28  C9  UNL     1      22.006   0.721  51.600  1.00  0.00     0.032 A 
HETATM   29  C10 UNL     1      21.713  -0.251  52.543  1.00  0.00     0.046 A 
HETATM   30  C11 UNL     1      22.659  -0.691  53.447  1.00  0.00     0.138 A 
HETATM   31  F1  UNL     1      22.304  -1.648  54.345  1.00  0.00    -0.204 F 
HETATM   32  C12 UNL     1      23.946  -0.170  53.444  1.00  0.00     0.074 A 
HETATM   33 CL1  UNL     1      25.148  -0.733  54.599  1.00  0.00    -0.081 Cl
HETATM   34  C13 UNL     1      24.275   0.800  52.520  1.00  0.00     0.056 A 
ENDBRANCH  25  27
ENDBRANCH   4  25
TORSDOF 7
ENDMDL
