MODEL 1
REMARK VINA RESULT:      -8.7      0.000      0.000
REMARK  7 active torsions:
REMARK  status: ('A' for Active; 'I' for Inactive)
REMARK    1  A    between atoms: C2_2  and  C3_3 
REMARK    2  A    between atoms: C11_14  and  N4_15 
REMARK       I    between atoms: N4_15  and  C12_16 
REMARK    3  A    between atoms: C12_16  and  C13_18 
REMARK    4  A    between atoms: C13_18  and  C14_19 
REMARK    5  A    between atoms: C14_19  and  N5_20 
REMARK       I    between atoms: N5_20  and  C15_21 
REMARK    6  A    between atoms: C15_21  and  C16_23 
REMARK    7  A    between atoms: N6_26  and  S1_27 
ROOT
HETATM    1  N4  UNL     1      25.921   4.397  49.442  1.00  0.00    -0.156 N 
HETATM    2  C12 UNL     1      25.482   5.729  49.691  1.00  0.00     0.237 C 
HETATM    3  O1  UNL     1      24.982   5.906  50.847  1.00  0.00    -0.273 OA
HETATM    4  H14 UNL     1      26.361   3.921  48.630  1.00  0.00     0.187 HD
ENDROOT
BRANCH   1   5
HETATM    5  C11 UNL     1      25.803   3.345  50.421  1.00  0.00     0.729 A 
HETATM    6  N3  UNL     1      26.974   2.978  50.974  1.00  0.00    -0.074 NA
HETATM    7  C10 UNL     1      26.990   1.994  51.913  1.00  0.00     0.146 A 
HETATM    8  C9  UNL     1      25.787   1.381  52.285  1.00  0.00    -0.008 A 
HETATM    9  C8  UNL     1      25.983   0.336  53.313  1.00  0.00     0.047 A 
HETATM   10  C20 UNL     1      24.633   1.811  51.674  1.00  0.00     0.112 A 
HETATM   11  C7  UNL     1      24.716  -0.329  53.722  1.00  0.00     0.048 A 
HETATM   12  C6  UNL     1      23.503   0.178  53.029  1.00  0.00    -0.001 A 
HETATM   13  C3  UNL     1      22.225  -0.280  53.239  1.00  0.00     0.063 A 
HETATM   14  C5  UNL     1      23.398   1.160  52.076  1.00  0.00     0.090 A 
HETATM   15  N1  UNL     1      21.416   0.419  52.433  1.00  0.00    -0.176 NA
HETATM   16  N2  UNL     1      22.108   1.299  51.719  1.00  0.00    -0.271 N 
HETATM   17  C4  UNL     1      21.617   2.231  50.747  1.00  0.00     0.180 C 
HETATM   18  N7  UNL     1      24.649   2.786  50.750  1.00  0.00    -0.060 NA
BRANCH  13  19
HETATM   19  C2  UNL     1      21.725  -1.342  54.161  1.00  0.00     0.057 C 
HETATM   20  C1  UNL     1      20.258  -1.582  54.018  1.00  0.00     0.011 C 
ENDBRANCH  13  19
ENDBRANCH   1   5
BRANCH   2  21
HETATM   21  C13 UNL     1      25.717   6.609  48.520  1.00  0.00     0.123 C 
BRANCH  21  22
HETATM   22  C14 UNL     1      26.551   7.802  48.848  1.00  0.00     0.132 C 
BRANCH  22  23
HETATM   23  N5  UNL     1      27.946   7.456  49.045  1.00  0.00    -0.359 N 
HETATM   24  C15 UNL     1      28.991   8.408  48.880  1.00  0.00     0.236 C 
HETATM   25  O2  UNL     1      28.788   9.607  48.554  1.00  0.00    -0.272 OA
HETATM   26  H19 UNL     1      28.271   6.513  49.314  1.00  0.00     0.162 HD
BRANCH  24  27
HETATM   27  C16 UNL     1      30.438   8.187  49.049  1.00  0.00     0.167 C 
HETATM   28  C17 UNL     1      31.336   9.326  48.566  1.00  0.00     0.046 C 
HETATM   29  C18 UNL     1      32.292   8.154  48.323  1.00  0.00     0.110 C 
HETATM   30  N6  UNL     1      31.080   7.381  48.009  1.00  0.00    -0.197 NA
BRANCH  30  31
HETATM   31  S1  UNL     1      31.224   5.712  48.428  1.00  0.00     0.208 S 
HETATM   32  C19 UNL     1      32.442   4.886  47.458  1.00  0.00     0.180 C 
HETATM   33  O3  UNL     1      31.555   5.511  49.878  1.00  0.00    -0.212 OA
HETATM   34  O4  UNL     1      29.850   5.104  48.204  1.00  0.00    -0.212 OA
ENDBRANCH  30  31
ENDBRANCH  24  27
ENDBRANCH  22  23
ENDBRANCH  21  22
ENDBRANCH   2  21
TORSDOF 7
ENDMDL
MODEL 2
REMARK VINA RESULT:      -8.6      1.748      2.805
REMARK  7 active torsions:
REMARK  status: ('A' for Active; 'I' for Inactive)
REMARK    1  A    between atoms: C2_2  and  C3_3 
REMARK    2  A    between atoms: C11_14  and  N4_15 
REMARK       I    between atoms: N4_15  and  C12_16 
REMARK    3  A    between atoms: C12_16  and  C13_18 
REMARK    4  A    between atoms: C13_18  and  C14_19 
REMARK    5  A    between atoms: C14_19  and  N5_20 
REMARK       I    between atoms: N5_20  and  C15_21 
REMARK    6  A    between atoms: C15_21  and  C16_23 
REMARK    7  A    between atoms: N6_26  and  S1_27 
ROOT
HETATM    1  N4  UNL     1      24.417   6.785  51.562  1.00  0.00    -0.156 N 
HETATM    2  C12 UNL     1      25.258   6.950  50.425  1.00  0.00     0.237 C 
HETATM    3  O1  UNL     1      25.132   6.040  49.545  1.00  0.00    -0.273 OA
HETATM    4  H14 UNL     1      24.270   7.325  52.437  1.00  0.00     0.187 HD
ENDROOT
BRANCH   1   5
HETATM    5  C11 UNL     1      23.503   5.677  51.697  1.00  0.00     0.729 A 
HETATM    6  N3  UNL     1      22.238   5.964  51.339  1.00  0.00    -0.074 NA
HETATM    7  C10 UNL     1      21.285   4.997  51.423  1.00  0.00     0.146 A 
HETATM    8  C9  UNL     1      21.639   3.722  51.882  1.00  0.00    -0.008 A 
HETATM    9  C8  UNL     1      20.487   2.796  51.912  1.00  0.00     0.047 A 
HETATM   10  C20 UNL     1      22.951   3.508  52.230  1.00  0.00     0.112 A 
HETATM   11  C7  UNL     1      20.842   1.434  52.398  1.00  0.00     0.048 A 
HETATM   12  C6  UNL     1      22.274   1.264  52.757  1.00  0.00    -0.001 A 
HETATM   13  C3  UNL     1      22.835   0.101  53.229  1.00  0.00     0.063 A 
HETATM   14  C5  UNL     1      23.295   2.178  52.704  1.00  0.00     0.090 A 
HETATM   15  N1  UNL     1      24.135   0.344  53.436  1.00  0.00    -0.176 NA
HETATM   16  N2  UNL     1      24.435   1.600  53.123  1.00  0.00    -0.271 N 
HETATM   17  C4  UNL     1      25.710   2.251  53.202  1.00  0.00     0.180 C 
HETATM   18  N7  UNL     1      23.871   4.483  52.135  1.00  0.00    -0.060 NA
BRANCH  13  19
HETATM   19  C2  UNL     1      22.210  -1.229  53.494  1.00  0.00     0.057 C 
HETATM   20  C1  UNL     1      22.071  -1.516  54.953  1.00  0.00     0.011 C 
ENDBRANCH  13  19
ENDBRANCH   1   5
BRANCH   2  21
HETATM   21  C13 UNL     1      26.099   8.167  50.539  1.00  0.00     0.123 C 
BRANCH  21  22
HETATM   22  C14 UNL     1      26.865   8.463  49.294  1.00  0.00     0.132 C 
BRANCH  22  23
HETATM   23  N5  UNL     1      28.207   7.915  49.333  1.00  0.00    -0.359 N 
HETATM   24  C15 UNL     1      29.347   8.680  48.957  1.00  0.00     0.236 C 
HETATM   25  O2  UNL     1      29.279   9.874  48.567  1.00  0.00    -0.272 OA
HETATM   26  H19 UNL     1      28.425   6.950  49.632  1.00  0.00     0.162 HD
BRANCH  24  27
HETATM   27  C16 UNL     1      30.755   8.244  48.952  1.00  0.00     0.167 C 
HETATM   28  C17 UNL     1      31.734   9.199  48.267  1.00  0.00     0.046 C 
HETATM   29  C18 UNL     1      32.462   7.879  47.995  1.00  0.00     0.110 C 
HETATM   30  N6  UNL     1      31.117   7.289  47.904  1.00  0.00    -0.197 NA
BRANCH  30  31
HETATM   31  S1  UNL     1      31.071   5.645  48.430  1.00  0.00     0.208 S 
HETATM   32  C19 UNL     1      32.017   4.587  47.385  1.00  0.00     0.180 C 
HETATM   33  O3  UNL     1      31.559   5.480  49.839  1.00  0.00    -0.212 OA
HETATM   34  O4  UNL     1      29.606   5.245  48.423  1.00  0.00    -0.212 OA
ENDBRANCH  30  31
ENDBRANCH  24  27
ENDBRANCH  22  23
ENDBRANCH  21  22
ENDBRANCH   2  21
TORSDOF 7
ENDMDL
MODEL 3
REMARK VINA RESULT:      -8.4      1.650      1.845
REMARK  7 active torsions:
REMARK  status: ('A' for Active; 'I' for Inactive)
REMARK    1  A    between atoms: C2_2  and  C3_3 
REMARK    2  A    between atoms: C11_14  and  N4_15 
REMARK       I    between atoms: N4_15  and  C12_16 
REMARK    3  A    between atoms: C12_16  and  C13_18 
REMARK    4  A    between atoms: C13_18  and  C14_19 
REMARK    5  A    between atoms: C14_19  and  N5_20 
REMARK       I    between atoms: N5_20  and  C15_21 
REMARK    6  A    between atoms: C15_21  and  C16_23 
REMARK    7  A    between atoms: N6_26  and  S1_27 
ROOT
HETATM    1  N4  UNL     1      25.977   4.800  50.345  1.00  0.00    -0.156 N 
HETATM    2  C12 UNL     1      26.823   4.968  49.212  1.00  0.00     0.237 C 
HETATM    3  O1  UNL     1      27.426   3.908  48.849  1.00  0.00    -0.273 OA
HETATM    4  H14 UNL     1      25.359   5.436  50.887  1.00  0.00     0.187 HD
ENDROOT
BRANCH   1   5
HETATM    5  C11 UNL     1      25.823   3.534  51.018  1.00  0.00     0.729 A 
HETATM    6  N3  UNL     1      26.967   2.837  51.144  1.00  0.00    -0.074 NA
HETATM    7  C10 UNL     1      26.947   1.626  51.763  1.00  0.00     0.146 A 
HETATM    8  C9  UNL     1      25.735   1.128  52.257  1.00  0.00    -0.008 A 
HETATM    9  C8  UNL     1      25.891  -0.195  52.898  1.00  0.00     0.047 A 
HETATM   10  C20 UNL     1      24.610   1.898  52.090  1.00  0.00     0.112 A 
HETATM   11  C7  UNL     1      24.614  -0.744  53.430  1.00  0.00     0.048 A 
HETATM   12  C6  UNL     1      23.433   0.134  53.220  1.00  0.00    -0.001 A 
HETATM   13  C3  UNL     1      22.152  -0.158  53.622  1.00  0.00     0.063 A 
HETATM   14  C5  UNL     1      23.364   1.361  52.610  1.00  0.00     0.090 A 
HETATM   15  N1  UNL     1      21.377   0.870  53.255  1.00  0.00    -0.176 NA
HETATM   16  N2  UNL     1      22.094   1.803  52.639  1.00  0.00    -0.271 N 
HETATM   17  C4  UNL     1      21.641   3.050  52.096  1.00  0.00     0.180 C 
HETATM   18  N7  UNL     1      24.661   3.092  51.474  1.00  0.00    -0.060 NA
BRANCH  13  19
HETATM   19  C2  UNL     1      21.619  -1.356  54.336  1.00  0.00     0.057 C 
HETATM   20  C1  UNL     1      20.164  -1.575  54.081  1.00  0.00     0.011 C 
ENDBRANCH  13  19
ENDBRANCH   1   5
BRANCH   2  21
HETATM   21  C13 UNL     1      26.800   6.365  48.715  1.00  0.00     0.123 C 
BRANCH  21  22
HETATM   22  C14 UNL     1      27.995   6.709  47.890  1.00  0.00     0.132 C 
BRANCH  22  23
HETATM   23  N5  UNL     1      29.238   6.438  48.588  1.00  0.00    -0.359 N 
HETATM   24  C15 UNL     1      30.506   6.612  47.967  1.00  0.00     0.236 C 
HETATM   25  O2  UNL     1      30.646   7.008  46.781  1.00  0.00    -0.272 OA
HETATM   26  H19 UNL     1      29.286   6.107  49.566  1.00  0.00     0.162 HD
BRANCH  24  27
HETATM   27  C16 UNL     1      31.833   6.374  48.562  1.00  0.00     0.167 C 
HETATM   28  C17 UNL     1      32.622   7.631  48.930  1.00  0.00     0.046 C 
HETATM   29  C18 UNL     1      33.797   6.696  48.626  1.00  0.00     0.110 C 
HETATM   30  N6  UNL     1      32.912   6.103  47.611  1.00  0.00    -0.197 NA
BRANCH  30  31
HETATM   31  S1  UNL     1      33.206   4.418  47.371  1.00  0.00     0.208 S 
HETATM   32  C19 UNL     1      34.863   3.969  47.770  1.00  0.00     0.180 C 
HETATM   33  O3  UNL     1      32.275   3.554  48.170  1.00  0.00    -0.212 OA
HETATM   34  O4  UNL     1      32.909   4.146  45.906  1.00  0.00    -0.212 OA
ENDBRANCH  30  31
ENDBRANCH  24  27
ENDBRANCH  22  23
ENDBRANCH  21  22
ENDBRANCH   2  21
TORSDOF 7
ENDMDL
MODEL 4
REMARK VINA RESULT:      -8.1      5.686      7.673
REMARK  7 active torsions:
REMARK  status: ('A' for Active; 'I' for Inactive)
REMARK    1  A    between atoms: C2_2  and  C3_3 
REMARK    2  A    between atoms: C11_14  and  N4_15 
REMARK       I    between atoms: N4_15  and  C12_16 
REMARK    3  A    between atoms: C12_16  and  C13_18 
REMARK    4  A    between atoms: C13_18  and  C14_19 
REMARK    5  A    between atoms: C14_19  and  N5_20 
REMARK       I    between atoms: N5_20  and  C15_21 
REMARK    6  A    between atoms: C15_21  and  C16_23 
REMARK    7  A    between atoms: N6_26  and  S1_27 
ROOT
HETATM    1  N4  UNL     1      20.070   0.806  51.790  1.00  0.00    -0.156 N 
HETATM    2  C12 UNL     1      19.513   2.111  51.912  1.00  0.00     0.237 C 
HETATM    3  O1  UNL     1      19.992   2.795  52.871  1.00  0.00    -0.273 OA
HETATM    4  H14 UNL     1      19.914   0.011  51.140  1.00  0.00     0.187 HD
ENDROOT
BRANCH   1   5
HETATM    5  C11 UNL     1      21.089   0.311  52.682  1.00  0.00     0.729 A 
HETATM    6  N3  UNL     1      20.624  -0.507  53.645  1.00  0.00    -0.074 NA
HETATM    7  C10 UNL     1      21.492  -1.038  54.547  1.00  0.00     0.146 A 
HETATM    8  C9  UNL     1      22.854  -0.722  54.458  1.00  0.00    -0.008 A 
HETATM    9  C8  UNL     1      23.654  -1.381  55.512  1.00  0.00     0.047 A 
HETATM   10  C20 UNL     1      23.251   0.120  53.447  1.00  0.00     0.112 A 
HETATM   11  C7  UNL     1      25.106  -1.058  55.435  1.00  0.00     0.048 A 
HETATM   12  C6  UNL     1      25.473  -0.144  54.322  1.00  0.00    -0.001 A 
HETATM   13  C3  UNL     1      26.747   0.294  54.050  1.00  0.00     0.063 A 
HETATM   14  C5  UNL     1      24.668   0.434  53.373  1.00  0.00     0.090 A 
HETATM   15  N1  UNL     1      26.671   1.096  52.980  1.00  0.00    -0.176 NA
HETATM   16  N2  UNL     1      25.417   1.193  52.554  1.00  0.00    -0.271 N 
HETATM   17  C4  UNL     1      24.917   1.949  51.443  1.00  0.00     0.180 C 
HETATM   18  N7  UNL     1      22.369   0.629  52.569  1.00  0.00    -0.060 NA
BRANCH  13  19
HETATM   19  C2  UNL     1      28.034  -0.003  54.747  1.00  0.00     0.057 C 
HETATM   20  C1  UNL     1      29.227   0.333  53.913  1.00  0.00     0.011 C 
ENDBRANCH  13  19
ENDBRANCH   1   5
BRANCH   2  21
HETATM   21  C13 UNL     1      18.487   2.366  50.871  1.00  0.00     0.123 C 
BRANCH  21  22
HETATM   22  C14 UNL     1      18.864   1.819  49.536  1.00  0.00     0.132 C 
BRANCH  22  23
HETATM   23  N5  UNL     1      19.712   2.731  48.791  1.00  0.00    -0.359 N 
HETATM   24  C15 UNL     1      21.123   2.558  48.716  1.00  0.00     0.236 C 
HETATM   25  O2  UNL     1      21.735   1.616  49.282  1.00  0.00    -0.272 OA
HETATM   26  H19 UNL     1      19.358   3.551  48.273  1.00  0.00     0.162 HD
BRANCH  24  27
HETATM   27  C16 UNL     1      22.091   3.407  47.999  1.00  0.00     0.167 C 
HETATM   28  C17 UNL     1      22.936   4.327  48.881  1.00  0.00     0.046 C 
HETATM   29  C18 UNL     1      22.898   5.186  47.613  1.00  0.00     0.110 C 
HETATM   30  N6  UNL     1      21.547   4.636  47.420  1.00  0.00    -0.197 NA
BRANCH  30  31
HETATM   31  S1  UNL     1      21.121   4.479  45.754  1.00  0.00     0.208 S 
HETATM   32  C19 UNL     1      21.060   6.038  44.933  1.00  0.00     0.180 C 
HETATM   33  O3  UNL     1      22.064   3.584  45.003  1.00  0.00    -0.212 OA
HETATM   34  O4  UNL     1      19.762   3.801  45.732  1.00  0.00    -0.212 OA
ENDBRANCH  30  31
ENDBRANCH  24  27
ENDBRANCH  22  23
ENDBRANCH  21  22
ENDBRANCH   2  21
TORSDOF 7
ENDMDL
MODEL 5
REMARK VINA RESULT:      -8.1      6.459     11.274
REMARK  7 active torsions:
REMARK  status: ('A' for Active; 'I' for Inactive)
REMARK    1  A    between atoms: C2_2  and  C3_3 
REMARK    2  A    between atoms: C11_14  and  N4_15 
REMARK       I    between atoms: N4_15  and  C12_16 
REMARK    3  A    between atoms: C12_16  and  C13_18 
REMARK    4  A    between atoms: C13_18  and  C14_19 
REMARK    5  A    between atoms: C14_19  and  N5_20 
REMARK       I    between atoms: N5_20  and  C15_21 
REMARK    6  A    between atoms: C15_21  and  C16_23 
REMARK    7  A    between atoms: N6_26  and  S1_27 
ROOT
HETATM    1  N4  UNL     1      20.738   2.131  50.791  1.00  0.00    -0.156 N 
HETATM    2  C12 UNL     1      19.898   3.199  51.217  1.00  0.00     0.237 C 
HETATM    3  O1  UNL     1      19.975   3.459  52.460  1.00  0.00    -0.273 OA
HETATM    4  H14 UNL     1      20.918   1.674  49.875  1.00  0.00     0.187 HD
ENDROOT
BRANCH   1   5
HETATM    5  C11 UNL     1      21.599   1.412  51.696  1.00  0.00     0.729 A 
HETATM    6  N3  UNL     1      20.961   0.499  52.451  1.00  0.00    -0.074 NA
HETATM    7  C10 UNL     1      21.669  -0.244  53.344  1.00  0.00     0.146 A 
HETATM    8  C9  UNL     1      23.050  -0.042  53.461  1.00  0.00    -0.008 A 
HETATM    9  C8  UNL     1      23.663  -0.928  54.474  1.00  0.00     0.047 A 
HETATM   10  C20 UNL     1      23.629   0.909  52.656  1.00  0.00     0.112 A 
HETATM   11  C7  UNL     1      25.132  -0.730  54.615  1.00  0.00     0.048 A 
HETATM   12  C6  UNL     1      25.700   0.311  53.719  1.00  0.00    -0.001 A 
HETATM   13  C3  UNL     1      27.026   0.670  53.669  1.00  0.00     0.063 A 
HETATM   14  C5  UNL     1      25.063   1.101  52.796  1.00  0.00     0.090 A 
HETATM   15  N1  UNL     1      27.141   1.633  52.746  1.00  0.00    -0.176 NA
HETATM   16  N2  UNL     1      25.961   1.909  52.204  1.00  0.00    -0.271 N 
HETATM   17  C4  UNL     1      25.659   2.873  51.186  1.00  0.00     0.180 C 
HETATM   18  N7  UNL     1      22.903   1.627  51.783  1.00  0.00    -0.060 NA
BRANCH  13  19
HETATM   19  C2  UNL     1      28.191   0.152  54.446  1.00  0.00     0.057 C 
HETATM   20  C1  UNL     1      29.310  -0.301  53.567  1.00  0.00     0.011 C 
ENDBRANCH  13  19
ENDBRANCH   1   5
BRANCH   2  21
HETATM   21  C13 UNL     1      19.117   3.764  50.090  1.00  0.00     0.123 C 
BRANCH  21  22
HETATM   22  C14 UNL     1      17.870   4.451  50.533  1.00  0.00     0.132 C 
BRANCH  22  23
HETATM   23  N5  UNL     1      17.232   3.766  51.642  1.00  0.00    -0.359 N 
HETATM   24  C15 UNL     1      15.859   3.393  51.611  1.00  0.00     0.236 C 
HETATM   25  O2  UNL     1      15.102   3.626  50.633  1.00  0.00    -0.272 OA
HETATM   26  H19 UNL     1      17.721   3.506  52.514  1.00  0.00     0.162 HD
BRANCH  24  27
HETATM   27  C16 UNL     1      15.096   2.699  52.663  1.00  0.00     0.167 C 
HETATM   28  C17 UNL     1      14.908   1.196  52.453  1.00  0.00     0.046 C 
HETATM   29  C18 UNL     1      13.624   1.488  53.237  1.00  0.00     0.110 C 
HETATM   30  N6  UNL     1      13.640   2.790  52.553  1.00  0.00    -0.197 NA
BRANCH  30  31
HETATM   31  S1  UNL     1      12.959   4.056  53.510  1.00  0.00     0.208 S 
HETATM   32  C19 UNL     1      11.769   3.451  54.662  1.00  0.00     0.180 C 
HETATM   33  O3  UNL     1      14.001   4.827  54.266  1.00  0.00    -0.212 OA
HETATM   34  O4  UNL     1      12.320   5.025  52.530  1.00  0.00    -0.212 OA
ENDBRANCH  30  31
ENDBRANCH  24  27
ENDBRANCH  22  23
ENDBRANCH  21  22
ENDBRANCH   2  21
TORSDOF 7
ENDMDL
MODEL 6
REMARK VINA RESULT:      -7.9      7.469     11.943
REMARK  7 active torsions:
REMARK  status: ('A' for Active; 'I' for Inactive)
REMARK    1  A    between atoms: C2_2  and  C3_3 
REMARK    2  A    between atoms: C11_14  and  N4_15 
REMARK       I    between atoms: N4_15  and  C12_16 
REMARK    3  A    between atoms: C12_16  and  C13_18 
REMARK    4  A    between atoms: C13_18  and  C14_19 
REMARK    5  A    between atoms: C14_19  and  N5_20 
REMARK       I    between atoms: N5_20  and  C15_21 
REMARK    6  A    between atoms: C15_21  and  C16_23 
REMARK    7  A    between atoms: N6_26  and  S1_27 
ROOT
HETATM    1  N4  UNL     1      18.415   1.442  50.563  1.00  0.00    -0.156 N 
HETATM    2  C12 UNL     1      17.822   2.715  50.797  1.00  0.00     0.237 C 
HETATM    3  O1  UNL     1      18.097   3.218  51.933  1.00  0.00    -0.273 OA
HETATM    4  H14 UNL     1      18.400   0.772  49.768  1.00  0.00     0.187 HD
ENDROOT
BRANCH   1   5
HETATM    5  C11 UNL     1      19.254   0.786  51.535  1.00  0.00     0.729 A 
HETATM    6  N3  UNL     1      18.585  -0.020  52.381  1.00  0.00    -0.074 NA
HETATM    7  C10 UNL     1      19.270  -0.695  53.343  1.00  0.00     0.146 A 
HETATM    8  C9  UNL     1      20.659  -0.536  53.436  1.00  0.00    -0.008 A 
HETATM    9  C8  UNL     1      21.244  -1.338  54.532  1.00  0.00     0.047 A 
HETATM   10  C20 UNL     1      21.269   0.304  52.536  1.00  0.00     0.112 A 
HETATM   11  C7  UNL     1      22.720  -1.184  54.648  1.00  0.00     0.048 A 
HETATM   12  C6  UNL     1      23.322  -0.263  53.649  1.00  0.00    -0.001 A 
HETATM   13  C3  UNL     1      24.660   0.037  53.559  1.00  0.00     0.063 A 
HETATM   14  C5  UNL     1      22.710   0.453  52.651  1.00  0.00     0.090 A 
HETATM   15  N1  UNL     1      24.807   0.895  52.542  1.00  0.00    -0.176 NA
HETATM   16  N2  UNL     1      23.634   1.161  51.978  1.00  0.00    -0.271 N 
HETATM   17  C4  UNL     1      23.364   2.026  50.867  1.00  0.00     0.180 C 
HETATM   18  N7  UNL     1      20.565   0.957  51.595  1.00  0.00    -0.060 NA
BRANCH  13  19
HETATM   19  C2  UNL     1      25.810  -0.444  54.382  1.00  0.00     0.057 C 
HETATM   20  C1  UNL     1      26.964   0.503  54.362  1.00  0.00     0.011 C 
ENDBRANCH  13  19
ENDBRANCH   1   5
BRANCH   2  21
HETATM   21  C13 UNL     1      17.008   3.160  49.639  1.00  0.00     0.123 C 
BRANCH  21  22
HETATM   22  C14 UNL     1      15.953   4.146  50.015  1.00  0.00     0.132 C 
BRANCH  22  23
HETATM   23  N5  UNL     1      15.131   3.674  51.114  1.00  0.00    -0.359 N 
HETATM   24  C15 UNL     1      13.747   3.991  51.211  1.00  0.00     0.236 C 
HETATM   25  O2  UNL     1      13.138   4.694  50.364  1.00  0.00    -0.272 OA
HETATM   26  H19 UNL     1      15.487   3.088  51.886  1.00  0.00     0.162 HD
BRANCH  24  27
HETATM   27  C16 UNL     1      12.807   3.578  52.269  1.00  0.00     0.167 C 
HETATM   28  C17 UNL     1      12.420   4.672  53.264  1.00  0.00     0.046 C 
HETATM   29  C18 UNL     1      12.287   3.456  54.187  1.00  0.00     0.110 C 
HETATM   30  N6  UNL     1      13.406   2.894  53.415  1.00  0.00    -0.197 NA
BRANCH  30  31
HETATM   31  S1  UNL     1      13.338   1.172  53.297  1.00  0.00     0.208 S 
HETATM   32  C19 UNL     1      12.412   0.452  54.613  1.00  0.00     0.180 C 
HETATM   33  O3  UNL     1      12.752   0.710  51.996  1.00  0.00    -0.212 OA
HETATM   34  O4  UNL     1      14.779   0.694  53.323  1.00  0.00    -0.212 OA
ENDBRANCH  30  31
ENDBRANCH  24  27
ENDBRANCH  22  23
ENDBRANCH  21  22
ENDBRANCH   2  21
TORSDOF 7
ENDMDL
MODEL 7
REMARK VINA RESULT:      -7.7      3.405      5.526
REMARK  7 active torsions:
REMARK  status: ('A' for Active; 'I' for Inactive)
REMARK    1  A    between atoms: C2_2  and  C3_3 
REMARK    2  A    between atoms: C11_14  and  N4_15 
REMARK       I    between atoms: N4_15  and  C12_16 
REMARK    3  A    between atoms: C12_16  and  C13_18 
REMARK    4  A    between atoms: C13_18  and  C14_19 
REMARK    5  A    between atoms: C14_19  and  N5_20 
REMARK       I    between atoms: N5_20  and  C15_21 
REMARK    6  A    between atoms: C15_21  and  C16_23 
REMARK    7  A    between atoms: N6_26  and  S1_27 
ROOT
HETATM    1  N4  UNL     1      26.163   4.444  50.487  1.00  0.00    -0.156 N 
HETATM    2  C12 UNL     1      26.853   4.448  49.242  1.00  0.00     0.237 C 
HETATM    3  O1  UNL     1      27.252   3.300  48.863  1.00  0.00    -0.273 OA
HETATM    4  H14 UNL     1      25.719   5.181  51.070  1.00  0.00     0.187 HD
ENDROOT
BRANCH   1   5
HETATM    5  C11 UNL     1      25.940   3.239  51.248  1.00  0.00     0.729 A 
HETATM    6  N3  UNL     1      27.066   2.571  51.560  1.00  0.00    -0.074 NA
HETATM    7  C10 UNL     1      26.982   1.419  52.277  1.00  0.00     0.146 A 
HETATM    8  C9  UNL     1      25.725   0.948  52.676  1.00  0.00    -0.008 A 
HETATM    9  C8  UNL     1      25.814  -0.312  53.444  1.00  0.00     0.047 A 
HETATM   10  C20 UNL     1      24.622   1.686  52.318  1.00  0.00     0.112 A 
HETATM   11  C7  UNL     1      24.487  -0.830  53.878  1.00  0.00     0.048 A 
HETATM   12  C6  UNL     1      23.334   0.011  53.463  1.00  0.00    -0.001 A 
HETATM   13  C3  UNL     1      22.017  -0.262  53.745  1.00  0.00     0.063 A 
HETATM   14  C5  UNL     1      23.328   1.179  52.743  1.00  0.00     0.090 A 
HETATM   15  N1  UNL     1      21.284   0.719  53.206  1.00  0.00    -0.176 NA
HETATM   16  N2  UNL     1      22.061   1.605  52.593  1.00  0.00    -0.271 N 
HETATM   17  C4  UNL     1      21.667   2.794  51.896  1.00  0.00     0.180 C 
HETATM   18  N7  UNL     1      24.736   2.823  51.610  1.00  0.00    -0.060 NA
BRANCH  13  19
HETATM   19  C2  UNL     1      21.413  -1.401  54.499  1.00  0.00     0.057 C 
HETATM   20  C1  UNL     1      20.019  -1.706  54.056  1.00  0.00     0.011 C 
ENDBRANCH  13  19
ENDBRANCH   1   5
BRANCH   2  21
HETATM   21  C13 UNL     1      26.946   5.814  48.672  1.00  0.00     0.123 C 
BRANCH  21  22
HETATM   22  C14 UNL     1      26.188   6.827  49.463  1.00  0.00     0.132 C 
BRANCH  22  23
HETATM   23  N5  UNL     1      24.848   7.034  48.947  1.00  0.00    -0.359 N 
HETATM   24  C15 UNL     1      23.688   6.719  49.708  1.00  0.00     0.236 C 
HETATM   25  O2  UNL     1      23.734   6.242  50.872  1.00  0.00    -0.272 OA
HETATM   26  H19 UNL     1      24.648   7.417  48.008  1.00  0.00     0.162 HD
BRANCH  24  27
HETATM   27  C16 UNL     1      22.281   6.880  49.302  1.00  0.00     0.167 C 
HETATM   28  C17 UNL     1      21.427   7.747  50.228  1.00  0.00     0.046 C 
HETATM   29  C18 UNL     1      20.332   6.811  49.706  1.00  0.00     0.110 C 
HETATM   30  N6  UNL     1      21.385   5.784  49.676  1.00  0.00    -0.197 NA
BRANCH  30  31
HETATM   31  S1  UNL     1      21.156   4.627  48.416  1.00  0.00     0.208 S 
HETATM   32  C19 UNL     1      19.706   3.654  48.662  1.00  0.00     0.180 C 
HETATM   33  O3  UNL     1      21.073   5.265  47.060  1.00  0.00    -0.212 OA
HETATM   34  O4  UNL     1      22.400   3.755  48.415  1.00  0.00    -0.212 OA
ENDBRANCH  30  31
ENDBRANCH  24  27
ENDBRANCH  22  23
ENDBRANCH  21  22
ENDBRANCH   2  21
TORSDOF 7
ENDMDL
MODEL 8
REMARK VINA RESULT:      -7.7      2.188      3.268
REMARK  7 active torsions:
REMARK  status: ('A' for Active; 'I' for Inactive)
REMARK    1  A    between atoms: C2_2  and  C3_3 
REMARK    2  A    between atoms: C11_14  and  N4_15 
REMARK       I    between atoms: N4_15  and  C12_16 
REMARK    3  A    between atoms: C12_16  and  C13_18 
REMARK    4  A    between atoms: C13_18  and  C14_19 
REMARK    5  A    between atoms: C14_19  and  N5_20 
REMARK       I    between atoms: N5_20  and  C15_21 
REMARK    6  A    between atoms: C15_21  and  C16_23 
REMARK    7  A    between atoms: N6_26  and  S1_27 
ROOT
HETATM    1  N4  UNL     1      26.259   5.581  49.983  1.00  0.00    -0.156 N 
HETATM    2  C12 UNL     1      26.336   6.137  48.675  1.00  0.00     0.237 C 
HETATM    3  O1  UNL     1      25.237   6.117  48.034  1.00  0.00    -0.273 OA
HETATM    4  H14 UNL     1      26.945   5.442  50.751  1.00  0.00     0.187 HD
ENDROOT
BRANCH   1   5
HETATM    5  C11 UNL     1      25.037   5.042  50.527  1.00  0.00     0.729 A 
HETATM    6  N3  UNL     1      23.982   5.871  50.431  1.00  0.00    -0.074 NA
HETATM    7  C10 UNL     1      22.773   5.473  50.911  1.00  0.00     0.146 A 
HETATM    8  C9  UNL     1      22.651   4.207  51.497  1.00  0.00    -0.008 A 
HETATM    9  C8  UNL     1      21.275   3.934  51.964  1.00  0.00     0.047 A 
HETATM   10  C20 UNL     1      23.775   3.418  51.559  1.00  0.00     0.112 A 
HETATM   11  C7  UNL     1      21.123   2.592  52.591  1.00  0.00     0.048 A 
HETATM   12  C6  UNL     1      22.372   1.786  52.628  1.00  0.00    -0.001 A 
HETATM   13  C3  UNL     1      22.479   0.523  53.156  1.00  0.00     0.063 A 
HETATM   14  C5  UNL     1      23.624   2.109  52.171  1.00  0.00     0.090 A 
HETATM   15  N1  UNL     1      23.751   0.136  53.004  1.00  0.00    -0.176 NA
HETATM   16  N2  UNL     1      24.463   1.085  52.408  1.00  0.00    -0.271 N 
HETATM   17  C4  UNL     1      25.856   1.062  52.066  1.00  0.00     0.180 C 
HETATM   18  N7  UNL     1      24.956   3.839  51.075  1.00  0.00    -0.060 NA
BRANCH  13  19
HETATM   19  C2  UNL     1      21.443  -0.342  53.796  1.00  0.00     0.057 C 
HETATM   20  C1  UNL     1      22.003  -1.194  54.888  1.00  0.00     0.011 C 
ENDBRANCH  13  19
ENDBRANCH   1   5
BRANCH   2  21
HETATM   21  C13 UNL     1      27.705   6.616  48.363  1.00  0.00     0.123 C 
BRANCH  21  22
HETATM   22  C14 UNL     1      28.728   5.532  48.421  1.00  0.00     0.132 C 
BRANCH  22  23
HETATM   23  N5  UNL     1      29.956   5.903  47.744  1.00  0.00    -0.359 N 
HETATM   24  C15 UNL     1      31.225   5.818  48.383  1.00  0.00     0.236 C 
HETATM   25  O2  UNL     1      31.378   5.421  49.567  1.00  0.00    -0.272 OA
HETATM   26  H19 UNL     1      29.994   6.246  46.771  1.00  0.00     0.162 HD
BRANCH  24  27
HETATM   27  C16 UNL     1      32.539   6.162  47.811  1.00  0.00     0.167 C 
HETATM   28  C17 UNL     1      32.528   7.280  46.769  1.00  0.00     0.046 C 
HETATM   29  C18 UNL     1      33.729   6.485  46.247  1.00  0.00     0.110 C 
HETATM   30  N6  UNL     1      33.002   5.297  46.724  1.00  0.00    -0.197 NA
BRANCH  30  31
HETATM   31  S1  UNL     1      34.056   4.037  47.254  1.00  0.00     0.208 S 
HETATM   32  C19 UNL     1      35.060   3.415  45.945  1.00  0.00     0.180 C 
HETATM   33  O3  UNL     1      34.955   4.473  48.374  1.00  0.00    -0.212 OA
HETATM   34  O4  UNL     1      33.158   2.947  47.812  1.00  0.00    -0.212 OA
ENDBRANCH  30  31
ENDBRANCH  24  27
ENDBRANCH  22  23
ENDBRANCH  21  22
ENDBRANCH   2  21
TORSDOF 7
ENDMDL
MODEL 9
REMARK VINA RESULT:      -7.7      4.289      6.788
REMARK  7 active torsions:
REMARK  status: ('A' for Active; 'I' for Inactive)
REMARK    1  A    between atoms: C2_2  and  C3_3 
REMARK    2  A    between atoms: C11_14  and  N4_15 
REMARK       I    between atoms: N4_15  and  C12_16 
REMARK    3  A    between atoms: C12_16  and  C13_18 
REMARK    4  A    between atoms: C13_18  and  C14_19 
REMARK    5  A    between atoms: C14_19  and  N5_20 
REMARK       I    between atoms: N5_20  and  C15_21 
REMARK    6  A    between atoms: C15_21  and  C16_23 
REMARK    7  A    between atoms: N6_26  and  S1_27 
ROOT
HETATM    1  N4  UNL     1      21.503   2.330  50.267  1.00  0.00    -0.156 N 
HETATM    2  C12 UNL     1      21.142   1.787  49.002  1.00  0.00     0.237 C 
HETATM    3  O1  UNL     1      21.575   0.608  48.797  1.00  0.00    -0.273 OA
HETATM    4  H14 UNL     1      21.322   3.236  50.744  1.00  0.00     0.187 HD
ENDROOT
BRANCH   1   5
HETATM    5  C11 UNL     1      22.294   1.601  51.228  1.00  0.00     0.729 A 
HETATM    6  N3  UNL     1      21.585   0.743  51.984  1.00  0.00    -0.074 NA
HETATM    7  C10 UNL     1      22.223  -0.001  52.927  1.00  0.00     0.146 A 
HETATM    8  C9  UNL     1      23.606   0.141  53.093  1.00  0.00    -0.008 A 
HETATM    9  C8  UNL     1      24.138  -0.739  54.156  1.00  0.00     0.047 A 
HETATM   10  C20 UNL     1      24.260   1.038  52.283  1.00  0.00     0.112 A 
HETATM   11  C7  UNL     1      25.608  -0.604  54.349  1.00  0.00     0.048 A 
HETATM   12  C6  UNL     1      26.258   0.380  53.444  1.00  0.00    -0.001 A 
HETATM   13  C3  UNL     1      27.600   0.677  53.436  1.00  0.00     0.063 A 
HETATM   14  C5  UNL     1      25.695   1.168  52.473  1.00  0.00     0.090 A 
HETATM   15  N1  UNL     1      27.796   1.603  52.490  1.00  0.00    -0.176 NA
HETATM   16  N2  UNL     1      26.651   1.915  51.893  1.00  0.00    -0.271 N 
HETATM   17  C4  UNL     1      26.435   2.858  50.834  1.00  0.00     0.180 C 
HETATM   18  N7  UNL     1      23.602   1.760  51.359  1.00  0.00    -0.060 NA
BRANCH  13  19
HETATM   19  C2  UNL     1      28.709   0.131  54.274  1.00  0.00     0.057 C 
HETATM   20  C1  UNL     1      29.781  -0.512  53.458  1.00  0.00     0.011 C 
ENDBRANCH  13  19
ENDBRANCH   1   5
BRANCH   2  21
HETATM   21  C13 UNL     1      20.331   2.741  48.208  1.00  0.00     0.123 C 
BRANCH  21  22
HETATM   22  C14 UNL     1      19.516   3.658  49.057  1.00  0.00     0.132 C 
BRANCH  22  23
HETATM   23  N5  UNL     1      19.989   5.029  48.993  1.00  0.00    -0.359 N 
HETATM   24  C15 UNL     1      20.616   5.664  50.101  1.00  0.00     0.236 C 
HETATM   25  O2  UNL     1      20.804   5.094  51.208  1.00  0.00    -0.272 OA
HETATM   26  H19 UNL     1      19.906   5.626  48.154  1.00  0.00     0.162 HD
BRANCH  24  27
HETATM   27  C16 UNL     1      21.137   7.040  50.166  1.00  0.00     0.167 C 
HETATM   28  C17 UNL     1      20.213   8.119  49.599  1.00  0.00     0.046 C 
HETATM   29  C18 UNL     1      21.561   8.786  49.307  1.00  0.00     0.110 C 
HETATM   30  N6  UNL     1      22.061   7.418  49.096  1.00  0.00    -0.197 NA
BRANCH  30  31
HETATM   31  S1  UNL     1      23.722   7.240  49.531  1.00  0.00     0.208 S 
HETATM   32  C19 UNL     1      24.269   5.569  49.396  1.00  0.00     0.180 C 
HETATM   33  O3  UNL     1      24.628   8.103  48.703  1.00  0.00    -0.212 OA
HETATM   34  O4  UNL     1      23.835   7.733  50.964  1.00  0.00    -0.212 OA
ENDBRANCH  30  31
ENDBRANCH  24  27
ENDBRANCH  22  23
ENDBRANCH  21  22
ENDBRANCH   2  21
TORSDOF 7
ENDMDL
