MODEL 1
REMARK VINA RESULT:      -7.2      0.000      0.000
REMARK  6 active torsions:
REMARK  status: ('A' for Active; 'I' for Inactive)
REMARK    1  A    between atoms: O1_2  and  C2_3 
REMARK    2  A    between atoms: C2_3  and  C3_4 
REMARK    3  A    between atoms: C3_4  and  O2_5 
REMARK    4  A    between atoms: O2_5  and  C4_6 
REMARK    5  A    between atoms: C8_12  and  N3_13 
REMARK    6  A    between atoms: N3_13  and  C9_14 
ROOT
HETATM    1  C4  UNL     1      26.681   2.429  52.338  1.00  0.00     0.106 C 
HETATM    2  C5  UNL     1      25.924   1.993  53.380  1.00  0.00     0.072 C 
HETATM    3  C6  UNL     1      24.553   2.023  52.880  1.00  0.00     0.096 A 
HETATM    4  N1  UNL     1      23.568   1.258  53.282  1.00  0.00    -0.242 NA
HETATM    5  C7  UNL     1      22.359   1.499  52.597  1.00  0.00     0.231 A 
HETATM    6  N2  UNL     1      22.618   2.467  51.726  1.00  0.00    -0.237 NA
HETATM    7  C8  UNL     1      23.948   2.846  51.864  1.00  0.00     0.224 A 
HETATM    8  C15 UNL     1      24.829   3.146  50.772  1.00  0.00     0.140 C 
HETATM    9  C16 UNL     1      26.147   2.959  51.052  1.00  0.00     0.136 C 
HETATM   10  O3  UNL     1      27.141   3.255  50.131  1.00  0.00    -0.344 OA
HETATM   11  C17 UNL     1      26.988   4.306  49.167  1.00  0.00     0.202 C 
HETATM   12  C18 UNL     1      25.514   4.591  48.942  1.00  0.00     0.202 C 
HETATM   13  O4  UNL     1      24.712   3.577  49.497  1.00  0.00    -0.346 OA
ENDROOT
BRANCH   7  14
HETATM   14  N3  UNL     1      23.835   4.271  52.579  1.00  0.00    -0.351 N 
HETATM   15  H10 UNL     1      24.173   4.351  53.561  1.00  0.00     0.163 HD
BRANCH  14  16
HETATM   16  C9  UNL     1      23.295   5.388  51.896  1.00  0.00     0.030 A 
HETATM   17  C10 UNL     1      21.997   5.574  51.490  1.00  0.00     0.032 A 
HETATM   18  C11 UNL     1      21.563   6.690  50.813  1.00  0.00     0.044 A 
HETATM   19  C12 UNL     1      22.445   7.703  50.502  1.00  0.00     0.116 A 
HETATM   20  F1  UNL     1      22.085   8.828  49.838  1.00  0.00    -0.206 F 
HETATM   21  C13 UNL     1      23.745   7.504  50.917  1.00  0.00     0.044 A 
HETATM   22  C14 UNL     1      24.184   6.389  51.595  1.00  0.00     0.032 A 
ENDBRANCH  14  16
ENDBRANCH   7  14
BRANCH   1  23
HETATM   23  O2  UNL     1      28.066   2.403  52.611  1.00  0.00    -0.346 OA
BRANCH  23  24
HETATM   24  C3  UNL     1      28.598   2.164  53.888  1.00  0.00     0.201 C 
BRANCH  24  25
HETATM   25  C2  UNL     1      29.449   0.894  53.754  1.00  0.00     0.193 C 
BRANCH  25  26
HETATM   26  O1  UNL     1      28.740  -0.176  54.252  1.00  0.00    -0.394 OA
HETATM   27  C1  UNL     1      28.752  -1.259  53.379  1.00  0.00     0.201 C 
ENDBRANCH  25  26
ENDBRANCH  24  25
ENDBRANCH  23  24
ENDBRANCH   1  23
TORSDOF 6
ENDMDL
MODEL 2
REMARK VINA RESULT:      -7.1      3.485      5.381
REMARK  6 active torsions:
REMARK  status: ('A' for Active; 'I' for Inactive)
REMARK    1  A    between atoms: O1_2  and  C2_3 
REMARK    2  A    between atoms: C2_3  and  C3_4 
REMARK    3  A    between atoms: C3_4  and  O2_5 
REMARK    4  A    between atoms: O2_5  and  C4_6 
REMARK    5  A    between atoms: C8_12  and  N3_13 
REMARK    6  A    between atoms: N3_13  and  C9_14 
ROOT
HETATM    1  C4  UNL     1      25.090   0.265  52.843  1.00  0.00     0.106 C 
HETATM    2  C5  UNL     1      25.276   1.206  51.880  1.00  0.00     0.072 C 
HETATM    3  C6  UNL     1      24.082   2.043  51.944  1.00  0.00     0.096 A 
HETATM    4  N1  UNL     1      24.007   3.308  51.611  1.00  0.00    -0.242 NA
HETATM    5  C7  UNL     1      22.724   3.862  51.804  1.00  0.00     0.231 A 
HETATM    6  N2  UNL     1      21.969   2.879  52.281  1.00  0.00    -0.237 NA
HETATM    7  C8  UNL     1      22.743   1.728  52.374  1.00  0.00     0.224 A 
HETATM    8  C15 UNL     1      22.697   0.798  53.465  1.00  0.00     0.140 C 
HETATM    9  C16 UNL     1      23.844   0.088  53.642  1.00  0.00     0.136 C 
HETATM   10  O3  UNL     1      23.955  -0.894  54.614  1.00  0.00    -0.344 OA
HETATM   11  C17 UNL     1      22.826  -1.673  55.032  1.00  0.00     0.202 C 
HETATM   12  C18 UNL     1      21.540  -0.925  54.729  1.00  0.00     0.202 C 
HETATM   13  O4  UNL     1      21.801   0.418  54.403  1.00  0.00    -0.346 OA
ENDROOT
BRANCH   7  14
HETATM   14  N3  UNL     1      22.185   0.832  51.173  1.00  0.00    -0.351 N 
HETATM   15  H10 UNL     1      22.871   0.275  50.622  1.00  0.00     0.163 HD
BRANCH  14  16
HETATM   16  C9  UNL     1      20.801   0.797  50.872  1.00  0.00     0.030 A 
HETATM   17  C10 UNL     1      19.808   0.156  51.569  1.00  0.00     0.032 A 
HETATM   18  C11 UNL     1      18.485   0.162  51.190  1.00  0.00     0.044 A 
HETATM   19  C12 UNL     1      18.089   0.836  50.054  1.00  0.00     0.116 A 
HETATM   20  F1  UNL     1      16.805   0.883  49.624  1.00  0.00    -0.206 F 
HETATM   21  C13 UNL     1      19.097   1.477  49.365  1.00  0.00     0.044 A 
HETATM   22  C14 UNL     1      20.421   1.474  49.740  1.00  0.00     0.032 A 
ENDBRANCH  14  16
ENDBRANCH   7  14
BRANCH   1  23
HETATM   23  O2  UNL     1      26.189  -0.610  52.983  1.00  0.00    -0.346 OA
BRANCH  23  24
HETATM   24  C3  UNL     1      27.511  -0.169  53.158  1.00  0.00     0.201 C 
BRANCH  24  25
HETATM   25  C2  UNL     1      27.625   0.229  54.636  1.00  0.00     0.193 C 
BRANCH  25  26
HETATM   26  O1  UNL     1      28.522   1.266  54.755  1.00  0.00    -0.394 OA
HETATM   27  C1  UNL     1      28.511   2.094  53.636  1.00  0.00     0.201 C 
ENDBRANCH  25  26
ENDBRANCH  24  25
ENDBRANCH  23  24
ENDBRANCH   1  23
TORSDOF 6
ENDMDL
MODEL 3
REMARK VINA RESULT:      -7.1      4.072      6.078
REMARK  6 active torsions:
REMARK  status: ('A' for Active; 'I' for Inactive)
REMARK    1  A    between atoms: O1_2  and  C2_3 
REMARK    2  A    between atoms: C2_3  and  C3_4 
REMARK    3  A    between atoms: C3_4  and  O2_5 
REMARK    4  A    between atoms: O2_5  and  C4_6 
REMARK    5  A    between atoms: C8_12  and  N3_13 
REMARK    6  A    between atoms: N3_13  and  C9_14 
ROOT
HETATM    1  C4  UNL     1      24.062   0.940  52.421  1.00  0.00     0.106 C 
HETATM    2  C5  UNL     1      23.805   1.920  51.514  1.00  0.00     0.072 C 
HETATM    3  C6  UNL     1      22.471   2.403  51.861  1.00  0.00     0.096 A 
HETATM    4  N1  UNL     1      22.007   3.609  51.644  1.00  0.00    -0.242 NA
HETATM    5  C7  UNL     1      20.688   3.792  52.111  1.00  0.00     0.231 A 
HETATM    6  N2  UNL     1      20.324   2.631  52.643  1.00  0.00    -0.237 NA
HETATM    7  C8  UNL     1      21.372   1.728  52.503  1.00  0.00     0.224 A 
HETATM    8  C15 UNL     1      21.785   0.794  53.511  1.00  0.00     0.140 C 
HETATM    9  C16 UNL     1      23.088   0.415  53.418  1.00  0.00     0.136 C 
HETATM   10  O3  UNL     1      23.640  -0.525  54.276  1.00  0.00    -0.344 OA
HETATM   11  C17 UNL     1      22.857  -1.589  54.834  1.00  0.00     0.202 C 
HETATM   12  C18 UNL     1      21.387  -1.207  54.830  1.00  0.00     0.202 C 
HETATM   13  O4  UNL     1      21.222   0.164  54.565  1.00  0.00    -0.346 OA
ENDROOT
BRANCH   7  14
HETATM   14  N3  UNL     1      20.839   0.745  51.361  1.00  0.00    -0.351 N 
HETATM   15  H10 UNL     1      21.528   0.385  50.668  1.00  0.00     0.163 HD
BRANCH  14  16
HETATM   16  C9  UNL     1      19.473   0.375  51.297  1.00  0.00     0.030 A 
HETATM   17  C10 UNL     1      18.762  -0.363  52.209  1.00  0.00     0.032 A 
HETATM   18  C11 UNL     1      17.435  -0.691  52.054  1.00  0.00     0.044 A 
HETATM   19  C12 UNL     1      16.740  -0.277  50.936  1.00  0.00     0.116 A 
HETATM   20  F1  UNL     1      15.434  -0.564  50.721  1.00  0.00    -0.206 F 
HETATM   21  C13 UNL     1      17.468   0.465  50.030  1.00  0.00     0.044 A 
HETATM   22  C14 UNL     1      18.795   0.796  50.180  1.00  0.00     0.032 A 
ENDBRANCH  14  16
ENDBRANCH   7  14
BRANCH   1  23
HETATM   23  O2  UNL     1      25.356   0.389  52.288  1.00  0.00    -0.346 OA
BRANCH  23  24
HETATM   24  C3  UNL     1      26.533   1.145  52.410  1.00  0.00     0.201 C 
BRANCH  24  25
HETATM   25  C2  UNL     1      26.685   1.443  53.908  1.00  0.00     0.193 C 
BRANCH  25  26
HETATM   26  O1  UNL     1      27.010   0.279  54.567  1.00  0.00    -0.394 OA
HETATM   27  C1  UNL     1      28.378   0.183  54.808  1.00  0.00     0.201 C 
ENDBRANCH  25  26
ENDBRANCH  24  25
ENDBRANCH  23  24
ENDBRANCH   1  23
TORSDOF 6
ENDMDL
MODEL 4
REMARK VINA RESULT:      -6.9      3.222      4.744
REMARK  6 active torsions:
REMARK  status: ('A' for Active; 'I' for Inactive)
REMARK    1  A    between atoms: O1_2  and  C2_3 
REMARK    2  A    between atoms: C2_3  and  C3_4 
REMARK    3  A    between atoms: C3_4  and  O2_5 
REMARK    4  A    between atoms: O2_5  and  C4_6 
REMARK    5  A    between atoms: C8_12  and  N3_13 
REMARK    6  A    between atoms: N3_13  and  C9_14 
ROOT
HETATM    1  C4  UNL     1      24.623   0.636  53.426  1.00  0.00     0.106 C 
HETATM    2  C5  UNL     1      25.091   1.688  52.704  1.00  0.00     0.072 C 
HETATM    3  C6  UNL     1      23.904   2.479  52.389  1.00  0.00     0.096 A 
HETATM    4  N1  UNL     1      23.871   3.771  52.178  1.00  0.00    -0.242 NA
HETATM    5  C7  UNL     1      22.574   4.262  51.921  1.00  0.00     0.231 A 
HETATM    6  N2  UNL     1      21.767   3.210  51.976  1.00  0.00    -0.237 NA
HETATM    7  C8  UNL     1      22.528   2.078  52.243  1.00  0.00     0.224 A 
HETATM    8  C15 UNL     1      22.141   1.026  53.138  1.00  0.00     0.140 C 
HETATM    9  C16 UNL     1      23.184   0.332  53.668  1.00  0.00     0.136 C 
HETATM   10  O3  UNL     1      22.990  -0.754  54.508  1.00  0.00    -0.344 OA
HETATM   11  C17 UNL     1      21.845  -1.608  54.386  1.00  0.00     0.202 C 
HETATM   12  C18 UNL     1      20.718  -0.865  53.690  1.00  0.00     0.202 C 
HETATM   13  O4  UNL     1      20.988   0.513  53.621  1.00  0.00    -0.346 OA
ENDROOT
BRANCH   7  14
HETATM   14  N3  UNL     1      22.526   1.314  50.839  1.00  0.00    -0.351 N 
HETATM   15  H10 UNL     1      22.997   0.386  50.789  1.00  0.00     0.163 HD
BRANCH  14  16
HETATM   16  C9  UNL     1      21.902   1.881  49.701  1.00  0.00     0.030 A 
HETATM   17  C10 UNL     1      20.562   1.905  49.404  1.00  0.00     0.032 A 
HETATM   18  C11 UNL     1      20.045   2.466  48.260  1.00  0.00     0.044 A 
HETATM   19  C12 UNL     1      20.882   3.049  47.330  1.00  0.00     0.116 A 
HETATM   20  F1  UNL     1      20.440   3.619  46.184  1.00  0.00    -0.206 F 
HETATM   21  C13 UNL     1      22.224   3.019  47.643  1.00  0.00     0.044 A 
HETATM   22  C14 UNL     1      22.746   2.459  48.786  1.00  0.00     0.032 A 
ENDBRANCH  14  16
ENDBRANCH   7  14
BRANCH   1  23
HETATM   23  O2  UNL     1      25.648  -0.219  53.887  1.00  0.00    -0.346 OA
BRANCH  23  24
HETATM   24  C3  UNL     1      26.469   0.083  54.986  1.00  0.00     0.201 C 
BRANCH  24  25
HETATM   25  C2  UNL     1      27.890   0.212  54.420  1.00  0.00     0.193 C 
BRANCH  25  26
HETATM   26  O1  UNL     1      28.405   1.438  54.776  1.00  0.00    -0.394 OA
HETATM   27  C1  UNL     1      28.672   2.232  53.664  1.00  0.00     0.201 C 
ENDBRANCH  25  26
ENDBRANCH  24  25
ENDBRANCH  23  24
ENDBRANCH   1  23
TORSDOF 6
ENDMDL
MODEL 5
REMARK VINA RESULT:      -6.9      2.372      4.165
REMARK  6 active torsions:
REMARK  status: ('A' for Active; 'I' for Inactive)
REMARK    1  A    between atoms: O1_2  and  C2_3 
REMARK    2  A    between atoms: C2_3  and  C3_4 
REMARK    3  A    between atoms: C3_4  and  O2_5 
REMARK    4  A    between atoms: O2_5  and  C4_6 
REMARK    5  A    between atoms: C8_12  and  N3_13 
REMARK    6  A    between atoms: N3_13  and  C9_14 
ROOT
HETATM    1  C4  UNL     1      24.035   0.785  52.684  1.00  0.00     0.106 C 
HETATM    2  C5  UNL     1      22.982   1.248  51.959  1.00  0.00     0.072 C 
HETATM    3  C6  UNL     1      23.580   2.119  50.952  1.00  0.00     0.096 A 
HETATM    4  N1  UNL     1      23.088   2.378  49.765  1.00  0.00    -0.242 NA
HETATM    5  C7  UNL     1      23.902   3.238  48.999  1.00  0.00     0.231 A 
HETATM    6  N2  UNL     1      24.952   3.523  49.760  1.00  0.00    -0.237 NA
HETATM    7  C8  UNL     1      24.804   2.878  50.983  1.00  0.00     0.224 A 
HETATM    8  C15 UNL     1      25.864   2.225  51.696  1.00  0.00     0.140 C 
HETATM    9  C16 UNL     1      25.446   1.236  52.532  1.00  0.00     0.136 C 
HETATM   10  O3  UNL     1      26.332   0.539  53.340  1.00  0.00    -0.344 OA
HETATM   11  C17 UNL     1      27.523   1.148  53.856  1.00  0.00     0.202 C 
HETATM   12  C18 UNL     1      27.922   2.325  52.984  1.00  0.00     0.202 C 
HETATM   13  O4  UNL     1      27.209   2.320  51.771  1.00  0.00    -0.346 OA
ENDROOT
BRANCH   7  14
HETATM   14  N3  UNL     1      24.452   4.082  51.974  1.00  0.00    -0.351 N 
HETATM   15  H10 UNL     1      24.787   4.016  52.958  1.00  0.00     0.163 HD
BRANCH  14  16
HETATM   16  C9  UNL     1      23.710   5.202  51.526  1.00  0.00     0.030 A 
HETATM   17  C10 UNL     1      22.345   5.342  51.490  1.00  0.00     0.032 A 
HETATM   18  C11 UNL     1      21.707   6.466  51.019  1.00  0.00     0.044 A 
HETATM   19  C12 UNL     1      22.439   7.536  50.546  1.00  0.00     0.116 A 
HETATM   20  F1  UNL     1      21.875   8.672  50.068  1.00  0.00    -0.206 F 
HETATM   21  C13 UNL     1      23.808   7.381  50.589  1.00  0.00     0.044 A 
HETATM   22  C14 UNL     1      24.451   6.259  51.060  1.00  0.00     0.032 A 
ENDBRANCH  14  16
ENDBRANCH   7  14
BRANCH   1  23
HETATM   23  O2  UNL     1      23.657  -0.143  53.679  1.00  0.00    -0.346 OA
BRANCH  23  24
HETATM   24  C3  UNL     1      22.584  -1.036  53.535  1.00  0.00     0.201 C 
BRANCH  24  25
HETATM   25  C2  UNL     1      21.731  -0.870  54.800  1.00  0.00     0.193 C 
BRANCH  25  26
HETATM   26  O1  UNL     1      20.783   0.103  54.579  1.00  0.00    -0.394 OA
HETATM   27  C1  UNL     1      19.922  -0.237  53.539  1.00  0.00     0.201 C 
ENDBRANCH  25  26
ENDBRANCH  24  25
ENDBRANCH  23  24
ENDBRANCH   1  23
TORSDOF 6
ENDMDL
MODEL 6
REMARK VINA RESULT:      -6.8      3.480      7.351
REMARK  6 active torsions:
REMARK  status: ('A' for Active; 'I' for Inactive)
REMARK    1  A    between atoms: O1_2  and  C2_3 
REMARK    2  A    between atoms: C2_3  and  C3_4 
REMARK    3  A    between atoms: C3_4  and  O2_5 
REMARK    4  A    between atoms: O2_5  and  C4_6 
REMARK    5  A    between atoms: C8_12  and  N3_13 
REMARK    6  A    between atoms: N3_13  and  C9_14 
ROOT
HETATM    1  C4  UNL     1      22.927   5.295  50.966  1.00  0.00     0.106 C 
HETATM    2  C5  UNL     1      24.126   5.935  50.934  1.00  0.00     0.072 C 
HETATM    3  C6  UNL     1      25.054   4.956  50.374  1.00  0.00     0.096 A 
HETATM    4  N1  UNL     1      26.141   5.223  49.695  1.00  0.00    -0.242 NA
HETATM    5  C7  UNL     1      26.825   4.070  49.258  1.00  0.00     0.231 A 
HETATM    6  N2  UNL     1      26.116   3.036  49.696  1.00  0.00    -0.237 NA
HETATM    7  C8  UNL     1      25.022   3.516  50.407  1.00  0.00     0.224 A 
HETATM    8  C15 UNL     1      23.697   2.971  50.331  1.00  0.00     0.140 C 
HETATM    9  C16 UNL     1      22.712   3.857  50.638  1.00  0.00     0.136 C 
HETATM   10  O3  UNL     1      21.376   3.485  50.671  1.00  0.00    -0.344 OA
HETATM   11  C17 UNL     1      20.972   2.157  51.031  1.00  0.00     0.202 C 
HETATM   12  C18 UNL     1      22.115   1.186  50.794  1.00  0.00     0.202 C 
HETATM   13  O4  UNL     1      23.134   1.781  50.029  1.00  0.00    -0.346 OA
ENDROOT
BRANCH   7  14
HETATM   14  N3  UNL     1      25.414   3.184  51.921  1.00  0.00    -0.351 N 
HETATM   15  H10 UNL     1      25.121   3.859  52.658  1.00  0.00     0.163 HD
BRANCH  14  16
HETATM   16  C9  UNL     1      26.135   2.009  52.246  1.00  0.00     0.030 A 
HETATM   17  C10 UNL     1      25.711   0.709  52.137  1.00  0.00     0.032 A 
HETATM   18  C11 UNL     1      26.478  -0.376  52.496  1.00  0.00     0.044 A 
HETATM   19  C12 UNL     1      27.749  -0.193  52.999  1.00  0.00     0.116 A 
HETATM   20  F1  UNL     1      28.557  -1.215  53.372  1.00  0.00    -0.206 F 
HETATM   21  C13 UNL     1      28.162   1.118  53.102  1.00  0.00     0.044 A 
HETATM   22  C14 UNL     1      27.399   2.206  52.744  1.00  0.00     0.032 A 
ENDBRANCH  14  16
ENDBRANCH   7  14
BRANCH   1  23
HETATM   23  O2  UNL     1      21.873   6.117  51.420  1.00  0.00    -0.346 OA
BRANCH  23  24
HETATM   24  C3  UNL     1      21.509   7.322  50.799  1.00  0.00     0.201 C 
BRANCH  24  25
HETATM   25  C2  UNL     1      20.764   6.922  49.518  1.00  0.00     0.193 C 
BRANCH  25  26
HETATM   26  O1  UNL     1      19.479   7.412  49.575  1.00  0.00    -0.394 OA
HETATM   27  C1  UNL     1      19.441   8.794  49.419  1.00  0.00     0.201 C 
ENDBRANCH  25  26
ENDBRANCH  24  25
ENDBRANCH  23  24
ENDBRANCH   1  23
TORSDOF 6
ENDMDL
MODEL 7
REMARK VINA RESULT:      -6.7      3.143      5.896
REMARK  6 active torsions:
REMARK  status: ('A' for Active; 'I' for Inactive)
REMARK    1  A    between atoms: O1_2  and  C2_3 
REMARK    2  A    between atoms: C2_3  and  C3_4 
REMARK    3  A    between atoms: C3_4  and  O2_5 
REMARK    4  A    between atoms: O2_5  and  C4_6 
REMARK    5  A    between atoms: C8_12  and  N3_13 
REMARK    6  A    between atoms: N3_13  and  C9_14 
ROOT
HETATM    1  C4  UNL     1      25.612   3.441  49.910  1.00  0.00     0.106 C 
HETATM    2  C5  UNL     1      24.409   3.765  49.366  1.00  0.00     0.072 C 
HETATM    3  C6  UNL     1      23.477   3.744  50.489  1.00  0.00     0.096 A 
HETATM    4  N1  UNL     1      22.375   4.445  50.590  1.00  0.00    -0.242 NA
HETATM    5  C7  UNL     1      21.689   4.236  51.805  1.00  0.00     0.231 A 
HETATM    6  N2  UNL     1      22.412   3.355  52.486  1.00  0.00    -0.237 NA
HETATM    7  C8  UNL     1      23.517   2.999  51.721  1.00  0.00     0.224 A 
HETATM    8  C15 UNL     1      24.844   2.819  52.238  1.00  0.00     0.140 C 
HETATM    9  C16 UNL     1      25.830   3.014  51.321  1.00  0.00     0.136 C 
HETATM   10  O3  UNL     1      27.167   2.826  51.634  1.00  0.00    -0.344 OA
HETATM   11  C17 UNL     1      27.586   1.861  52.608  1.00  0.00     0.202 C 
HETATM   12  C18 UNL     1      26.445   1.559  53.562  1.00  0.00     0.202 C 
HETATM   13  O4  UNL     1      25.408   2.499  53.423  1.00  0.00    -0.346 OA
ENDROOT
BRANCH   7  14
HETATM   14  N3  UNL     1      23.157   1.514  51.253  1.00  0.00    -0.351 N 
HETATM   15  H10 UNL     1      23.489   1.205  50.315  1.00  0.00     0.163 HD
BRANCH  14  16
HETATM   16  C9  UNL     1      22.410   0.647  52.088  1.00  0.00     0.030 A 
HETATM   17  C10 UNL     1      21.048   0.482  52.120  1.00  0.00     0.032 A 
HETATM   18  C11 UNL     1      20.405  -0.375  52.983  1.00  0.00     0.044 A 
HETATM   19  C12 UNL     1      21.128  -1.129  53.884  1.00  0.00     0.116 A 
HETATM   20  F1  UNL     1      20.558  -1.991  54.761  1.00  0.00    -0.206 F 
HETATM   21  C13 UNL     1      22.494  -0.954  53.840  1.00  0.00     0.044 A 
HETATM   22  C14 UNL     1      23.143  -0.098  52.978  1.00  0.00     0.032 A 
ENDBRANCH  14  16
ENDBRANCH   7  14
BRANCH   1  23
HETATM   23  O2  UNL     1      26.671   3.477  48.976  1.00  0.00    -0.346 OA
BRANCH  23  24
HETATM   24  C3  UNL     1      27.581   4.542  48.880  1.00  0.00     0.201 C 
BRANCH  24  25
HETATM   25  C2  UNL     1      26.731   5.796  48.633  1.00  0.00     0.193 C 
BRANCH  25  26
HETATM   26  O1  UNL     1      27.518   6.913  48.800  1.00  0.00    -0.394 OA
HETATM   27  C1  UNL     1      28.524   6.988  47.841  1.00  0.00     0.201 C 
ENDBRANCH  25  26
ENDBRANCH  24  25
ENDBRANCH  23  24
ENDBRANCH   1  23
TORSDOF 6
ENDMDL
MODEL 8
REMARK VINA RESULT:      -6.6      3.809      7.009
REMARK  6 active torsions:
REMARK  status: ('A' for Active; 'I' for Inactive)
REMARK    1  A    between atoms: O1_2  and  C2_3 
REMARK    2  A    between atoms: C2_3  and  C3_4 
REMARK    3  A    between atoms: C3_4  and  O2_5 
REMARK    4  A    between atoms: O2_5  and  C4_6 
REMARK    5  A    between atoms: C8_12  and  N3_13 
REMARK    6  A    between atoms: N3_13  and  C9_14 
ROOT
HETATM    1  C4  UNL     1      22.076   1.180  50.417  1.00  0.00     0.106 C 
HETATM    2  C5  UNL     1      21.302   0.133  50.807  1.00  0.00     0.072 C 
HETATM    3  C6  UNL     1      21.450   0.084  52.259  1.00  0.00     0.096 A 
HETATM    4  N1  UNL     1      20.566  -0.375  53.110  1.00  0.00    -0.242 NA
HETATM    5  C7  UNL     1      20.978  -0.270  54.455  1.00  0.00     0.231 A 
HETATM    6  N2  UNL     1      22.185   0.284  54.426  1.00  0.00    -0.237 NA
HETATM    7  C8  UNL     1      22.539   0.509  53.101  1.00  0.00     0.224 A 
HETATM    8  C15 UNL     1      23.205   1.686  52.622  1.00  0.00     0.140 C 
HETATM    9  C16 UNL     1      22.978   1.961  51.309  1.00  0.00     0.136 C 
HETATM   10  O3  UNL     1      23.589   3.028  50.669  1.00  0.00    -0.344 OA
HETATM   11  C17 UNL     1      24.890   3.494  51.050  1.00  0.00     0.202 C 
HETATM   12  C18 UNL     1      25.187   3.086  52.482  1.00  0.00     0.202 C 
HETATM   13  O4  UNL     1      24.023   2.634  53.130  1.00  0.00    -0.346 OA
ENDROOT
BRANCH   7  14
HETATM   14  N3  UNL     1      23.651  -0.610  52.840  1.00  0.00    -0.351 N 
HETATM   15  H10 UNL     1      23.368  -1.463  52.313  1.00  0.00     0.163 HD
BRANCH  14  16
HETATM   16  C9  UNL     1      24.976  -0.444  53.310  1.00  0.00     0.030 A 
HETATM   17  C10 UNL     1      25.386  -0.228  54.602  1.00  0.00     0.032 A 
HETATM   18  C11 UNL     1      26.702  -0.059  54.966  1.00  0.00     0.044 A 
HETATM   19  C12 UNL     1      27.699  -0.101  54.013  1.00  0.00     0.116 A 
HETATM   20  F1  UNL     1      29.013   0.057  54.302  1.00  0.00    -0.206 F 
HETATM   21  C13 UNL     1      27.273  -0.320  52.721  1.00  0.00     0.044 A 
HETATM   22  C14 UNL     1      25.958  -0.489  52.352  1.00  0.00     0.032 A 
ENDBRANCH  14  16
ENDBRANCH   7  14
BRANCH   1  23
HETATM   23  O2  UNL     1      22.007   1.433  49.029  1.00  0.00    -0.346 OA
BRANCH  23  24
HETATM   24  C3  UNL     1      20.980   2.179  48.430  1.00  0.00     0.201 C 
BRANCH  24  25
HETATM   25  C2  UNL     1      21.682   3.265  47.604  1.00  0.00     0.193 C 
BRANCH  25  26
HETATM   26  O1  UNL     1      21.093   3.336  46.362  1.00  0.00    -0.394 OA
HETATM   27  C1  UNL     1      21.875   4.047  45.455  1.00  0.00     0.201 C 
ENDBRANCH  25  26
ENDBRANCH  24  25
ENDBRANCH  23  24
ENDBRANCH   1  23
TORSDOF 6
ENDMDL
MODEL 9
REMARK VINA RESULT:      -6.5      1.459      2.142
REMARK  6 active torsions:
REMARK  status: ('A' for Active; 'I' for Inactive)
REMARK    1  A    between atoms: O1_2  and  C2_3 
REMARK    2  A    between atoms: C2_3  and  C3_4 
REMARK    3  A    between atoms: C3_4  and  O2_5 
REMARK    4  A    between atoms: O2_5  and  C4_6 
REMARK    5  A    between atoms: C8_12  and  N3_13 
REMARK    6  A    between atoms: N3_13  and  C9_14 
ROOT
HETATM    1  C4  UNL     1      24.387   1.275  52.675  1.00  0.00     0.106 C 
HETATM    2  C5  UNL     1      23.149   1.077  53.202  1.00  0.00     0.072 C 
HETATM    3  C6  UNL     1      22.231   1.621  52.207  1.00  0.00     0.096 A 
HETATM    4  N1  UNL     1      20.996   1.234  52.003  1.00  0.00    -0.242 NA
HETATM    5  C7  UNL     1      20.359   1.927  50.952  1.00  0.00     0.231 A 
HETATM    6  N2  UNL     1      21.256   2.789  50.486  1.00  0.00    -0.237 NA
HETATM    7  C8  UNL     1      22.424   2.662  51.230  1.00  0.00     0.224 A 
HETATM    8  C15 UNL     1      23.749   2.692  50.680  1.00  0.00     0.140 C 
HETATM    9  C16 UNL     1      24.676   2.032  51.426  1.00  0.00     0.136 C 
HETATM   10  O3  UNL     1      26.017   2.009  51.072  1.00  0.00    -0.344 OA
HETATM   11  C17 UNL     1      26.633   3.099  50.374  1.00  0.00     0.202 C 
HETATM   12  C18 UNL     1      25.578   3.902  49.634  1.00  0.00     0.202 C 
HETATM   13  O4  UNL     1      24.355   3.209  49.589  1.00  0.00    -0.346 OA
ENDROOT
BRANCH   7  14
HETATM   14  N3  UNL     1      22.421   3.991  52.118  1.00  0.00    -0.351 N 
HETATM   15  H10 UNL     1      22.316   3.886  53.149  1.00  0.00     0.163 HD
BRANCH  14  16
HETATM   16  C9  UNL     1      22.558   5.267  51.520  1.00  0.00     0.030 A 
HETATM   17  C10 UNL     1      23.684   6.050  51.467  1.00  0.00     0.032 A 
HETATM   18  C11 UNL     1      23.719   7.293  50.877  1.00  0.00     0.044 A 
HETATM   19  C12 UNL     1      22.585   7.822  50.296  1.00  0.00     0.116 A 
HETATM   20  F1  UNL     1      22.550   9.037  49.699  1.00  0.00    -0.206 F 
HETATM   21  C13 UNL     1      21.463   7.023  50.357  1.00  0.00     0.044 A 
HETATM   22  C14 UNL     1      21.422   5.780  50.945  1.00  0.00     0.032 A 
ENDBRANCH  14  16
ENDBRANCH   7  14
BRANCH   1  23
HETATM   23  O2  UNL     1      25.421   0.743  53.476  1.00  0.00    -0.346 OA
BRANCH  23  24
HETATM   24  C3  UNL     1      25.813  -0.605  53.439  1.00  0.00     0.201 C 
BRANCH  24  25
HETATM   25  C2  UNL     1      27.308  -0.595  53.092  1.00  0.00     0.193 C 
BRANCH  25  26
HETATM   26  O1  UNL     1      28.031  -0.925  54.216  1.00  0.00    -0.394 OA
HETATM   27  C1  UNL     1      28.671   0.182  54.766  1.00  0.00     0.201 C 
ENDBRANCH  25  26
ENDBRANCH  24  25
ENDBRANCH  23  24
ENDBRANCH   1  23
TORSDOF 6
ENDMDL
