MODEL 1
REMARK VINA RESULT:      -6.9      0.000      0.000
REMARK  6 active torsions:
REMARK  status: ('A' for Active; 'I' for Inactive)
REMARK    1  A    between atoms: C2_2  and  C3_3 
REMARK    2  A    between atoms: C3_3  and  C4_4 
REMARK    3  A    between atoms: C14_18  and  C15_19 
REMARK    4  A    between atoms: C15_19  and  C16_20 
REMARK    5  A    between atoms: C16_20  and  S2_21 
REMARK    6  A    between atoms: S2_21  and  P1_22 
ROOT
HETATM    1  C3  UNL     1      20.068   1.114  51.504  1.00  0.00     0.140 C 
HETATM    2  N1  UNL     1      19.491   2.378  51.992  1.00  0.00    -0.363 N 
HETATM    3  C10 UNL     1      20.589   3.254  52.369  1.00  0.00     0.205 C 
HETATM    4  N2  UNL     1      21.799   3.156  51.999  1.00  0.00    -0.238 NA
HETATM    5  C11 UNL     1      22.870   4.007  52.361  1.00  0.00     0.228 C 
HETATM    6  N3  UNL     1      24.051   3.935  51.937  1.00  0.00    -0.273 NA
HETATM    7  C12 UNL     1      24.675   3.050  51.025  1.00  0.00     0.229 C 
HETATM    8  S1  UNL     1      24.712   3.628  49.306  1.00  0.00    -0.111 SA
HETATM    9  C13 UNL     1      22.981   3.647  48.766  1.00  0.00     0.000 C 
HETATM   10  C14 UNL     1      22.356   4.811  48.906  1.00  0.00    -0.063 C 
HETATM   11  C17 UNL     1      20.908   4.761  49.265  1.00  0.00     0.055 C 
HETATM   12  C18 UNL     1      20.282   3.419  49.117  1.00  0.00     0.130 C 
HETATM   13  N4  UNL     1      21.143   2.283  49.278  1.00  0.00    -0.345 N 
HETATM   14  C19 UNL     1      22.129   2.547  48.211  1.00  0.00     0.172 C 
HETATM   15  C20 UNL     1      20.894   1.358  50.312  1.00  0.00     0.253 C 
HETATM   16  O1  UNL     1      21.770   0.706  49.738  1.00  0.00    -0.270 OA
HETATM   17  H11 UNL     1      18.510   2.698  52.094  1.00  0.00     0.162 HD
ENDROOT
BRANCH   1  18
HETATM   18  C2  UNL     1      18.911   0.156  51.147  1.00  0.00     0.042 C 
HETATM   19  C1  UNL     1      17.942   0.847  50.225  1.00  0.00     0.008 C 
ENDBRANCH   1  18
BRANCH   1  20
HETATM   20  C4  UNL     1      20.897   0.468  52.541  1.00  0.00    -0.021 A 
HETATM   21  C5  UNL     1      22.153  -0.006  52.312  1.00  0.00     0.010 A 
HETATM   22  C6  UNL     1      22.975  -0.614  53.237  1.00  0.00     0.001 A 
HETATM   23  C7  UNL     1      22.490  -0.767  54.537  1.00  0.00     0.000 A 
HETATM   24  C8  UNL     1      21.210  -0.298  54.819  1.00  0.00     0.001 A 
HETATM   25  C9  UNL     1      20.447   0.302  53.834  1.00  0.00     0.010 A 
ENDBRANCH   1  20
BRANCH  10  26
HETATM   26  C15 UNL     1      23.034   6.125  48.727  1.00  0.00     0.046 C 
BRANCH  26  27
HETATM   27  C16 UNL     1      22.571   7.174  49.708  1.00  0.00     0.083 C 
BRANCH  27  28
HETATM   28  S2  UNL     1      23.954   7.469  50.845  1.00  0.00    -0.143 SA
BRANCH  28  29
HETATM   29  P1  UNL     1      25.836   7.488  49.783  1.00  0.00    -0.077 P 
HETATM   30  H20 UNL     1      26.341   6.133  49.778  1.00  0.00     0.066 HD
HETATM   31  H21 UNL     1      26.751   8.333  50.534  1.00  0.00     0.066 HD
ENDBRANCH  28  29
ENDBRANCH  27  28
ENDBRANCH  26  27
ENDBRANCH  10  26
TORSDOF 6
ENDMDL
MODEL 2
REMARK VINA RESULT:      -6.7      1.815      3.969
REMARK  6 active torsions:
REMARK  status: ('A' for Active; 'I' for Inactive)
REMARK    1  A    between atoms: C2_2  and  C3_3 
REMARK    2  A    between atoms: C3_3  and  C4_4 
REMARK    3  A    between atoms: C14_18  and  C15_19 
REMARK    4  A    between atoms: C15_19  and  C16_20 
REMARK    5  A    between atoms: C16_20  and  S2_21 
REMARK    6  A    between atoms: S2_21  and  P1_22 
ROOT
HETATM    1  C3  UNL     1      20.503   0.832  52.745  1.00  0.00     0.140 C 
HETATM    2  N1  UNL     1      21.480  -0.051  52.086  1.00  0.00    -0.363 N 
HETATM    3  C10 UNL     1      21.515   0.298  50.674  1.00  0.00     0.205 C 
HETATM    4  N2  UNL     1      21.116   1.383  50.151  1.00  0.00    -0.238 NA
HETATM    5  C11 UNL     1      21.150   1.729  48.780  1.00  0.00     0.228 C 
HETATM    6  N3  UNL     1      20.809   2.832  48.283  1.00  0.00    -0.273 NA
HETATM    7  C12 UNL     1      20.310   4.019  48.873  1.00  0.00     0.229 C 
HETATM    8  S1  UNL     1      21.572   5.257  49.282  1.00  0.00    -0.111 SA
HETATM    9  C13 UNL     1      22.568   4.510  50.602  1.00  0.00     0.000 C 
HETATM   10  C14 UNL     1      23.657   3.865  50.195  1.00  0.00    -0.063 C 
HETATM   11  C17 UNL     1      24.045   2.647  50.965  1.00  0.00     0.055 C 
HETATM   12  C18 UNL     1      23.345   2.490  52.268  1.00  0.00     0.130 C 
HETATM   13  N4  UNL     1      22.034   3.065  52.370  1.00  0.00    -0.345 N 
HETATM   14  C19 UNL     1      22.345   4.480  52.083  1.00  0.00     0.172 C 
HETATM   15  C20 UNL     1      20.925   2.235  52.628  1.00  0.00     0.253 C 
HETATM   16  O1  UNL     1      20.337   3.312  52.757  1.00  0.00    -0.270 OA
HETATM   17  H11 UNL     1      22.084  -0.811  52.450  1.00  0.00     0.162 HD
ENDROOT
BRANCH   1  18
HETATM   18  C2  UNL     1      20.420   0.437  54.236  1.00  0.00     0.042 C 
HETATM   19  C1  UNL     1      21.517  -0.539  54.569  1.00  0.00     0.008 C 
ENDBRANCH   1  18
BRANCH   1  20
HETATM   20  C4  UNL     1      19.159   0.681  52.153  1.00  0.00    -0.021 A 
HETATM   21  C5  UNL     1      18.482   1.700  51.556  1.00  0.00     0.010 A 
HETATM   22  C6  UNL     1      17.230   1.622  50.985  1.00  0.00     0.001 A 
HETATM   23  C7  UNL     1      16.579   0.387  51.011  1.00  0.00     0.000 A 
HETATM   24  C8  UNL     1      17.232  -0.686  51.611  1.00  0.00     0.001 A 
HETATM   25  C9  UNL     1      18.490  -0.525  52.164  1.00  0.00     0.010 A 
ENDBRANCH   1  20
BRANCH  10  26
HETATM   26  C15 UNL     1      24.473   4.302  49.028  1.00  0.00     0.046 C 
BRANCH  26  27
HETATM   27  C16 UNL     1      25.939   4.460  49.352  1.00  0.00     0.083 C 
BRANCH  27  28
HETATM   28  S2  UNL     1      26.374   6.179  48.966  1.00  0.00    -0.143 SA
BRANCH  28  29
HETATM   29  P1  UNL     1      25.155   7.556  50.100  1.00  0.00    -0.077 P 
HETATM   30  H20 UNL     1      25.912   8.780  50.248  1.00  0.00     0.066 HD
HETATM   31  H21 UNL     1      24.942   6.969  51.413  1.00  0.00     0.066 HD
ENDBRANCH  28  29
ENDBRANCH  27  28
ENDBRANCH  26  27
ENDBRANCH  10  26
TORSDOF 6
ENDMDL
MODEL 3
REMARK VINA RESULT:      -6.2      3.397      6.610
REMARK  6 active torsions:
REMARK  status: ('A' for Active; 'I' for Inactive)
REMARK    1  A    between atoms: C2_2  and  C3_3 
REMARK    2  A    between atoms: C3_3  and  C4_4 
REMARK    3  A    between atoms: C14_18  and  C15_19 
REMARK    4  A    between atoms: C15_19  and  C16_20 
REMARK    5  A    between atoms: C16_20  and  S2_21 
REMARK    6  A    between atoms: S2_21  and  P1_22 
ROOT
HETATM    1  C3  UNL     1      24.830   3.903  50.300  1.00  0.00     0.140 C 
HETATM    2  N1  UNL     1      24.584   4.002  51.749  1.00  0.00    -0.363 N 
HETATM    3  C10 UNL     1      23.252   4.556  51.938  1.00  0.00     0.205 C 
HETATM    4  N2  UNL     1      22.314   4.584  51.084  1.00  0.00    -0.238 NA
HETATM    5  C11 UNL     1      21.016   5.119  51.264  1.00  0.00     0.228 C 
HETATM    6  N3  UNL     1      20.076   5.084  50.430  1.00  0.00    -0.273 NA
HETATM    7  C12 UNL     1      19.992   4.542  49.124  1.00  0.00     0.229 C 
HETATM    8  S1  UNL     1      19.351   2.847  49.042  1.00  0.00    -0.111 SA
HETATM    9  C13 UNL     1      20.606   1.818  49.851  1.00  0.00     0.000 C 
HETATM   10  C14 UNL     1      20.404   1.589  51.144  1.00  0.00    -0.063 C 
HETATM   11  C17 UNL     1      21.617   1.502  52.010  1.00  0.00     0.055 C 
HETATM   12  C18 UNL     1      22.899   1.375  51.267  1.00  0.00     0.130 C 
HETATM   13  N4  UNL     1      22.945   1.953  49.955  1.00  0.00    -0.345 N 
HETATM   14  C19 UNL     1      21.855   1.203  49.299  1.00  0.00     0.172 C 
HETATM   15  C20 UNL     1      23.858   2.991  49.680  1.00  0.00     0.253 C 
HETATM   16  O1  UNL     1      23.487   2.808  48.517  1.00  0.00    -0.270 OA
HETATM   17  H11 UNL     1      25.168   3.758  52.569  1.00  0.00     0.162 HD
ENDROOT
BRANCH   1  18
HETATM   18  C2  UNL     1      26.261   3.362  50.086  1.00  0.00     0.042 C 
HETATM   19  C1  UNL     1      26.566   2.304  51.112  1.00  0.00     0.008 C 
ENDBRANCH   1  18
BRANCH   1  20
HETATM   20  C4  UNL     1      24.734   5.225  49.649  1.00  0.00    -0.021 A 
HETATM   21  C5  UNL     1      23.958   5.471  48.557  1.00  0.00     0.010 A 
HETATM   22  C6  UNL     1      23.826   6.680  47.908  1.00  0.00     0.001 A 
HETATM   23  C7  UNL     1      24.549   7.767  48.404  1.00  0.00     0.000 A 
HETATM   24  C8  UNL     1      25.357   7.564  49.518  1.00  0.00     0.001 A 
HETATM   25  C9  UNL     1      25.436   6.318  50.114  1.00  0.00     0.010 A 
ENDBRANCH   1  20
BRANCH  10  26
HETATM   26  C15 UNL     1      19.049   1.428  51.740  1.00  0.00     0.046 C 
BRANCH  26  27
HETATM   27  C16 UNL     1      18.570  -0.003  51.755  1.00  0.00     0.083 C 
BRANCH  27  28
HETATM   28  S2  UNL     1      17.059  -0.056  50.751  1.00  0.00    -0.143 SA
BRANCH  28  29
HETATM   29  P1  UNL     1      15.736   1.574  51.263  1.00  0.00    -0.077 P 
HETATM   30  H20 UNL     1      16.458   2.449  52.160  1.00  0.00     0.066 HD
HETATM   31  H21 UNL     1      14.598   1.006  51.968  1.00  0.00     0.066 HD
ENDBRANCH  28  29
ENDBRANCH  27  28
ENDBRANCH  26  27
ENDBRANCH  10  26
TORSDOF 6
ENDMDL
MODEL 4
REMARK VINA RESULT:      -6.2      2.395      4.436
REMARK  6 active torsions:
REMARK  status: ('A' for Active; 'I' for Inactive)
REMARK    1  A    between atoms: C2_2  and  C3_3 
REMARK    2  A    between atoms: C3_3  and  C4_4 
REMARK    3  A    between atoms: C14_18  and  C15_19 
REMARK    4  A    between atoms: C15_19  and  C16_20 
REMARK    5  A    between atoms: C16_20  and  S2_21 
REMARK    6  A    between atoms: S2_21  and  P1_22 
ROOT
HETATM    1  C3  UNL     1      23.752   2.954  51.836  1.00  0.00     0.140 C 
HETATM    2  N1  UNL     1      24.500   2.456  50.669  1.00  0.00    -0.363 N 
HETATM    3  C10 UNL     1      23.713   2.741  49.480  1.00  0.00     0.205 C 
HETATM    4  N2  UNL     1      22.776   3.590  49.376  1.00  0.00    -0.238 NA
HETATM    5  C11 UNL     1      22.009   3.874  48.221  1.00  0.00     0.228 C 
HETATM    6  N3  UNL     1      21.125   4.761  48.116  1.00  0.00    -0.273 NA
HETATM    7  C12 UNL     1      20.626   5.711  49.040  1.00  0.00     0.229 C 
HETATM    8  S1  UNL     1      21.435   7.334  48.979  1.00  0.00    -0.111 SA
HETATM    9  C13 UNL     1      23.135   7.045  49.540  1.00  0.00     0.000 C 
HETATM   10  C14 UNL     1      24.021   6.820  48.575  1.00  0.00    -0.063 C 
HETATM   11  C17 UNL     1      25.116   5.852  48.878  1.00  0.00     0.055 C 
HETATM   12  C18 UNL     1      25.251   5.503  50.318  1.00  0.00     0.130 C 
HETATM   13  N4  UNL     1      24.059   5.572  51.113  1.00  0.00    -0.345 N 
HETATM   14  C19 UNL     1      23.701   6.992  50.926  1.00  0.00     0.172 C 
HETATM   15  C20 UNL     1      23.570   4.409  51.742  1.00  0.00     0.253 C 
HETATM   16  O1  UNL     1      22.807   5.208  52.292  1.00  0.00    -0.270 OA
HETATM   17  H11 UNL     1      25.417   1.978  50.586  1.00  0.00     0.162 HD
ENDROOT
BRANCH   1  18
HETATM   18  C2  UNL     1      24.555   2.612  53.110  1.00  0.00     0.042 C 
HETATM   19  C1  UNL     1      25.817   1.880  52.738  1.00  0.00     0.008 C 
ENDBRANCH   1  18
BRANCH   1  20
HETATM   20  C4  UNL     1      22.428   2.308  51.938  1.00  0.00    -0.021 A 
HETATM   21  C5  UNL     1      21.278   2.989  52.198  1.00  0.00     0.010 A 
HETATM   22  C6  UNL     1      20.015   2.444  52.303  1.00  0.00     0.001 A 
HETATM   23  C7  UNL     1      19.885   1.065  52.128  1.00  0.00     0.000 A 
HETATM   24  C8  UNL     1      21.034   0.326  51.861  1.00  0.00     0.001 A 
HETATM   25  C9  UNL     1      22.266   0.948  51.772  1.00  0.00     0.010 A 
ENDBRANCH   1  20
BRANCH  10  26
HETATM   26  C15 UNL     1      23.954   7.476  47.240  1.00  0.00     0.046 C 
BRANCH  26  27
HETATM   27  C16 UNL     1      25.226   8.197  46.865  1.00  0.00     0.083 C 
BRANCH  27  28
HETATM   28  S2  UNL     1      25.353   9.632  47.969  1.00  0.00    -0.143 SA
BRANCH  28  29
HETATM   29  P1  UNL     1      26.889   9.326  49.457  1.00  0.00    -0.077 P 
HETATM   30  H20 UNL     1      26.321   8.495  50.497  1.00  0.00     0.066 HD
HETATM   31  H21 UNL     1      27.217  10.628  50.018  1.00  0.00     0.066 HD
ENDBRANCH  28  29
ENDBRANCH  27  28
ENDBRANCH  26  27
ENDBRANCH  10  26
TORSDOF 6
ENDMDL
MODEL 5
REMARK VINA RESULT:      -6.2      2.579      3.674
REMARK  6 active torsions:
REMARK  status: ('A' for Active; 'I' for Inactive)
REMARK    1  A    between atoms: C2_2  and  C3_3 
REMARK    2  A    between atoms: C3_3  and  C4_4 
REMARK    3  A    between atoms: C14_18  and  C15_19 
REMARK    4  A    between atoms: C15_19  and  C16_20 
REMARK    5  A    between atoms: C16_20  and  S2_21 
REMARK    6  A    between atoms: S2_21  and  P1_22 
ROOT
HETATM    1  C3  UNL     1      22.980   2.447  51.295  1.00  0.00     0.140 C 
HETATM    2  N1  UNL     1      22.138   3.261  52.189  1.00  0.00    -0.363 N 
HETATM    3  C10 UNL     1      22.737   4.582  52.286  1.00  0.00     0.205 C 
HETATM    4  N2  UNL     1      23.572   5.098  51.481  1.00  0.00    -0.238 NA
HETATM    5  C11 UNL     1      24.156   6.383  51.569  1.00  0.00     0.228 C 
HETATM    6  N3  UNL     1      24.934   6.905  50.730  1.00  0.00    -0.273 NA
HETATM    7  C12 UNL     1      25.457   6.428  49.504  1.00  0.00     0.229 C 
HETATM    8  S1  UNL     1      24.501   6.894  48.034  1.00  0.00    -0.111 SA
HETATM    9  C13 UNL     1      22.920   6.019  48.192  1.00  0.00     0.000 C 
HETATM   10  C14 UNL     1      21.943   6.713  48.768  1.00  0.00    -0.063 C 
HETATM   11  C17 UNL     1      20.989   5.949  49.625  1.00  0.00     0.055 C 
HETATM   12  C18 UNL     1      21.071   4.471  49.474  1.00  0.00     0.130 C 
HETATM   13  N4  UNL     1      22.343   3.931  49.089  1.00  0.00    -0.345 N 
HETATM   14  C19 UNL     1      22.543   4.624  47.800  1.00  0.00     0.172 C 
HETATM   15  C20 UNL     1      23.013   3.039  49.949  1.00  0.00     0.253 C 
HETATM   16  O1  UNL     1      23.763   2.901  48.980  1.00  0.00    -0.270 OA
HETATM   17  H11 UNL     1      21.267   3.044  52.707  1.00  0.00     0.162 HD
ENDROOT
BRANCH   1  18
HETATM   18  C2  UNL     1      22.381   1.026  51.223  1.00  0.00     0.042 C 
HETATM   19  C1  UNL     1      20.884   1.108  51.086  1.00  0.00     0.008 C 
ENDBRANCH   1  18
BRANCH   1  20
HETATM   20  C4  UNL     1      24.360   2.341  51.809  1.00  0.00    -0.021 A 
HETATM   21  C5  UNL     1      25.466   2.520  51.036  1.00  0.00     0.010 A 
HETATM   22  C6  UNL     1      26.776   2.437  51.457  1.00  0.00     0.001 A 
HETATM   23  C7  UNL     1      27.010   2.140  52.801  1.00  0.00     0.000 A 
HETATM   24  C8  UNL     1      25.909   1.947  53.631  1.00  0.00     0.001 A 
HETATM   25  C9  UNL     1      24.624   2.049  53.131  1.00  0.00     0.010 A 
ENDBRANCH   1  20
BRANCH  10  26
HETATM   26  C15 UNL     1      21.779   8.183  48.597  1.00  0.00     0.046 C 
BRANCH  26  27
HETATM   27  C16 UNL     1      21.133   8.562  47.287  1.00  0.00     0.083 C 
BRANCH  27  28
HETATM   28  S2  UNL     1      19.463   9.151  47.682  1.00  0.00    -0.143 SA
BRANCH  28  29
HETATM   29  P1  UNL     1      19.300   9.664  49.774  1.00  0.00    -0.077 P 
HETATM   30  H20 UNL     1      19.900   8.586  50.530  1.00  0.00     0.066 HD
HETATM   31  H21 UNL     1      17.883   9.737  50.095  1.00  0.00     0.066 HD
ENDBRANCH  28  29
ENDBRANCH  27  28
ENDBRANCH  26  27
ENDBRANCH  10  26
TORSDOF 6
ENDMDL
MODEL 6
REMARK VINA RESULT:      -6.2      9.386     12.629
REMARK  6 active torsions:
REMARK  status: ('A' for Active; 'I' for Inactive)
REMARK    1  A    between atoms: C2_2  and  C3_3 
REMARK    2  A    between atoms: C3_3  and  C4_4 
REMARK    3  A    between atoms: C14_18  and  C15_19 
REMARK    4  A    between atoms: C15_19  and  C16_20 
REMARK    5  A    between atoms: C16_20  and  S2_21 
REMARK    6  A    between atoms: S2_21  and  P1_22 
ROOT
HETATM    1  C3  UNL     1      29.395   8.226  47.920  1.00  0.00     0.140 C 
HETATM    2  N1  UNL     1      29.274   7.662  46.566  1.00  0.00    -0.363 N 
HETATM    3  C10 UNL     1      30.519   7.922  45.861  1.00  0.00     0.205 C 
HETATM    4  N2  UNL     1      31.640   8.207  46.382  1.00  0.00    -0.238 NA
HETATM    5  C11 UNL     1      32.855   8.458  45.702  1.00  0.00     0.228 C 
HETATM    6  N3  UNL     1      33.973   8.679  46.234  1.00  0.00    -0.273 NA
HETATM    7  C12 UNL     1      34.376   8.747  47.589  1.00  0.00     0.229 C 
HETATM    8  S1  UNL     1      35.009   7.193  48.277  1.00  0.00    -0.111 SA
HETATM    9  C13 UNL     1      33.587   6.067  48.311  1.00  0.00     0.000 C 
HETATM   10  C14 UNL     1      33.460   5.281  47.247  1.00  0.00    -0.063 C 
HETATM   11  C17 UNL     1      32.070   4.970  46.802  1.00  0.00     0.055 C 
HETATM   12  C18 UNL     1      31.011   5.325  47.786  1.00  0.00     0.130 C 
HETATM   13  N4  UNL     1      31.297   6.414  48.676  1.00  0.00    -0.345 N 
HETATM   14  C19 UNL     1      32.511   5.899  49.340  1.00  0.00     0.172 C 
HETATM   15  C20 UNL     1      30.485   7.566  48.652  1.00  0.00     0.253 C 
HETATM   16  O1  UNL     1      31.133   7.861  49.659  1.00  0.00    -0.270 OA
HETATM   17  H11 UNL     1      28.502   7.156  46.092  1.00  0.00     0.162 HD
ENDROOT
BRANCH   1  18
HETATM   18  C2  UNL     1      28.059   8.000  48.663  1.00  0.00     0.042 C 
HETATM   19  C1  UNL     1      27.495   6.652  48.301  1.00  0.00     0.008 C 
ENDBRANCH   1  18
BRANCH   1  20
HETATM   20  C4  UNL     1      29.656   9.679  47.874  1.00  0.00    -0.021 A 
HETATM   21  C5  UNL     1      30.602  10.297  48.633  1.00  0.00     0.010 A 
HETATM   22  C6  UNL     1      30.894  11.645  48.632  1.00  0.00     0.001 A 
HETATM   23  C7  UNL     1      30.159  12.469  47.778  1.00  0.00     0.000 A 
HETATM   24  C8  UNL     1      29.179  11.882  46.982  1.00  0.00     0.001 A 
HETATM   25  C9  UNL     1      28.946  10.520  47.041  1.00  0.00     0.010 A 
ENDBRANCH   1  20
BRANCH  10  26
HETATM   26  C15 UNL     1      34.624   4.723  46.504  1.00  0.00     0.046 C 
BRANCH  26  27
HETATM   27  C16 UNL     1      34.241   4.078  45.194  1.00  0.00     0.083 C 
BRANCH  27  28
HETATM   28  S2  UNL     1      34.420   5.353  43.915  1.00  0.00    -0.143 SA
BRANCH  28  29
HETATM   29  P1  UNL     1      33.563   4.694  42.044  1.00  0.00    -0.077 P 
HETATM   30  H20 UNL     1      32.129   4.865  42.144  1.00  0.00     0.066 HD
HETATM   31  H21 UNL     1      33.863   3.278  41.903  1.00  0.00     0.066 HD
ENDBRANCH  28  29
ENDBRANCH  27  28
ENDBRANCH  26  27
ENDBRANCH  10  26
TORSDOF 6
ENDMDL
MODEL 7
REMARK VINA RESULT:      -6.1      2.063      2.215
REMARK  6 active torsions:
REMARK  status: ('A' for Active; 'I' for Inactive)
REMARK    1  A    between atoms: C2_2  and  C3_3 
REMARK    2  A    between atoms: C3_3  and  C4_4 
REMARK    3  A    between atoms: C14_18  and  C15_19 
REMARK    4  A    between atoms: C15_19  and  C16_20 
REMARK    5  A    between atoms: C16_20  and  S2_21 
REMARK    6  A    between atoms: S2_21  and  P1_22 
ROOT
HETATM    1  C3  UNL     1      20.984   1.485  51.261  1.00  0.00     0.140 C 
HETATM    2  N1  UNL     1      20.179   2.415  52.071  1.00  0.00    -0.363 N 
HETATM    3  C10 UNL     1      21.023   3.545  52.425  1.00  0.00     0.205 C 
HETATM    4  N2  UNL     1      22.098   3.898  51.850  1.00  0.00    -0.238 NA
HETATM    5  C11 UNL     1      22.922   4.997  52.188  1.00  0.00     0.228 C 
HETATM    6  N3  UNL     1      23.951   5.372  51.571  1.00  0.00    -0.273 NA
HETATM    7  C12 UNL     1      24.595   4.867  50.415  1.00  0.00     0.229 C 
HETATM    8  S1  UNL     1      24.087   5.646  48.858  1.00  0.00    -0.111 SA
HETATM    9  C13 UNL     1      22.354   5.167  48.623  1.00  0.00     0.000 C 
HETATM   10  C14 UNL     1      21.458   6.034  49.085  1.00  0.00    -0.063 C 
HETATM   11  C17 UNL     1      20.204   5.466  49.660  1.00  0.00     0.055 C 
HETATM   12  C18 UNL     1      19.985   4.025  49.362  1.00  0.00     0.130 C 
HETATM   13  N4  UNL     1      21.157   3.223  49.157  1.00  0.00    -0.345 N 
HETATM   14  C19 UNL     1      21.765   3.932  48.013  1.00  0.00     0.172 C 
HETATM   15  C20 UNL     1      21.422   2.140  50.020  1.00  0.00     0.253 C 
HETATM   16  O1  UNL     1      22.305   1.892  49.195  1.00  0.00    -0.270 OA
HETATM   17  H11 UNL     1      19.194   2.379  52.393  1.00  0.00     0.162 HD
ENDROOT
BRANCH   1  18
HETATM   18  C2  UNL     1      20.112   0.257  50.920  1.00  0.00     0.042 C 
HETATM   19  C1  UNL     1      18.662   0.575  51.168  1.00  0.00     0.008 C 
ENDBRANCH   1  18
BRANCH   1  20
HETATM   20  C4  UNL     1      22.171   1.017  52.004  1.00  0.00    -0.021 A 
HETATM   21  C5  UNL     1      23.448   1.336  51.658  1.00  0.00     0.010 A 
HETATM   22  C6  UNL     1      24.594   0.932  52.311  1.00  0.00     0.001 A 
HETATM   23  C7  UNL     1      24.448   0.119  53.437  1.00  0.00     0.000 A 
HETATM   24  C8  UNL     1      23.161  -0.235  53.829  1.00  0.00     0.001 A 
HETATM   25  C9  UNL     1      22.060   0.212  53.119  1.00  0.00     0.010 A 
ENDBRANCH   1  20
BRANCH  10  26
HETATM   26  C15 UNL     1      21.663   7.509  49.054  1.00  0.00     0.046 C 
BRANCH  26  27
HETATM   27  C16 UNL     1      20.716   8.261  49.957  1.00  0.00     0.083 C 
BRANCH  27  28
HETATM   28  S2  UNL     1      19.655   9.264  48.878  1.00  0.00    -0.143 SA
BRANCH  28  29
HETATM   29  P1  UNL     1      20.155  11.360  49.036  1.00  0.00    -0.077 P 
HETATM   30  H20 UNL     1      20.428  11.633  50.430  1.00  0.00     0.066 HD
HETATM   31  H21 UNL     1      18.985  12.118  48.625  1.00  0.00     0.066 HD
ENDBRANCH  28  29
ENDBRANCH  27  28
ENDBRANCH  26  27
ENDBRANCH  10  26
TORSDOF 6
ENDMDL
MODEL 8
REMARK VINA RESULT:      -6.0      2.703      4.196
REMARK  6 active torsions:
REMARK  status: ('A' for Active; 'I' for Inactive)
REMARK    1  A    between atoms: C2_2  and  C3_3 
REMARK    2  A    between atoms: C3_3  and  C4_4 
REMARK    3  A    between atoms: C14_18  and  C15_19 
REMARK    4  A    between atoms: C15_19  and  C16_20 
REMARK    5  A    between atoms: C16_20  and  S2_21 
REMARK    6  A    between atoms: S2_21  and  P1_22 
ROOT
HETATM    1  C3  UNL     1      23.209   2.305  52.130  1.00  0.00     0.140 C 
HETATM    2  N1  UNL     1      23.736   1.895  50.818  1.00  0.00    -0.363 N 
HETATM    3  C10 UNL     1      22.605   1.549  49.971  1.00  0.00     0.205 C 
HETATM    4  N2  UNL     1      21.396   1.895  50.142  1.00  0.00    -0.238 NA
HETATM    5  C11 UNL     1      20.292   1.564  49.321  1.00  0.00     0.228 C 
HETATM    6  N3  UNL     1      19.110   1.965  49.468  1.00  0.00    -0.273 NA
HETATM    7  C12 UNL     1      18.515   2.819  50.429  1.00  0.00     0.229 C 
HETATM    8  S1  UNL     1      18.430   4.566  49.948  1.00  0.00    -0.111 SA
HETATM    9  C13 UNL     1      20.152   5.132  49.882  1.00  0.00     0.000 C 
HETATM   10  C14 UNL     1      20.726   5.065  48.686  1.00  0.00    -0.063 C 
HETATM   11  C17 UNL     1      22.179   4.725  48.653  1.00  0.00     0.055 C 
HETATM   12  C18 UNL     1      22.863   4.809  49.971  1.00  0.00     0.130 C 
HETATM   13  N4  UNL     1      22.055   4.574  51.134  1.00  0.00    -0.345 N 
HETATM   14  C19 UNL     1      21.045   5.640  50.972  1.00  0.00     0.172 C 
HETATM   15  C20 UNL     1      22.358   3.496  51.989  1.00  0.00     0.253 C 
HETATM   16  O1  UNL     1      21.506   4.021  52.709  1.00  0.00    -0.270 OA
HETATM   17  H11 UNL     1      24.703   1.825  50.450  1.00  0.00     0.162 HD
ENDROOT
BRANCH   1  18
HETATM   18  C2  UNL     1      24.404   2.627  53.054  1.00  0.00     0.042 C 
HETATM   19  C1  UNL     1      25.693   2.261  52.369  1.00  0.00     0.008 C 
ENDBRANCH   1  18
BRANCH   1  20
HETATM   20  C4  UNL     1      22.423   1.222  52.754  1.00  0.00    -0.021 A 
HETATM   21  C5  UNL     1      22.916  -0.025  52.989  1.00  0.00     0.010 A 
HETATM   22  C6  UNL     1      22.235  -1.074  53.569  1.00  0.00     0.001 A 
HETATM   23  C7  UNL     1      20.912  -0.855  53.958  1.00  0.00     0.000 A 
HETATM   24  C8  UNL     1      20.363   0.405  53.737  1.00  0.00     0.001 A 
HETATM   25  C9  UNL     1      21.114   1.407  53.149  1.00  0.00     0.010 A 
ENDBRANCH   1  20
BRANCH  10  26
HETATM   26  C15 UNL     1      19.987   5.305  47.414  1.00  0.00     0.046 C 
BRANCH  26  27
HETATM   27  C16 UNL     1      20.258   6.663  46.815  1.00  0.00     0.083 C 
BRANCH  27  28
HETATM   28  S2  UNL     1      18.900   7.745  47.342  1.00  0.00    -0.143 SA
BRANCH  28  29
HETATM   29  P1  UNL     1      19.463   8.898  49.080  1.00  0.00    -0.077 P 
HETATM   30  H20 UNL     1      20.890   9.123  49.004  1.00  0.00     0.066 HD
HETATM   31  H21 UNL     1      19.173   8.088  50.253  1.00  0.00     0.066 HD
ENDBRANCH  28  29
ENDBRANCH  27  28
ENDBRANCH  26  27
ENDBRANCH  10  26
TORSDOF 6
ENDMDL
MODEL 9
REMARK VINA RESULT:      -6.0      8.847     12.166
REMARK  6 active torsions:
REMARK  status: ('A' for Active; 'I' for Inactive)
REMARK    1  A    between atoms: C2_2  and  C3_3 
REMARK    2  A    between atoms: C3_3  and  C4_4 
REMARK    3  A    between atoms: C14_18  and  C15_19 
REMARK    4  A    between atoms: C15_19  and  C16_20 
REMARK    5  A    between atoms: C16_20  and  S2_21 
REMARK    6  A    between atoms: S2_21  and  P1_22 
ROOT
HETATM    1  C3  UNL     1      28.191   9.529  49.084  1.00  0.00     0.140 C 
HETATM    2  N1  UNL     1      27.670   8.699  47.985  1.00  0.00    -0.363 N 
HETATM    3  C10 UNL     1      28.426   9.020  46.785  1.00  0.00     0.205 C 
HETATM    4  N2  UNL     1      29.562   9.585  46.733  1.00  0.00    -0.238 NA
HETATM    5  C11 UNL     1      30.303   9.898  45.569  1.00  0.00     0.228 C 
HETATM    6  N3  UNL     1      31.455  10.401  45.535  1.00  0.00    -0.273 NA
HETATM    7  C12 UNL     1      32.342  10.799  46.564  1.00  0.00     0.229 C 
HETATM    8  S1  UNL     1      33.544   9.536  47.067  1.00  0.00    -0.111 SA
HETATM    9  C13 UNL     1      32.563   8.217  47.835  1.00  0.00     0.000 C 
HETATM   10  C14 UNL     1      32.205   7.229  47.022  1.00  0.00    -0.063 C 
HETATM   11  C17 UNL     1      30.869   6.609  47.262  1.00  0.00     0.055 C 
HETATM   12  C18 UNL     1      30.246   6.968  48.565  1.00  0.00     0.130 C 
HETATM   13  N4  UNL     1      30.602   8.241  49.122  1.00  0.00    -0.345 N 
HETATM   14  C19 UNL     1      32.065   8.076  49.241  1.00  0.00     0.172 C 
HETATM   15  C20 UNL     1      29.605   9.215  49.332  1.00  0.00     0.253 C 
HETATM   16  O1  UNL     1      30.516   9.805  49.920  1.00  0.00    -0.270 OA
HETATM   17  H11 UNL     1      26.915   7.989  47.950  1.00  0.00     0.162 HD
ENDROOT
BRANCH   1  18
HETATM   18  C2  UNL     1      27.362   9.232  50.352  1.00  0.00     0.042 C 
HETATM   19  C1  UNL     1      26.399   8.107  50.082  1.00  0.00     0.008 C 
ENDBRANCH   1  18
BRANCH   1  20
HETATM   20  C4  UNL     1      28.063  10.967  48.775  1.00  0.00    -0.021 A 
HETATM   21  C5  UNL     1      26.912  11.541  48.327  1.00  0.00     0.010 A 
HETATM   22  C6  UNL     1      26.731  12.874  48.025  1.00  0.00     0.001 A 
HETATM   23  C7  UNL     1      27.819  13.733  48.190  1.00  0.00     0.000 A 
HETATM   24  C8  UNL     1      29.018  13.192  48.646  1.00  0.00     0.001 A 
HETATM   25  C9  UNL     1      29.120  11.841  48.927  1.00  0.00     0.010 A 
ENDBRANCH   1  20
BRANCH  10  26
HETATM   26  C15 UNL     1      33.065   6.739  45.909  1.00  0.00     0.046 C 
BRANCH  26  27
HETATM   27  C16 UNL     1      34.013   5.641  46.327  1.00  0.00     0.083 C 
BRANCH  27  28
HETATM   28  S2  UNL     1      33.255   4.076  45.811  1.00  0.00    -0.143 SA
BRANCH  28  29
HETATM   29  P1  UNL     1      33.167   2.680  47.458  1.00  0.00    -0.077 P 
HETATM   30  H20 UNL     1      32.453   3.330  48.535  1.00  0.00     0.066 HD
HETATM   31  H21 UNL     1      34.534   2.422  47.882  1.00  0.00     0.066 HD
ENDBRANCH  28  29
ENDBRANCH  27  28
ENDBRANCH  26  27
ENDBRANCH  10  26
TORSDOF 6
ENDMDL
