MODEL 1
REMARK VINA RESULT:      -8.8      0.000      0.000
REMARK  4 active torsions:
REMARK  status: ('A' for Active; 'I' for Inactive)
REMARK    1  A    between atoms: N1_1  and  C1_2 
REMARK    2  A    between atoms: C2_3  and  C3_4 
REMARK    3  A    between atoms: C7_11  and  C8_12 
REMARK    4  A    between atoms: C9_13  and  C10_14 
ROOT
HETATM    1  C3  UNL     1      27.245  -0.817  53.178  1.00  0.00     0.006 C 
HETATM    2  C4  UNL     1      26.495   0.280  53.388  1.00  0.00    -0.060 C 
HETATM    3  C5  UNL     1      27.164   1.573  53.690  1.00  0.00     0.156 C 
HETATM    4  N2  UNL     1      27.267   2.375  52.457  1.00  0.00    -0.363 N 
HETATM    5  C6  UNL     1      26.147   2.408  51.546  1.00  0.00     0.168 C 
HETATM    6  S1  UNL     1      26.468   3.266  50.170  1.00  0.00    -0.041 SA
HETATM    7  N3  UNL     1      24.823   1.834  51.624  1.00  0.00    -0.359 N 
HETATM    8  C7  UNL     1      24.343   1.332  52.917  1.00  0.00     0.111 C 
HETATM    9  C16 UNL     1      25.033   0.071  53.289  1.00  0.00     0.065 C 
HETATM   10  H8  UNL     1      28.100   2.945  52.160  1.00  0.00     0.162 HD
HETATM   11  H9  UNL     1      24.269   1.807  50.730  1.00  0.00     0.162 HD
ENDROOT
BRANCH   8  12
HETATM   12  C8  UNL     1      22.877   1.205  52.825  1.00  0.00    -0.001 C 
HETATM   13  C9  UNL     1      22.283   0.128  52.336  1.00  0.00     0.011 C 
BRANCH  13  14
HETATM   14  C10 UNL     1      20.837  -0.013  52.239  1.00  0.00    -0.015 A 
HETATM   15  C11 UNL     1      20.112   0.487  51.179  1.00  0.00     0.013 A 
HETATM   16  C12 UNL     1      18.742   0.350  51.094  1.00  0.00     0.001 A 
HETATM   17  C13 UNL     1      18.044  -0.316  52.105  1.00  0.00     0.002 A 
HETATM   18  C14 UNL     1      18.776  -0.817  53.169  1.00  0.00     0.024 A 
HETATM   19  C15 UNL     1      20.139  -0.667  53.230  1.00  0.00     0.044 A 
HETATM   20 CL1  UNL     1      21.014  -1.322  54.599  1.00  0.00    -0.083 Cl
ENDBRANCH  13  14
ENDBRANCH   8  12
BRANCH   1  21
HETATM   21  C2  UNL     1      28.693  -0.796  53.233  1.00  0.00     0.017 C 
HETATM   22  C1  UNL     1      29.368  -1.917  53.257  1.00  0.00     0.080 C 
BRANCH  22  23
HETATM   23  N1  UNL     1      28.595  -3.131  53.226  1.00  0.00    -0.408 N 
HETATM   24  H1  UNL     1      27.733  -3.469  53.686  1.00  0.00     0.155 HD
HETATM   25  H2  UNL     1      28.841  -3.955  52.644  1.00  0.00     0.155 HD
ENDBRANCH  22  23
ENDBRANCH   1  21
TORSDOF 4
ENDMDL
MODEL 2
REMARK VINA RESULT:      -8.3      1.497      1.851
REMARK  4 active torsions:
REMARK  status: ('A' for Active; 'I' for Inactive)
REMARK    1  A    between atoms: N1_1  and  C1_2 
REMARK    2  A    between atoms: C2_3  and  C3_4 
REMARK    3  A    between atoms: C7_11  and  C8_12 
REMARK    4  A    between atoms: C9_13  and  C10_14 
ROOT
HETATM    1  C3  UNL     1      27.176  -0.907  53.167  1.00  0.00     0.006 C 
HETATM    2  C4  UNL     1      26.366   0.145  53.385  1.00  0.00    -0.060 C 
HETATM    3  C5  UNL     1      26.958   1.459  53.745  1.00  0.00     0.156 C 
HETATM    4  N2  UNL     1      27.058   2.303  52.541  1.00  0.00    -0.363 N 
HETATM    5  C6  UNL     1      25.966   2.308  51.596  1.00  0.00     0.168 C 
HETATM    6  S1  UNL     1      26.284   3.223  50.257  1.00  0.00    -0.041 SA
HETATM    7  N3  UNL     1      24.671   1.666  51.615  1.00  0.00    -0.359 N 
HETATM    8  C7  UNL     1      24.178   1.102  52.876  1.00  0.00     0.111 C 
HETATM    9  C16 UNL     1      24.919  -0.134  53.233  1.00  0.00     0.065 C 
HETATM   10  H8  UNL     1      27.869   2.923  52.288  1.00  0.00     0.162 HD
HETATM   11  H9  UNL     1      24.146   1.640  50.704  1.00  0.00     0.162 HD
ENDROOT
BRANCH   8  12
HETATM   12  C8  UNL     1      22.723   0.904  52.734  1.00  0.00    -0.001 C 
HETATM   13  C9  UNL     1      22.134   0.757  51.559  1.00  0.00     0.011 C 
BRANCH  13  14
HETATM   14  C10 UNL     1      20.700   0.561  51.402  1.00  0.00    -0.015 A 
HETATM   15  C11 UNL     1      19.914   0.010  52.390  1.00  0.00     0.013 A 
HETATM   16  C12 UNL     1      18.555  -0.174  52.235  1.00  0.00     0.001 A 
HETATM   17  C13 UNL     1      17.933   0.206  51.042  1.00  0.00     0.002 A 
HETATM   18  C14 UNL     1      18.727   0.761  50.051  1.00  0.00     0.024 A 
HETATM   19  C15 UNL     1      20.076   0.932  50.231  1.00  0.00     0.044 A 
HETATM   20 CL1  UNL     1      21.031   1.639  48.943  1.00  0.00    -0.083 Cl
ENDBRANCH  13  14
ENDBRANCH   8  12
BRANCH   1  21
HETATM   21  C2  UNL     1      28.619  -0.816  53.269  1.00  0.00     0.017 C 
HETATM   22  C1  UNL     1      29.348  -1.902  53.290  1.00  0.00     0.080 C 
BRANCH  22  23
HETATM   23  N1  UNL     1      28.639  -3.152  53.207  1.00  0.00    -0.408 N 
HETATM   24  H1  UNL     1      28.875  -4.116  52.919  1.00  0.00     0.155 HD
HETATM   25  H2  UNL     1      27.641  -3.265  53.468  1.00  0.00     0.155 HD
ENDBRANCH  22  23
ENDBRANCH   1  21
TORSDOF 4
ENDMDL
MODEL 3
REMARK VINA RESULT:      -8.2      2.836      7.437
REMARK  4 active torsions:
REMARK  status: ('A' for Active; 'I' for Inactive)
REMARK    1  A    between atoms: N1_1  and  C1_2 
REMARK    2  A    between atoms: C2_3  and  C3_4 
REMARK    3  A    between atoms: C7_11  and  C8_12 
REMARK    4  A    between atoms: C9_13  and  C10_14 
ROOT
HETATM    1  C3  UNL     1      20.110  -0.338  52.843  1.00  0.00     0.006 C 
HETATM    2  C4  UNL     1      21.179   0.084  52.144  1.00  0.00    -0.060 C 
HETATM    3  C5  UNL     1      20.978   0.720  50.816  1.00  0.00     0.156 C 
HETATM    4  N2  UNL     1      21.004   2.187  50.962  1.00  0.00    -0.363 N 
HETATM    5  C6  UNL     1      21.981   2.787  51.841  1.00  0.00     0.168 C 
HETATM    6  S1  UNL     1      21.805   4.425  51.968  1.00  0.00    -0.041 SA
HETATM    7  N3  UNL     1      23.063   2.217  52.612  1.00  0.00    -0.359 N 
HETATM    8  C7  UNL     1      23.492   0.845  52.325  1.00  0.00     0.111 C 
HETATM    9  C16 UNL     1      22.487  -0.139  52.802  1.00  0.00     0.065 C 
HETATM   10  H8  UNL     1      20.364   2.866  50.478  1.00  0.00     0.162 HD
HETATM   11  H9  UNL     1      23.488   2.834  53.350  1.00  0.00     0.162 HD
ENDROOT
BRANCH   8  12
HETATM   12  C8  UNL     1      24.830   0.665  52.919  1.00  0.00    -0.001 C 
HETATM   13  C9  UNL     1      25.911   0.439  52.191  1.00  0.00     0.011 C 
BRANCH  13  14
HETATM   14  C10 UNL     1      27.238   0.259  52.762  1.00  0.00    -0.015 A 
HETATM   15  C11 UNL     1      27.997   1.313  53.222  1.00  0.00     0.013 A 
HETATM   16  C12 UNL     1      29.254   1.136  53.762  1.00  0.00     0.001 A 
HETATM   17  C13 UNL     1      29.797  -0.148  53.856  1.00  0.00     0.002 A 
HETATM   18  C14 UNL     1      29.031  -1.205  53.393  1.00  0.00     0.024 A 
HETATM   19  C15 UNL     1      27.783  -1.002  52.859  1.00  0.00     0.044 A 
HETATM   20 CL1  UNL     1      26.859  -2.377  52.289  1.00  0.00    -0.083 Cl
ENDBRANCH  13  14
ENDBRANCH   8  12
BRANCH   1  21
HETATM   21  C2  UNL     1      18.752  -0.198  52.354  1.00  0.00     0.017 C 
HETATM   22  C1  UNL     1      17.796  -0.947  52.839  1.00  0.00     0.080 C 
BRANCH  22  23
HETATM   23  N1  UNL     1      18.176  -1.889  53.860  1.00  0.00    -0.408 N 
HETATM   24  H1  UNL     1      18.774  -2.731  53.901  1.00  0.00     0.155 HD
HETATM   25  H2  UNL     1      17.848  -1.836  54.843  1.00  0.00     0.155 HD
ENDBRANCH  22  23
ENDBRANCH   1  21
TORSDOF 4
ENDMDL
MODEL 4
REMARK VINA RESULT:      -7.8      3.541      6.766
REMARK  4 active torsions:
REMARK  status: ('A' for Active; 'I' for Inactive)
REMARK    1  A    between atoms: N1_1  and  C1_2 
REMARK    2  A    between atoms: C2_3  and  C3_4 
REMARK    3  A    between atoms: C7_11  and  C8_12 
REMARK    4  A    between atoms: C9_13  and  C10_14 
ROOT
HETATM    1  C3  UNL     1      22.712  -0.532  53.091  1.00  0.00     0.006 C 
HETATM    2  C4  UNL     1      23.883   0.036  53.429  1.00  0.00    -0.060 C 
HETATM    3  C5  UNL     1      24.634  -0.483  54.602  1.00  0.00     0.156 C 
HETATM    4  N2  UNL     1      25.681  -1.414  54.145  1.00  0.00    -0.363 N 
HETATM    5  C6  UNL     1      26.446  -1.085  52.965  1.00  0.00     0.168 C 
HETATM    6  S1  UNL     1      27.503  -2.280  52.534  1.00  0.00    -0.041 SA
HETATM    7  N3  UNL     1      26.449   0.082  52.113  1.00  0.00    -0.359 N 
HETATM    8  C7  UNL     1      25.790   1.305  52.584  1.00  0.00     0.111 C 
HETATM    9  C16 UNL     1      24.313   1.157  52.561  1.00  0.00     0.065 C 
HETATM   10  H8  UNL     1      25.939  -2.326  54.603  1.00  0.00     0.162 HD
HETATM   11  H9  UNL     1      26.935  -0.015  51.185  1.00  0.00     0.162 HD
ENDROOT
BRANCH   8  12
HETATM   12  C8  UNL     1      26.288   2.423  51.759  1.00  0.00    -0.001 C 
HETATM   13  C9  UNL     1      25.537   3.038  50.861  1.00  0.00     0.011 C 
BRANCH  13  14
HETATM   14  C10 UNL     1      26.014   4.141  50.040  1.00  0.00    -0.015 A 
HETATM   15  C11 UNL     1      27.139   4.047  49.251  1.00  0.00     0.013 A 
HETATM   16  C12 UNL     1      27.586   5.097  48.476  1.00  0.00     0.001 A 
HETATM   17  C13 UNL     1      26.888   6.308  48.474  1.00  0.00     0.002 A 
HETATM   18  C14 UNL     1      25.757   6.399  49.269  1.00  0.00     0.024 A 
HETATM   19  C15 UNL     1      25.334   5.340  50.031  1.00  0.00     0.044 A 
HETATM   20 CL1  UNL     1      23.896   5.511  51.017  1.00  0.00    -0.083 Cl
ENDBRANCH  13  14
ENDBRANCH   8  12
BRANCH   1  21
HETATM   21  C2  UNL     1      22.140  -1.642  53.827  1.00  0.00     0.017 C 
HETATM   22  C1  UNL     1      21.084  -1.461  54.577  1.00  0.00     0.080 C 
BRANCH  22  23
HETATM   23  N1  UNL     1      20.547  -0.126  54.618  1.00  0.00    -0.408 N 
HETATM   24  H1  UNL     1      20.754   0.736  55.149  1.00  0.00     0.155 HD
HETATM   25  H2  UNL     1      19.759   0.196  54.025  1.00  0.00     0.155 HD
ENDBRANCH  22  23
ENDBRANCH   1  21
TORSDOF 4
ENDMDL
MODEL 5
REMARK VINA RESULT:      -7.6      8.154     11.441
REMARK  4 active torsions:
REMARK  status: ('A' for Active; 'I' for Inactive)
REMARK    1  A    between atoms: N1_1  and  C1_2 
REMARK    2  A    between atoms: C2_3  and  C3_4 
REMARK    3  A    between atoms: C7_11  and  C8_12 
REMARK    4  A    between atoms: C9_13  and  C10_14 
ROOT
HETATM    1  C3  UNL     1      25.301   5.933  49.538  1.00  0.00     0.006 C 
HETATM    2  C4  UNL     1      26.250   6.230  48.632  1.00  0.00    -0.060 C 
HETATM    3  C5  UNL     1      26.055   7.391  47.726  1.00  0.00     0.156 C 
HETATM    4  N2  UNL     1      26.772   8.562  48.261  1.00  0.00    -0.363 N 
HETATM    5  C6  UNL     1      28.089   8.380  48.826  1.00  0.00     0.168 C 
HETATM    6  S1  UNL     1      28.706   9.770  49.472  1.00  0.00    -0.041 SA
HETATM    7  N3  UNL     1      28.944   7.219  48.922  1.00  0.00    -0.359 N 
HETATM    8  C7  UNL     1      28.628   6.036  48.115  1.00  0.00     0.111 C 
HETATM    9  C16 UNL     1      27.430   5.335  48.641  1.00  0.00     0.065 C 
HETATM   10  H8  UNL     1      26.414   9.551  48.277  1.00  0.00     0.162 HD
HETATM   11  H9  UNL     1      29.761   7.290  49.582  1.00  0.00     0.162 HD
ENDROOT
BRANCH   8  12
HETATM   12  C8  UNL     1      29.838   5.194  48.069  1.00  0.00    -0.001 C 
HETATM   13  C9  UNL     1      31.017   5.659  47.689  1.00  0.00     0.011 C 
BRANCH  13  14
HETATM   14  C10 UNL     1      32.221   4.841  47.638  1.00  0.00    -0.015 A 
HETATM   15  C11 UNL     1      32.221   3.549  47.158  1.00  0.00     0.013 A 
HETATM   16  C12 UNL     1      33.365   2.779  47.114  1.00  0.00     0.001 A 
HETATM   17  C13 UNL     1      34.578   3.308  47.565  1.00  0.00     0.002 A 
HETATM   18  C14 UNL     1      34.574   4.607  48.047  1.00  0.00     0.024 A 
HETATM   19  C15 UNL     1      33.421   5.351  48.081  1.00  0.00     0.044 A 
HETATM   20 CL1  UNL     1      33.475   6.989  48.700  1.00  0.00    -0.083 Cl
ENDBRANCH  13  14
ENDBRANCH   8  12
BRANCH   1  21
HETATM   21  C2  UNL     1      24.080   6.704  49.673  1.00  0.00     0.017 C 
HETATM   22  C1  UNL     1      23.700   7.136  50.848  1.00  0.00     0.080 C 
BRANCH  22  23
HETATM   23  N1  UNL     1      24.551   6.803  51.960  1.00  0.00    -0.408 N 
HETATM   24  H1  UNL     1      24.464   6.215  52.806  1.00  0.00     0.155 HD
HETATM   25  H2  UNL     1      25.516   7.166  52.074  1.00  0.00     0.155 HD
ENDBRANCH  22  23
ENDBRANCH   1  21
TORSDOF 4
ENDMDL
MODEL 6
REMARK VINA RESULT:      -7.4      4.898      7.933
REMARK  4 active torsions:
REMARK  status: ('A' for Active; 'I' for Inactive)
REMARK    1  A    between atoms: N1_1  and  C1_2 
REMARK    2  A    between atoms: C2_3  and  C3_4 
REMARK    3  A    between atoms: C7_11  and  C8_12 
REMARK    4  A    between atoms: C9_13  and  C10_14 
ROOT
HETATM    1  C3  UNL     1      26.266   1.283  53.091  1.00  0.00     0.006 C 
HETATM    2  C4  UNL     1      25.726   1.718  51.938  1.00  0.00    -0.060 C 
HETATM    3  C5  UNL     1      24.317   1.371  51.617  1.00  0.00     0.156 C 
HETATM    4  N2  UNL     1      23.436   2.495  51.982  1.00  0.00    -0.363 N 
HETATM    5  C6  UNL     1      23.866   3.844  51.696  1.00  0.00     0.168 C 
HETATM    6  S1  UNL     1      22.811   4.984  52.262  1.00  0.00    -0.041 SA
HETATM    7  N3  UNL     1      25.032   4.361  51.016  1.00  0.00    -0.359 N 
HETATM    8  C7  UNL     1      25.851   3.444  50.217  1.00  0.00     0.111 C 
HETATM    9  C16 UNL     1      26.629   2.527  51.087  1.00  0.00     0.065 C 
HETATM   10  H8  UNL     1      22.496   2.416  52.445  1.00  0.00     0.162 HD
HETATM   11  H9  UNL     1      25.230   5.387  51.138  1.00  0.00     0.162 HD
ENDROOT
BRANCH   8  12
HETATM   12  C8  UNL     1      26.686   4.264  49.319  1.00  0.00    -0.001 C 
HETATM   13  C9  UNL     1      26.493   5.562  49.152  1.00  0.00     0.011 C 
BRANCH  13  14
HETATM   14  C10 UNL     1      27.308   6.386  48.271  1.00  0.00    -0.015 A 
HETATM   15  C11 UNL     1      28.661   6.181  48.104  1.00  0.00     0.013 A 
HETATM   16  C12 UNL     1      29.428   6.965  47.268  1.00  0.00     0.001 A 
HETATM   17  C13 UNL     1      28.834   8.009  46.553  1.00  0.00     0.002 A 
HETATM   18  C14 UNL     1      27.474   8.212  46.723  1.00  0.00     0.024 A 
HETATM   19  C15 UNL     1      26.734   7.418  47.562  1.00  0.00     0.044 A 
HETATM   20 CL1  UNL     1      25.017   7.720  47.738  1.00  0.00    -0.083 Cl
ENDBRANCH  13  14
ENDBRANCH   8  12
BRANCH   1  21
HETATM   21  C2  UNL     1      25.528   0.481  54.047  1.00  0.00     0.017 C 
HETATM   22  C1  UNL     1      26.164  -0.228  54.943  1.00  0.00     0.080 C 
BRANCH  22  23
HETATM   23  N1  UNL     1      27.601  -0.158  54.914  1.00  0.00    -0.408 N 
HETATM   24  H1  UNL     1      28.375  -0.711  55.319  1.00  0.00     0.155 HD
HETATM   25  H2  UNL     1      28.131   0.572  54.401  1.00  0.00     0.155 HD
ENDBRANCH  22  23
ENDBRANCH   1  21
TORSDOF 4
ENDMDL
MODEL 7
REMARK VINA RESULT:      -7.4      4.061      5.991
REMARK  4 active torsions:
REMARK  status: ('A' for Active; 'I' for Inactive)
REMARK    1  A    between atoms: N1_1  and  C1_2 
REMARK    2  A    between atoms: C2_3  and  C3_4 
REMARK    3  A    between atoms: C7_11  and  C8_12 
REMARK    4  A    between atoms: C9_13  and  C10_14 
ROOT
HETATM    1  C3  UNL     1      27.505   5.362  48.545  1.00  0.00     0.006 C 
HETATM    2  C4  UNL     1      26.397   5.434  49.305  1.00  0.00    -0.060 C 
HETATM    3  C5  UNL     1      25.736   6.750  49.505  1.00  0.00     0.156 C 
HETATM    4  N2  UNL     1      24.609   6.885  48.565  1.00  0.00    -0.363 N 
HETATM    5  C6  UNL     1      23.754   5.745  48.328  1.00  0.00     0.168 C 
HETATM    6  S1  UNL     1      22.608   6.036  47.173  1.00  0.00    -0.041 SA
HETATM    7  N3  UNL     1      23.725   4.424  48.911  1.00  0.00    -0.359 N 
HETATM    8  C7  UNL     1      24.481   4.176  50.143  1.00  0.00     0.111 C 
HETATM    9  C16 UNL     1      25.941   4.147  49.876  1.00  0.00     0.065 C 
HETATM   10  H8  UNL     1      24.353   7.753  48.029  1.00  0.00     0.162 HD
HETATM   11  H9  UNL     1      23.152   3.700  48.406  1.00  0.00     0.162 HD
ENDROOT
BRANCH   8  12
HETATM   12  C8  UNL     1      23.960   2.931  50.740  1.00  0.00    -0.001 C 
HETATM   13  C9  UNL     1      24.032   2.676  52.036  1.00  0.00     0.011 C 
BRANCH  13  14
HETATM   14  C10 UNL     1      23.523   1.453  52.640  1.00  0.00    -0.015 A 
HETATM   15  C11 UNL     1      22.193   1.280  52.957  1.00  0.00     0.013 A 
HETATM   16  C12 UNL     1      21.718   0.118  53.530  1.00  0.00     0.001 A 
HETATM   17  C13 UNL     1      22.597  -0.932  53.807  1.00  0.00     0.002 A 
HETATM   18  C14 UNL     1      23.933  -0.754  53.487  1.00  0.00     0.024 A 
HETATM   19  C15 UNL     1      24.380   0.412  52.918  1.00  0.00     0.044 A 
HETATM   20 CL1  UNL     1      26.081   0.582  52.534  1.00  0.00    -0.083 Cl
ENDBRANCH  13  14
ENDBRANCH   8  12
BRANCH   1  21
HETATM   21  C2  UNL     1      28.091   6.523  47.904  1.00  0.00     0.017 C 
HETATM   22  C1  UNL     1      29.320   6.878  48.181  1.00  0.00     0.080 C 
BRANCH  22  23
HETATM   23  N1  UNL     1      30.024   6.062  49.134  1.00  0.00    -0.408 N 
HETATM   24  H1  UNL     1      31.015   5.908  49.384  1.00  0.00     0.155 HD
HETATM   25  H2  UNL     1      29.554   5.421  49.801  1.00  0.00     0.155 HD
ENDBRANCH  22  23
ENDBRANCH   1  21
TORSDOF 4
ENDMDL
MODEL 8
REMARK VINA RESULT:      -7.3      3.708      7.740
REMARK  4 active torsions:
REMARK  status: ('A' for Active; 'I' for Inactive)
REMARK    1  A    between atoms: N1_1  and  C1_2 
REMARK    2  A    between atoms: C2_3  and  C3_4 
REMARK    3  A    between atoms: C7_11  and  C8_12 
REMARK    4  A    between atoms: C9_13  and  C10_14 
ROOT
HETATM    1  C3  UNL     1      23.684   5.382  50.299  1.00  0.00     0.006 C 
HETATM    2  C4  UNL     1      23.713   4.429  51.248  1.00  0.00    -0.060 C 
HETATM    3  C5  UNL     1      22.553   4.279  52.166  1.00  0.00     0.156 C 
HETATM    4  N2  UNL     1      21.677   3.198  51.681  1.00  0.00    -0.363 N 
HETATM    5  C6  UNL     1      22.274   1.987  51.168  1.00  0.00     0.168 C 
HETATM    6  S1  UNL     1      21.156   0.926  50.572  1.00  0.00    -0.041 SA
HETATM    7  N3  UNL     1      23.649   1.550  51.086  1.00  0.00    -0.359 N 
HETATM    8  C7  UNL     1      24.668   2.268  51.861  1.00  0.00     0.111 C 
HETATM    9  C16 UNL     1      24.942   3.603  51.273  1.00  0.00     0.065 C 
HETATM   10  H8  UNL     1      20.625   3.216  51.667  1.00  0.00     0.162 HD
HETATM   11  H9  UNL     1      23.844   0.726  50.462  1.00  0.00     0.162 HD
ENDROOT
BRANCH   8  12
HETATM   12  C8  UNL     1      25.857   1.398  51.941  1.00  0.00    -0.001 C 
HETATM   13  C9  UNL     1      26.297   0.895  53.083  1.00  0.00     0.011 C 
BRANCH  13  14
HETATM   14  C10 UNL     1      27.468   0.035  53.180  1.00  0.00    -0.015 A 
HETATM   15  C11 UNL     1      27.415  -1.321  52.942  1.00  0.00     0.013 A 
HETATM   16  C12 UNL     1      28.529  -2.130  53.036  1.00  0.00     0.001 A 
HETATM   17  C13 UNL     1      29.765  -1.576  53.383  1.00  0.00     0.002 A 
HETATM   18  C14 UNL     1      29.814  -0.212  53.622  1.00  0.00     0.024 A 
HETATM   19  C15 UNL     1      28.691   0.570  53.521  1.00  0.00     0.044 A 
HETATM   20 CL1  UNL     1      28.812   2.290  53.834  1.00  0.00    -0.083 Cl
ENDBRANCH  13  14
ENDBRANCH   8  12
BRANCH   1  21
HETATM   21  C2  UNL     1      22.559   6.281  50.128  1.00  0.00     0.017 C 
HETATM   22  C1  UNL     1      22.620   7.507  50.579  1.00  0.00     0.080 C 
BRANCH  22  23
HETATM   23  N1  UNL     1      23.843   7.888  51.236  1.00  0.00    -0.408 N 
HETATM   24  H1  UNL     1      24.425   8.741  51.275  1.00  0.00     0.155 HD
HETATM   25  H2  UNL     1      24.385   7.255  51.855  1.00  0.00     0.155 HD
ENDBRANCH  22  23
ENDBRANCH   1  21
TORSDOF 4
ENDMDL
MODEL 9
REMARK VINA RESULT:      -7.2      2.008      2.680
REMARK  4 active torsions:
REMARK  status: ('A' for Active; 'I' for Inactive)
REMARK    1  A    between atoms: N1_1  and  C1_2 
REMARK    2  A    between atoms: C2_3  and  C3_4 
REMARK    3  A    between atoms: C7_11  and  C8_12 
REMARK    4  A    between atoms: C9_13  and  C10_14 
ROOT
HETATM    1  C3  UNL     1      25.609   0.325  52.373  1.00  0.00     0.006 C 
HETATM    2  C4  UNL     1      24.675   1.161  52.860  1.00  0.00    -0.060 C 
HETATM    3  C5  UNL     1      25.085   2.494  53.375  1.00  0.00     0.156 C 
HETATM    4  N2  UNL     1      24.872   3.513  52.332  1.00  0.00    -0.363 N 
HETATM    5  C6  UNL     1      23.671   3.456  51.531  1.00  0.00     0.168 C 
HETATM    6  S1  UNL     1      23.639   4.606  50.345  1.00  0.00    -0.041 SA
HETATM    7  N3  UNL     1      22.517   2.588  51.584  1.00  0.00    -0.359 N 
HETATM    8  C7  UNL     1      22.309   1.757  52.775  1.00  0.00     0.111 C 
HETATM    9  C16 UNL     1      23.288   0.642  52.826  1.00  0.00     0.065 C 
HETATM   10  H8  UNL     1      25.524   4.305  52.100  1.00  0.00     0.162 HD
HETATM   11  H9  UNL     1      21.880   2.601  50.747  1.00  0.00     0.162 HD
ENDROOT
BRANCH   8  12
HETATM   12  C8  UNL     1      20.902   1.314  52.766  1.00  0.00    -0.001 C 
HETATM   13  C9  UNL     1      20.515   0.178  52.209  1.00  0.00     0.011 C 
BRANCH  13  14
HETATM   14  C10 UNL     1      19.131  -0.273  52.191  1.00  0.00    -0.015 A 
HETATM   15  C11 UNL     1      18.595  -1.062  53.186  1.00  0.00     0.013 A 
HETATM   16  C12 UNL     1      17.282  -1.487  53.162  1.00  0.00     0.001 A 
HETATM   17  C13 UNL     1      16.449  -1.116  52.103  1.00  0.00     0.002 A 
HETATM   18  C14 UNL     1      16.992  -0.324  51.105  1.00  0.00     0.024 A 
HETATM   19  C15 UNL     1      18.301   0.085  51.152  1.00  0.00     0.044 A 
HETATM   20 CL1  UNL     1      18.934   1.088  49.862  1.00  0.00    -0.083 Cl
ENDBRANCH  13  14
ENDBRANCH   8  12
BRANCH   1  21
HETATM   21  C2  UNL     1      27.017   0.669  52.326  1.00  0.00     0.017 C 
HETATM   22  C1  UNL     1      27.878   0.025  53.071  1.00  0.00     0.080 C 
BRANCH  22  23
HETATM   23  N1  UNL     1      27.346  -1.015  53.913  1.00  0.00    -0.408 N 
HETATM   24  H1  UNL     1      26.401  -1.364  54.145  1.00  0.00     0.155 HD
HETATM   25  H2  UNL     1      27.934  -1.649  54.485  1.00  0.00     0.155 HD
ENDBRANCH  22  23
ENDBRANCH   1  21
TORSDOF 4
ENDMDL
