MODEL 1
REMARK VINA RESULT:      -6.9      0.000      0.000
REMARK  8 active torsions:
REMARK  status: ('A' for Active; 'I' for Inactive)
REMARK    1  A    between atoms: C2_2  and  C3_3 
REMARK    2  A    between atoms: C3_3  and  C4_5 
REMARK    3  A    between atoms: C5_6  and  C6_7 
REMARK    4  A    between atoms: C7_8  and  C8_9 
REMARK    5  A    between atoms: C8_9  and  O2_10 
REMARK    6  A    between atoms: O2_10  and  C9_11 
REMARK    7  A    between atoms: C12_16  and  C13_17 
REMARK    8  A    between atoms: C13_17  and  N3_18 
ROOT
HETATM    1  C9  UNL     1      22.327  -0.023  52.960  1.00  0.00     0.174 A 
HETATM    2  N1  UNL     1      23.247  -0.613  53.623  1.00  0.00    -0.205 NA
HETATM    3  C10 UNL     1      22.778  -1.074  54.860  1.00  0.00     0.145 A 
HETATM    4  N2  UNL     1      23.428  -1.711  55.788  1.00  0.00    -0.282 NA
HETATM    5  C11 UNL     1      21.376  -0.678  54.893  1.00  0.00     0.064 A 
HETATM    6  C12 UNL     1      21.098  -0.047  53.753  1.00  0.00     0.015 A 
HETATM    7  H10 UNL     1      22.986  -2.019  56.691  1.00  0.00     0.188 HD
ENDROOT
BRANCH   1   8
HETATM    8  O2  UNL     1      22.655   0.495  51.691  1.00  0.00    -0.330 OA
BRANCH   8   9
HETATM    9  C8  UNL     1      23.751   1.400  51.551  1.00  0.00     0.205 C 
BRANCH   9  10
HETATM   10  C7  UNL     1      23.635   2.545  52.490  1.00  0.00    -0.000 C 
HETATM   11  C6  UNL     1      24.611   2.862  53.315  1.00  0.00    -0.002 C 
BRANCH  11  12
HETATM   12  C5  UNL     1      25.800   2.026  53.257  1.00  0.00     0.004 C 
HETATM   13  C4  UNL     1      26.009   1.231  54.323  1.00  0.00     0.054 C 
BRANCH  13  14
HETATM   14  C3  UNL     1      26.992   0.250  54.753  1.00  0.00     0.171 C 
HETATM   15  O1  UNL     1      26.281  -0.531  55.457  1.00  0.00    -0.289 OA
BRANCH  14  16
HETATM   16  C2  UNL     1      28.416   0.072  54.532  1.00  0.00     0.044 C 
HETATM   17  C1  UNL     1      29.307   0.941  54.116  1.00  0.00     0.015 C 
ENDBRANCH  14  16
ENDBRANCH  13  14
ENDBRANCH  11  12
ENDBRANCH   9  10
ENDBRANCH   8   9
ENDBRANCH   1   8
BRANCH   6  18
HETATM   18  C13 UNL     1      19.863   0.565  53.242  1.00  0.00     0.183 C 
BRANCH  18  19
HETATM   19  N3  UNL     1      19.374   0.056  52.011  1.00  0.00    -0.117 NA
HETATM   20  N4  UNL     1      19.426   0.965  50.954  1.00  0.00    -0.292 N 
HETATM   21  C14 UNL     1      18.327   0.651  50.096  1.00  0.00     0.243 C 
HETATM   22  H14 UNL     1      20.198   1.674  50.961  1.00  0.00     0.183 HD
HETATM   23  N5  UNL     1      17.555  -0.173  50.726  1.00  0.00    -0.154 NA
HETATM   24  N6  UNL     1      18.091  -0.444  52.009  1.00  0.00    -0.216 N 
HETATM   25  C15 UNL     1      17.174  -1.132  52.887  1.00  0.00     0.198 C 
ENDBRANCH  18  19
ENDBRANCH   6  18
TORSDOF 8
ENDMDL
MODEL 2
REMARK VINA RESULT:      -6.9      4.161      6.556
REMARK  8 active torsions:
REMARK  status: ('A' for Active; 'I' for Inactive)
REMARK    1  A    between atoms: C2_2  and  C3_3 
REMARK    2  A    between atoms: C3_3  and  C4_5 
REMARK    3  A    between atoms: C5_6  and  C6_7 
REMARK    4  A    between atoms: C7_8  and  C8_9 
REMARK    5  A    between atoms: C8_9  and  O2_10 
REMARK    6  A    between atoms: O2_10  and  C9_11 
REMARK    7  A    between atoms: C12_16  and  C13_17 
REMARK    8  A    between atoms: C13_17  and  N3_18 
ROOT
HETATM    1  C9  UNL     1      27.144   1.427  52.721  1.00  0.00     0.174 A 
HETATM    2  N1  UNL     1      28.124   2.210  52.964  1.00  0.00    -0.205 NA
HETATM    3  C10 UNL     1      28.852   1.795  54.087  1.00  0.00     0.145 A 
HETATM    4  N2  UNL     1      29.902   2.344  54.622  1.00  0.00    -0.282 NA
HETATM    5  C11 UNL     1      28.170   0.591  54.543  1.00  0.00     0.064 A 
HETATM    6  C12 UNL     1      27.143   0.364  53.725  1.00  0.00     0.015 A 
HETATM    7  H10 UNL     1      30.383   1.955  55.472  1.00  0.00     0.188 HD
ENDROOT
BRANCH   1   8
HETATM    8  O2  UNL     1      26.320   1.722  51.616  1.00  0.00    -0.330 OA
BRANCH   8   9
HETATM    9  C8  UNL     1      25.439   2.846  51.662  1.00  0.00     0.205 C 
BRANCH   9  10
HETATM   10  C7  UNL     1      24.529   2.873  50.490  1.00  0.00    -0.000 C 
HETATM   11  C6  UNL     1      24.867   3.473  49.368  1.00  0.00    -0.002 C 
BRANCH  11  12
HETATM   12  C5  UNL     1      26.174   4.109  49.346  1.00  0.00     0.004 C 
HETATM   13  C4  UNL     1      26.195   5.391  48.938  1.00  0.00     0.054 C 
BRANCH  13  14
HETATM   14  C3  UNL     1      27.183   6.440  48.743  1.00  0.00     0.171 C 
HETATM   15  O1  UNL     1      26.609   7.436  49.281  1.00  0.00    -0.289 OA
BRANCH  14  16
HETATM   16  C2  UNL     1      28.497   6.497  48.127  1.00  0.00     0.044 C 
HETATM   17  C1  UNL     1      29.436   5.581  48.088  1.00  0.00     0.015 C 
ENDBRANCH  14  16
ENDBRANCH  13  14
ENDBRANCH  11  12
ENDBRANCH   9  10
ENDBRANCH   8   9
ENDBRANCH   1   8
BRANCH   6  18
HETATM   18  C13 UNL     1      26.118  -0.690  53.700  1.00  0.00     0.183 C 
BRANCH  18  19
HETATM   19  N3  UNL     1      24.993  -0.492  54.542  1.00  0.00    -0.117 NA
HETATM   20  N4  UNL     1      24.849  -1.455  55.542  1.00  0.00    -0.292 N 
HETATM   21  C14 UNL     1      23.447  -1.583  55.781  1.00  0.00     0.243 C 
HETATM   22  H14 UNL     1      25.723  -1.893  55.923  1.00  0.00     0.183 HD
HETATM   23  N5  UNL     1      22.824  -0.966  54.831  1.00  0.00    -0.154 NA
HETATM   24  N6  UNL     1      23.763  -0.405  53.930  1.00  0.00    -0.216 N 
HETATM   25  C15 UNL     1      23.175   0.068  52.699  1.00  0.00     0.198 C 
ENDBRANCH  18  19
ENDBRANCH   6  18
TORSDOF 8
ENDMDL
MODEL 3
REMARK VINA RESULT:      -6.9      3.485      7.945
REMARK  8 active torsions:
REMARK  status: ('A' for Active; 'I' for Inactive)
REMARK    1  A    between atoms: C2_2  and  C3_3 
REMARK    2  A    between atoms: C3_3  and  C4_5 
REMARK    3  A    between atoms: C5_6  and  C6_7 
REMARK    4  A    between atoms: C7_8  and  C8_9 
REMARK    5  A    between atoms: C8_9  and  O2_10 
REMARK    6  A    between atoms: O2_10  and  C9_11 
REMARK    7  A    between atoms: C12_16  and  C13_17 
REMARK    8  A    between atoms: C13_17  and  N3_18 
ROOT
HETATM    1  C9  UNL     1      25.110   1.575  52.858  1.00  0.00     0.174 A 
HETATM    2  N1  UNL     1      25.203   2.329  51.831  1.00  0.00    -0.205 NA
HETATM    3  C10 UNL     1      26.531   2.698  51.578  1.00  0.00     0.145 A 
HETATM    4  N2  UNL     1      26.997   3.450  50.626  1.00  0.00    -0.282 NA
HETATM    5  C11 UNL     1      27.300   2.047  52.631  1.00  0.00     0.064 A 
HETATM    6  C12 UNL     1      26.452   1.370  53.403  1.00  0.00     0.015 A 
HETATM    7  H10 UNL     1      28.019   3.672  50.517  1.00  0.00     0.188 HD
ENDROOT
BRANCH   1   8
HETATM    8  O2  UNL     1      23.829   1.124  53.235  1.00  0.00    -0.330 OA
BRANCH   8   9
HETATM    9  C8  UNL     1      23.519  -0.270  53.183  1.00  0.00     0.205 C 
BRANCH   9  10
HETATM   10  C7  UNL     1      22.982  -0.757  54.479  1.00  0.00    -0.000 C 
HETATM   11  C6  UNL     1      21.707  -1.046  54.632  1.00  0.00    -0.002 C 
BRANCH  11  12
HETATM   12  C5  UNL     1      20.859  -0.857  53.465  1.00  0.00     0.004 C 
HETATM   13  C4  UNL     1      19.536  -0.988  53.676  1.00  0.00     0.054 C 
BRANCH  13  14
HETATM   14  C3  UNL     1      18.312  -0.903  52.896  1.00  0.00     0.171 C 
HETATM   15  O1  UNL     1      17.532  -1.648  53.564  1.00  0.00    -0.289 OA
BRANCH  14  16
HETATM   16  C2  UNL     1      17.927  -0.210  51.679  1.00  0.00     0.044 C 
HETATM   17  C1  UNL     1      18.671   0.474  50.842  1.00  0.00     0.015 C 
ENDBRANCH  14  16
ENDBRANCH  13  14
ENDBRANCH  11  12
ENDBRANCH   9  10
ENDBRANCH   8   9
ENDBRANCH   1   8
BRANCH   6  18
HETATM   18  C13 UNL     1      26.657   0.540  54.599  1.00  0.00     0.183 C 
BRANCH  18  19
HETATM   19  N3  UNL     1      27.705  -0.415  54.529  1.00  0.00    -0.117 NA
HETATM   20  N4  UNL     1      28.985   0.131  54.627  1.00  0.00    -0.292 N 
HETATM   21  C14 UNL     1      29.842  -0.707  53.851  1.00  0.00     0.243 C 
HETATM   22  H14 UNL     1      29.100   0.998  55.206  1.00  0.00     0.183 HD
HETATM   23  N5  UNL     1      29.097  -1.497  53.150  1.00  0.00    -0.154 NA
HETATM   24  N6  UNL     1      27.732  -1.230  53.420  1.00  0.00    -0.216 N 
HETATM   25  C15 UNL     1      26.823  -1.865  52.494  1.00  0.00     0.198 C 
ENDBRANCH  18  19
ENDBRANCH   6  18
TORSDOF 8
ENDMDL
MODEL 4
REMARK VINA RESULT:      -6.8      3.542      6.357
REMARK  8 active torsions:
REMARK  status: ('A' for Active; 'I' for Inactive)
REMARK    1  A    between atoms: C2_2  and  C3_3 
REMARK    2  A    between atoms: C3_3  and  C4_5 
REMARK    3  A    between atoms: C5_6  and  C6_7 
REMARK    4  A    between atoms: C7_8  and  C8_9 
REMARK    5  A    between atoms: C8_9  and  O2_10 
REMARK    6  A    between atoms: O2_10  and  C9_11 
REMARK    7  A    between atoms: C12_16  and  C13_17 
REMARK    8  A    between atoms: C13_17  and  N3_18 
ROOT
HETATM    1  C9  UNL     1      22.701   0.192  52.557  1.00  0.00     0.174 A 
HETATM    2  N1  UNL     1      21.635  -0.409  52.924  1.00  0.00    -0.205 NA
HETATM    3  C10 UNL     1      21.802  -1.054  54.156  1.00  0.00     0.145 A 
HETATM    4  N2  UNL     1      20.940  -1.757  54.828  1.00  0.00    -0.282 NA
HETATM    5  C11 UNL     1      23.180  -0.768  54.537  1.00  0.00     0.064 A 
HETATM    6  C12 UNL     1      23.725  -0.018  53.580  1.00  0.00     0.015 A 
HETATM    7  H10 UNL     1      21.161  -2.206  55.753  1.00  0.00     0.188 HD
ENDROOT
BRANCH   1   8
HETATM    8  O2  UNL     1      22.680   0.887  51.331  1.00  0.00    -0.330 OA
BRANCH   8   9
HETATM    9  C8  UNL     1      22.463   2.300  51.315  1.00  0.00     0.205 C 
BRANCH   9  10
HETATM   10  C7  UNL     1      22.041   2.771  49.972  1.00  0.00    -0.000 C 
HETATM   11  C6  UNL     1      22.789   3.589  49.262  1.00  0.00    -0.002 C 
BRANCH  11  12
HETATM   12  C5  UNL     1      24.042   4.007  49.869  1.00  0.00     0.004 C 
HETATM   13  C4  UNL     1      24.916   4.616  49.047  1.00  0.00     0.054 C 
BRANCH  13  14
HETATM   14  C3  UNL     1      26.244   5.202  49.136  1.00  0.00     0.171 C 
HETATM   15  O1  UNL     1      26.022   6.230  49.847  1.00  0.00    -0.289 OA
BRANCH  14  16
HETATM   16  C2  UNL     1      27.552   4.842  48.618  1.00  0.00     0.044 C 
HETATM   17  C1  UNL     1      28.605   5.600  48.421  1.00  0.00     0.015 C 
ENDBRANCH  14  16
ENDBRANCH  13  14
ENDBRANCH  11  12
ENDBRANCH   9  10
ENDBRANCH   8   9
ENDBRANCH   1   8
BRANCH   6  18
HETATM   18  C13 UNL     1      25.068   0.559  53.426  1.00  0.00     0.183 C 
BRANCH  18  19
HETATM   19  N3  UNL     1      26.110  -0.072  54.155  1.00  0.00    -0.117 NA
HETATM   20  N4  UNL     1      26.980   0.813  54.792  1.00  0.00    -0.292 N 
HETATM   21  C14 UNL     1      28.258   0.173  54.820  1.00  0.00     0.243 C 
HETATM   22  H14 UNL     1      26.588   1.729  55.119  1.00  0.00     0.183 HD
HETATM   23  N5  UNL     1      28.204  -0.854  54.038  1.00  0.00    -0.154 NA
HETATM   24  N6  UNL     1      26.912  -0.950  53.462  1.00  0.00    -0.216 N 
HETATM   25  C15 UNL     1      26.831  -1.896  52.375  1.00  0.00     0.198 C 
ENDBRANCH  18  19
ENDBRANCH   6  18
TORSDOF 8
ENDMDL
MODEL 5
REMARK VINA RESULT:      -6.8      3.075      7.528
REMARK  8 active torsions:
REMARK  status: ('A' for Active; 'I' for Inactive)
REMARK    1  A    between atoms: C2_2  and  C3_3 
REMARK    2  A    between atoms: C3_3  and  C4_5 
REMARK    3  A    between atoms: C5_6  and  C6_7 
REMARK    4  A    between atoms: C7_8  and  C8_9 
REMARK    5  A    between atoms: C8_9  and  O2_10 
REMARK    6  A    between atoms: O2_10  and  C9_11 
REMARK    7  A    between atoms: C12_16  and  C13_17 
REMARK    8  A    between atoms: C13_17  and  N3_18 
ROOT
HETATM    1  C9  UNL     1      24.497   0.400  53.273  1.00  0.00     0.174 A 
HETATM    2  N1  UNL     1      24.096   1.319  52.481  1.00  0.00    -0.205 NA
HETATM    3  C10 UNL     1      24.842   2.495  52.635  1.00  0.00     0.145 A 
HETATM    4  N2  UNL     1      24.716   3.624  52.003  1.00  0.00    -0.282 NA
HETATM    5  C11 UNL     1      25.811   2.183  53.677  1.00  0.00     0.064 A 
HETATM    6  C12 UNL     1      25.610   0.924  54.064  1.00  0.00     0.015 A 
HETATM    7  H10 UNL     1      25.329   4.458  52.190  1.00  0.00     0.188 HD
ENDROOT
BRANCH   1   8
HETATM    8  O2  UNL     1      23.836  -0.844  53.230  1.00  0.00    -0.330 OA
BRANCH   8   9
HETATM    9  C8  UNL     1      22.419  -0.894  53.056  1.00  0.00     0.205 C 
BRANCH   9  10
HETATM   10  C7  UNL     1      21.703  -0.566  54.314  1.00  0.00    -0.000 C 
HETATM   11  C6  UNL     1      20.737   0.328  54.346  1.00  0.00    -0.002 C 
BRANCH  11  12
HETATM   12  C5  UNL     1      20.418   0.976  53.084  1.00  0.00     0.004 C 
HETATM   13  C4  UNL     1      20.623   2.305  53.040  1.00  0.00     0.054 C 
BRANCH  13  14
HETATM   14  C3  UNL     1      20.477   3.382  52.074  1.00  0.00     0.171 C 
HETATM   15  O1  UNL     1      21.633   3.904  52.097  1.00  0.00    -0.289 OA
BRANCH  14  16
HETATM   16  C2  UNL     1      19.389   3.859  51.239  1.00  0.00     0.044 C 
HETATM   17  C1  UNL     1      18.099   3.652  51.358  1.00  0.00     0.015 C 
ENDBRANCH  14  16
ENDBRANCH  13  14
ENDBRANCH  11  12
ENDBRANCH   9  10
ENDBRANCH   8   9
ENDBRANCH   1   8
BRANCH   6  18
HETATM   18  C13 UNL     1      26.276   0.084  55.070  1.00  0.00     0.183 C 
BRANCH  18  19
HETATM   19  N3  UNL     1      27.624  -0.269  54.800  1.00  0.00    -0.117 NA
HETATM   20  N4  UNL     1      28.517   0.802  54.847  1.00  0.00    -0.292 N 
HETATM   21  C14 UNL     1      29.552   0.506  53.908  1.00  0.00     0.243 C 
HETATM   22  H14 UNL     1      28.300   1.587  55.508  1.00  0.00     0.183 HD
HETATM   23  N5  UNL     1      29.163  -0.495  53.190  1.00  0.00    -0.154 NA
HETATM   24  N6  UNL     1      27.873  -0.909  53.607  1.00  0.00    -0.216 N 
HETATM   25  C15 UNL     1      27.240  -1.836  52.699  1.00  0.00     0.198 C 
ENDBRANCH  18  19
ENDBRANCH   6  18
TORSDOF 8
ENDMDL
MODEL 6
REMARK VINA RESULT:      -6.7      3.213      6.416
REMARK  8 active torsions:
REMARK  status: ('A' for Active; 'I' for Inactive)
REMARK    1  A    between atoms: C2_2  and  C3_3 
REMARK    2  A    between atoms: C3_3  and  C4_5 
REMARK    3  A    between atoms: C5_6  and  C6_7 
REMARK    4  A    between atoms: C7_8  and  C8_9 
REMARK    5  A    between atoms: C8_9  and  O2_10 
REMARK    6  A    between atoms: O2_10  and  C9_11 
REMARK    7  A    between atoms: C12_16  and  C13_17 
REMARK    8  A    between atoms: C13_17  and  N3_18 
ROOT
HETATM    1  C9  UNL     1      22.743   0.669  52.787  1.00  0.00     0.174 A 
HETATM    2  N1  UNL     1      21.668   0.096  53.173  1.00  0.00    -0.205 NA
HETATM    3  C10 UNL     1      21.921  -0.867  54.160  1.00  0.00     0.145 A 
HETATM    4  N2  UNL     1      21.077  -1.638  54.777  1.00  0.00    -0.282 NA
HETATM    5  C11 UNL     1      23.365  -0.824  54.353  1.00  0.00     0.064 A 
HETATM    6  C12 UNL     1      23.865   0.098  53.532  1.00  0.00     0.015 A 
HETATM    7  H10 UNL     1      21.364  -2.335  55.509  1.00  0.00     0.188 HD
ENDROOT
BRANCH   1   8
HETATM    8  O2  UNL     1      22.642   1.663  51.793  1.00  0.00    -0.330 OA
BRANCH   8   9
HETATM    9  C8  UNL     1      21.488   1.717  50.952  1.00  0.00     0.205 C 
BRANCH   9  10
HETATM   10  C7  UNL     1      21.776   1.180  49.598  1.00  0.00    -0.000 C 
HETATM   11  C6  UNL     1      22.342   1.920  48.668  1.00  0.00    -0.002 C 
BRANCH  11  12
HETATM   12  C5  UNL     1      22.663   3.289  49.041  1.00  0.00     0.004 C 
HETATM   13  C4  UNL     1      23.973   3.569  49.168  1.00  0.00     0.054 C 
BRANCH  13  14
HETATM   14  C3  UNL     1      24.797   4.719  49.502  1.00  0.00     0.171 C 
HETATM   15  O1  UNL     1      24.138   5.238  50.454  1.00  0.00    -0.289 OA
BRANCH  14  16
HETATM   16  C2  UNL     1      26.044   5.260  48.990  1.00  0.00     0.044 C 
HETATM   17  C1  UNL     1      27.215   4.681  48.874  1.00  0.00     0.015 C 
ENDBRANCH  14  16
ENDBRANCH  13  14
ENDBRANCH  11  12
ENDBRANCH   9  10
ENDBRANCH   8   9
ENDBRANCH   1   8
BRANCH   6  18
HETATM   18  C13 UNL     1      25.239   0.565  53.294  1.00  0.00     0.183 C 
BRANCH  18  19
HETATM   19  N3  UNL     1      26.250  -0.025  54.096  1.00  0.00    -0.117 NA
HETATM   20  N4  UNL     1      27.117   0.892  54.691  1.00  0.00    -0.292 N 
HETATM   21  C14 UNL     1      28.382   0.238  54.801  1.00  0.00     0.243 C 
HETATM   22  H14 UNL     1      26.731   1.835  54.939  1.00  0.00     0.183 HD
HETATM   23  N5  UNL     1      28.333  -0.843  54.095  1.00  0.00    -0.154 NA
HETATM   24  N6  UNL     1      27.057  -0.963  53.492  1.00  0.00    -0.216 N 
HETATM   25  C15 UNL     1      26.989  -1.985  52.475  1.00  0.00     0.198 C 
ENDBRANCH  18  19
ENDBRANCH   6  18
TORSDOF 8
ENDMDL
MODEL 7
REMARK VINA RESULT:      -6.7      4.278      6.065
REMARK  8 active torsions:
REMARK  status: ('A' for Active; 'I' for Inactive)
REMARK    1  A    between atoms: C2_2  and  C3_3 
REMARK    2  A    between atoms: C3_3  and  C4_5 
REMARK    3  A    between atoms: C5_6  and  C6_7 
REMARK    4  A    between atoms: C7_8  and  C8_9 
REMARK    5  A    between atoms: C8_9  and  O2_10 
REMARK    6  A    between atoms: O2_10  and  C9_11 
REMARK    7  A    between atoms: C12_16  and  C13_17 
REMARK    8  A    between atoms: C13_17  and  N3_18 
ROOT
HETATM    1  C9  UNL     1      25.688   3.719  49.780  1.00  0.00     0.174 A 
HETATM    2  N1  UNL     1      26.956   3.698  49.625  1.00  0.00    -0.205 NA
HETATM    3  C10 UNL     1      27.419   4.860  48.993  1.00  0.00     0.145 A 
HETATM    4  N2  UNL     1      28.638   5.180  48.675  1.00  0.00    -0.282 NA
HETATM    5  C11 UNL     1      26.220   5.655  48.760  1.00  0.00     0.064 A 
HETATM    6  C12 UNL     1      25.176   4.975  49.231  1.00  0.00     0.015 A 
HETATM    7  H10 UNL     1      28.889   6.083  48.199  1.00  0.00     0.188 HD
ENDROOT
BRANCH   1   8
HETATM    8  O2  UNL     1      25.079   2.611  50.404  1.00  0.00    -0.330 OA
BRANCH   8   9
HETATM    9  C8  UNL     1      25.635   2.074  51.606  1.00  0.00     0.205 C 
BRANCH   9  10
HETATM   10  C7  UNL     1      24.613   1.350  52.403  1.00  0.00    -0.000 C 
HETATM   11  C6  UNL     1      24.905   0.247  53.060  1.00  0.00    -0.002 C 
BRANCH  11  12
HETATM   12  C5  UNL     1      26.278  -0.220  52.956  1.00  0.00     0.004 C 
HETATM   13  C4  UNL     1      27.099   0.146  53.957  1.00  0.00     0.054 C 
BRANCH  13  14
HETATM   14  C3  UNL     1      28.493  -0.042  54.326  1.00  0.00     0.171 C 
HETATM   15  O1  UNL     1      28.670   0.909  55.147  1.00  0.00    -0.289 OA
BRANCH  14  16
HETATM   16  C2  UNL     1      29.524  -0.994  53.953  1.00  0.00     0.044 C 
HETATM   17  C1  UNL     1      29.420  -2.096  53.248  1.00  0.00     0.015 C 
ENDBRANCH  14  16
ENDBRANCH  13  14
ENDBRANCH  11  12
ENDBRANCH   9  10
ENDBRANCH   8   9
ENDBRANCH   1   8
BRANCH   6  18
HETATM   18  C13 UNL     1      23.738   5.278  49.268  1.00  0.00     0.183 C 
BRANCH  18  19
HETATM   19  N3  UNL     1      23.156   5.407  50.555  1.00  0.00    -0.117 NA
HETATM   20  N4  UNL     1      24.081   5.517  51.594  1.00  0.00    -0.292 N 
HETATM   21  C14 UNL     1      23.474   4.920  52.741  1.00  0.00     0.243 C 
HETATM   22  H14 UNL     1      24.997   5.982  51.381  1.00  0.00     0.183 HD
HETATM   23  N5  UNL     1      22.422   4.282  52.346  1.00  0.00    -0.154 NA
HETATM   24  N6  UNL     1      22.277   4.421  50.944  1.00  0.00    -0.216 N 
HETATM   25  C15 UNL     1      21.296   3.529  50.371  1.00  0.00     0.198 C 
ENDBRANCH  18  19
ENDBRANCH   6  18
TORSDOF 8
ENDMDL
MODEL 8
REMARK VINA RESULT:      -6.6      3.428      6.691
REMARK  8 active torsions:
REMARK  status: ('A' for Active; 'I' for Inactive)
REMARK    1  A    between atoms: C2_2  and  C3_3 
REMARK    2  A    between atoms: C3_3  and  C4_5 
REMARK    3  A    between atoms: C5_6  and  C6_7 
REMARK    4  A    between atoms: C7_8  and  C8_9 
REMARK    5  A    between atoms: C8_9  and  O2_10 
REMARK    6  A    between atoms: O2_10  and  C9_11 
REMARK    7  A    between atoms: C12_16  and  C13_17 
REMARK    8  A    between atoms: C13_17  and  N3_18 
ROOT
HETATM    1  C9  UNL     1      26.884   0.034  54.491  1.00  0.00     0.174 A 
HETATM    2  N1  UNL     1      27.935  -0.689  54.557  1.00  0.00    -0.205 NA
HETATM    3  C10 UNL     1      29.000  -0.118  53.847  1.00  0.00     0.145 A 
HETATM    4  N2  UNL     1      30.209  -0.570  53.695  1.00  0.00    -0.282 NA
HETATM    5  C11 UNL     1      28.456   1.118  53.299  1.00  0.00     0.064 A 
HETATM    6  C12 UNL     1      27.184   1.215  53.683  1.00  0.00     0.015 A 
HETATM    7  H10 UNL     1      30.945  -0.065  53.139  1.00  0.00     0.188 HD
ENDROOT
BRANCH   1   8
HETATM    8  O2  UNL     1      25.728  -0.418  55.161  1.00  0.00    -0.330 OA
BRANCH   8   9
HETATM    9  C8  UNL     1      24.611  -0.899  54.412  1.00  0.00     0.205 C 
BRANCH   9  10
HETATM   10  C7  UNL     1      23.465  -1.230  55.296  1.00  0.00    -0.000 C 
HETATM   11  C6  UNL     1      22.230  -0.903  54.976  1.00  0.00    -0.002 C 
BRANCH  11  12
HETATM   12  C5  UNL     1      22.057  -0.198  53.716  1.00  0.00     0.004 C 
HETATM   13  C4  UNL     1      20.834  -0.285  53.160  1.00  0.00     0.054 C 
BRANCH  13  14
HETATM   14  C3  UNL     1      20.159   0.206  51.969  1.00  0.00     0.171 C 
HETATM   15  O1  UNL     1      19.004  -0.302  52.103  1.00  0.00    -0.289 OA
BRANCH  14  16
HETATM   16  C2  UNL     1      20.552   1.043  50.850  1.00  0.00     0.044 C 
HETATM   17  C1  UNL     1      21.455   0.822  49.924  1.00  0.00     0.015 C 
ENDBRANCH  14  16
ENDBRANCH  13  14
ENDBRANCH  11  12
ENDBRANCH   9  10
ENDBRANCH   8   9
ENDBRANCH   1   8
BRANCH   6  18
HETATM   18  C13 UNL     1      26.154   2.233  53.431  1.00  0.00     0.183 C 
BRANCH  18  19
HETATM   19  N3  UNL     1      25.777   2.422  52.076  1.00  0.00    -0.117 NA
HETATM   20  N4  UNL     1      26.709   3.128  51.315  1.00  0.00    -0.292 N 
HETATM   21  C14 UNL     1      25.966   3.844  50.328  1.00  0.00     0.243 C 
HETATM   22  H14 UNL     1      27.721   3.027  51.572  1.00  0.00     0.183 HD
HETATM   23  N5  UNL     1      24.716   3.783  50.650  1.00  0.00    -0.154 NA
HETATM   24  N6  UNL     1      24.567   3.037  51.845  1.00  0.00    -0.216 N 
HETATM   25  C15 UNL     1      23.252   3.139  52.433  1.00  0.00     0.198 C 
ENDBRANCH  18  19
ENDBRANCH   6  18
TORSDOF 8
ENDMDL
MODEL 9
REMARK VINA RESULT:      -6.6      5.081      6.679
REMARK  8 active torsions:
REMARK  status: ('A' for Active; 'I' for Inactive)
REMARK    1  A    between atoms: C2_2  and  C3_3 
REMARK    2  A    between atoms: C3_3  and  C4_5 
REMARK    3  A    between atoms: C5_6  and  C6_7 
REMARK    4  A    between atoms: C7_8  and  C8_9 
REMARK    5  A    between atoms: C8_9  and  O2_10 
REMARK    6  A    between atoms: O2_10  and  C9_11 
REMARK    7  A    between atoms: C12_16  and  C13_17 
REMARK    8  A    between atoms: C13_17  and  N3_18 
ROOT
HETATM    1  C9  UNL     1      26.814   1.902  52.300  1.00  0.00     0.174 A 
HETATM    2  N1  UNL     1      27.961   2.345  52.647  1.00  0.00    -0.205 NA
HETATM    3  C10 UNL     1      28.654   1.421  53.440  1.00  0.00     0.145 A 
HETATM    4  N2  UNL     1      29.836   1.530  53.969  1.00  0.00    -0.282 NA
HETATM    5  C11 UNL     1      27.749   0.283  53.554  1.00  0.00     0.064 A 
HETATM    6  C12 UNL     1      26.642   0.567  52.869  1.00  0.00     0.015 A 
HETATM    7  H10 UNL     1      30.275   0.775  54.555  1.00  0.00     0.188 HD
ENDROOT
BRANCH   1   8
HETATM    8  O2  UNL     1      26.002   2.728  51.496  1.00  0.00    -0.330 OA
BRANCH   8   9
HETATM    9  C8  UNL     1      26.387   3.015  50.150  1.00  0.00     0.205 C 
BRANCH   9  10
HETATM   10  C7  UNL     1      25.752   4.262  49.656  1.00  0.00    -0.000 C 
HETATM   11  C6  UNL     1      26.421   5.139  48.937  1.00  0.00    -0.002 C 
BRANCH  11  12
HETATM   12  C5  UNL     1      27.812   4.818  48.661  1.00  0.00     0.004 C 
HETATM   13  C4  UNL     1      28.577   5.843  48.240  1.00  0.00     0.054 C 
BRANCH  13  14
HETATM   14  C3  UNL     1      29.960   6.059  47.848  1.00  0.00     0.171 C 
HETATM   15  O1  UNL     1      30.444   4.892  47.963  1.00  0.00    -0.289 OA
BRANCH  14  16
HETATM   16  C2  UNL     1      30.727   7.216  47.422  1.00  0.00     0.044 C 
HETATM   17  C1  UNL     1      31.845   7.264  46.735  1.00  0.00     0.015 C 
ENDBRANCH  14  16
ENDBRANCH  13  14
ENDBRANCH  11  12
ENDBRANCH   9  10
ENDBRANCH   8   9
ENDBRANCH   1   8
BRANCH   6  18
HETATM   18  C13 UNL     1      25.406  -0.194  52.638  1.00  0.00     0.183 C 
BRANCH  18  19
HETATM   19  N3  UNL     1      24.307   0.123  53.478  1.00  0.00    -0.117 NA
HETATM   20  N4  UNL     1      23.976  -0.879  54.392  1.00  0.00    -0.292 N 
HETATM   21  C14 UNL     1      22.566  -0.786  54.599  1.00  0.00     0.243 C 
HETATM   22  H14 UNL     1      24.753  -1.487  54.747  1.00  0.00     0.183 HD
HETATM   23  N5  UNL     1      22.082   0.001  53.696  1.00  0.00    -0.154 NA
HETATM   24  N6  UNL     1      23.126   0.465  52.858  1.00  0.00    -0.216 N 
HETATM   25  C15 UNL     1      22.660   1.128  51.663  1.00  0.00     0.198 C 
ENDBRANCH  18  19
ENDBRANCH   6  18
TORSDOF 8
ENDMDL
