MODEL 1
REMARK VINA RESULT:      -7.7      0.000      0.000
REMARK  6 active torsions:
REMARK  status: ('A' for Active; 'I' for Inactive)
REMARK    1  A    between atoms: O1_2  and  C2_3 
REMARK    2  A    between atoms: C2_3  and  C3_4 
REMARK    3  A    between atoms: C3_4  and  C4_5 
REMARK    4  A    between atoms: C4_5  and  O2_6 
REMARK    5  A    between atoms: C10_15  and  N3_16 
REMARK    6  A    between atoms: N3_16  and  C11_17 
ROOT
HETATM    1  C3  UNL     1      25.849   0.126  53.694  1.00  0.00     0.216 C 
HETATM    2  O3  UNL     1      24.580  -0.230  54.095  1.00  0.00    -0.321 OA
HETATM    3  C6  UNL     1      23.324  -0.507  53.532  1.00  0.00     0.141 C 
HETATM    4  C7  UNL     1      22.654   0.118  52.574  1.00  0.00     0.056 C 
HETATM    5  C8  UNL     1      22.970   1.294  51.770  1.00  0.00     0.071 A 
HETATM    6  N1  UNL     1      21.882   1.537  51.083  1.00  0.00    -0.242 NA
HETATM    7  C9  UNL     1      21.894   2.648  50.194  1.00  0.00     0.230 A 
HETATM    8  N2  UNL     1      22.882   3.447  49.997  1.00  0.00    -0.252 NA
HETATM    9  C10 UNL     1      24.168   3.328  50.674  1.00  0.00     0.245 A 
HETATM   10  C17 UNL     1      24.139   2.164  51.599  1.00  0.00     0.036 A 
HETATM   11  C18 UNL     1      25.331   2.181  52.125  1.00  0.00     0.152 C 
HETATM   12  O4  UNL     1      25.948   1.375  53.053  1.00  0.00    -0.321 OA
ENDROOT
BRANCH   9  13
HETATM   13  N3  UNL     1      25.176   3.182  49.653  1.00  0.00    -0.363 N 
HETATM   14  H15 UNL     1      25.401   2.269  49.209  1.00  0.00     0.162 HD
BRANCH  13  15
HETATM   15  C11 UNL     1      25.903   4.325  49.221  1.00  0.00     0.031 A 
HETATM   16  C12 UNL     1      27.250   4.299  48.932  1.00  0.00     0.029 A 
HETATM   17  C13 UNL     1      27.971   5.403  48.512  1.00  0.00     0.003 A 
HETATM   18  C14 UNL     1      27.327   6.616  48.366  1.00  0.00     0.018 A 
HETATM   19  C15 UNL     1      25.977   6.696  48.644  1.00  0.00     0.008 A 
HETATM   20  I1  UNL     1      24.942   8.535  48.436  1.00  0.00    -0.045 I 
HETATM   21  C16 UNL     1      25.300   5.558  49.062  1.00  0.00     0.047 A 
ENDBRANCH  13  15
ENDBRANCH   9  13
BRANCH   1  22
HETATM   22  C2  UNL     1      26.786   0.176  54.861  1.00  0.00     0.238 C 
BRANCH  22  23
HETATM   23  O1  UNL     1      27.707   1.145  54.781  1.00  0.00    -0.391 OA
HETATM   24  C1  UNL     1      29.011   0.798  54.591  1.00  0.00     0.201 C 
ENDBRANCH  22  23
ENDBRANCH   1  22
BRANCH   1  25
HETATM   25  C4  UNL     1      26.463  -0.905  52.731  1.00  0.00     0.238 C 
BRANCH  25  26
HETATM   26  O2  UNL     1      26.958  -1.996  53.403  1.00  0.00    -0.391 OA
HETATM   27  C5  UNL     1      28.068  -2.535  52.721  1.00  0.00     0.201 C 
ENDBRANCH  25  26
ENDBRANCH   1  25
TORSDOF 6
ENDMDL
MODEL 2
REMARK VINA RESULT:      -7.6      2.409      3.182
REMARK  6 active torsions:
REMARK  status: ('A' for Active; 'I' for Inactive)
REMARK    1  A    between atoms: O1_2  and  C2_3 
REMARK    2  A    between atoms: C2_3  and  C3_4 
REMARK    3  A    between atoms: C3_4  and  C4_5 
REMARK    4  A    between atoms: C4_5  and  O2_6 
REMARK    5  A    between atoms: C10_15  and  N3_16 
REMARK    6  A    between atoms: N3_16  and  C11_17 
ROOT
HETATM    1  C3  UNL     1      26.242  -0.052  54.210  1.00  0.00     0.216 C 
HETATM    2  O3  UNL     1      25.597  -0.573  55.310  1.00  0.00    -0.321 OA
HETATM    3  C6  UNL     1      24.468  -1.350  55.614  1.00  0.00     0.141 C 
HETATM    4  C7  UNL     1      23.232  -1.296  55.136  1.00  0.00     0.056 C 
HETATM    5  C8  UNL     1      22.608  -0.429  54.142  1.00  0.00     0.071 A 
HETATM    6  N1  UNL     1      21.336  -0.736  54.176  1.00  0.00    -0.242 NA
HETATM    7  C9  UNL     1      20.461  -0.039  53.297  1.00  0.00     0.230 A 
HETATM    8  N2  UNL     1      20.803   0.877  52.461  1.00  0.00    -0.252 NA
HETATM    9  C10 UNL     1      22.174   1.345  52.288  1.00  0.00     0.245 A 
HETATM   10  C17 UNL     1      23.074   0.607  53.214  1.00  0.00     0.036 A 
HETATM   11  C18 UNL     1      24.243   1.121  52.953  1.00  0.00     0.152 C 
HETATM   12  O4  UNL     1      25.497   0.879  53.463  1.00  0.00    -0.321 OA
ENDROOT
BRANCH   9  13
HETATM   13  N3  UNL     1      22.526   1.132  50.906  1.00  0.00    -0.363 N 
HETATM   14  H15 UNL     1      22.753   0.193  50.521  1.00  0.00     0.162 HD
BRANCH  13  15
HETATM   15  C11 UNL     1      22.571   2.240  50.018  1.00  0.00     0.031 A 
HETATM   16  C12 UNL     1      22.302   2.140  48.670  1.00  0.00     0.029 A 
HETATM   17  C13 UNL     1      22.342   3.211  47.794  1.00  0.00     0.003 A 
HETATM   18  C14 UNL     1      22.669   4.465  48.271  1.00  0.00     0.018 A 
HETATM   19  C15 UNL     1      22.948   4.619  49.614  1.00  0.00     0.008 A 
HETATM   20  I1  UNL     1      23.456   6.522  50.398  1.00  0.00    -0.045 I 
HETATM   21  C16 UNL     1      22.893   3.512  50.452  1.00  0.00     0.047 A 
ENDBRANCH  13  15
ENDBRANCH   9  13
BRANCH   1  22
HETATM   22  C2  UNL     1      27.507   0.643  54.609  1.00  0.00     0.238 C 
BRANCH  22  23
HETATM   23  O1  UNL     1      27.553   1.936  54.260  1.00  0.00    -0.391 OA
HETATM   24  C1  UNL     1      28.674   2.411  53.650  1.00  0.00     0.201 C 
ENDBRANCH  22  23
ENDBRANCH   1  22
BRANCH   1  25
HETATM   25  C4  UNL     1      26.682  -1.148  53.223  1.00  0.00     0.238 C 
BRANCH  25  26
HETATM   26  O2  UNL     1      27.978  -1.544  53.450  1.00  0.00    -0.391 OA
HETATM   27  C5  UNL     1      28.224  -2.795  52.848  1.00  0.00     0.201 C 
ENDBRANCH  25  26
ENDBRANCH   1  25
TORSDOF 6
ENDMDL
MODEL 3
REMARK VINA RESULT:      -7.4      3.542      4.924
REMARK  6 active torsions:
REMARK  status: ('A' for Active; 'I' for Inactive)
REMARK    1  A    between atoms: O1_2  and  C2_3 
REMARK    2  A    between atoms: C2_3  and  C3_4 
REMARK    3  A    between atoms: C3_4  and  C4_5 
REMARK    4  A    between atoms: C4_5  and  O2_6 
REMARK    5  A    between atoms: C10_15  and  N3_16 
REMARK    6  A    between atoms: N3_16  and  C11_17 
ROOT
HETATM    1  C3  UNL     1      25.951   0.840  53.345  1.00  0.00     0.216 C 
HETATM    2  O3  UNL     1      25.912   0.317  54.618  1.00  0.00    -0.321 OA
HETATM    3  C6  UNL     1      25.332  -0.759  55.310  1.00  0.00     0.141 C 
HETATM    4  C7  UNL     1      24.102  -1.251  55.261  1.00  0.00     0.056 C 
HETATM    5  C8  UNL     1      22.927  -0.864  54.488  1.00  0.00     0.071 A 
HETATM    6  N1  UNL     1      21.956  -1.610  54.951  1.00  0.00    -0.242 NA
HETATM    7  C9  UNL     1      20.665  -1.451  54.375  1.00  0.00     0.230 A 
HETATM    8  N2  UNL     1      20.354  -0.633  53.432  1.00  0.00    -0.252 NA
HETATM    9  C10 UNL     1      21.305   0.273  52.799  1.00  0.00     0.245 A 
HETATM   10  C17 UNL     1      22.649   0.093  53.412  1.00  0.00     0.036 A 
HETATM   11  C18 UNL     1      23.382   0.951  52.760  1.00  0.00     0.152 C 
HETATM   12  O4  UNL     1      24.714   1.284  52.840  1.00  0.00    -0.321 OA
ENDROOT
BRANCH   9  13
HETATM   13  N3  UNL     1      21.309  -0.031  51.389  1.00  0.00    -0.363 N 
HETATM   14  H15 UNL     1      21.804  -0.854  50.991  1.00  0.00     0.162 HD
BRANCH  13  15
HETATM   15  C11 UNL     1      20.613   0.821  50.489  1.00  0.00     0.031 A 
HETATM   16  C12 UNL     1      19.245   0.988  50.512  1.00  0.00     0.029 A 
HETATM   17  C13 UNL     1      18.554   1.813  49.643  1.00  0.00     0.003 A 
HETATM   18  C14 UNL     1      19.251   2.523  48.685  1.00  0.00     0.018 A 
HETATM   19  C15 UNL     1      20.624   2.390  48.619  1.00  0.00     0.008 A 
HETATM   20  I1  UNL     1      21.741   3.458  47.167  1.00  0.00    -0.045 I 
HETATM   21  C16 UNL     1      21.270   1.549  49.516  1.00  0.00     0.047 A 
ENDBRANCH  13  15
ENDBRANCH   9  13
BRANCH   1  22
HETATM   22  C2  UNL     1      26.879   2.013  53.276  1.00  0.00     0.238 C 
BRANCH  22  23
HETATM   23  O1  UNL     1      27.745   2.086  54.295  1.00  0.00    -0.391 OA
HETATM   24  C1  UNL     1      29.076   2.179  54.019  1.00  0.00     0.201 C 
ENDBRANCH  22  23
ENDBRANCH   1  22
BRANCH   1  25
HETATM   25  C4  UNL     1      26.501  -0.167  52.320  1.00  0.00     0.238 C 
BRANCH  25  26
HETATM   26  O2  UNL     1      27.521  -0.921  52.846  1.00  0.00    -0.391 OA
HETATM   27  C5  UNL     1      27.303  -2.290  52.596  1.00  0.00     0.201 C 
ENDBRANCH  25  26
ENDBRANCH   1  25
TORSDOF 6
ENDMDL
MODEL 4
REMARK VINA RESULT:      -7.0      4.496      7.968
REMARK  6 active torsions:
REMARK  status: ('A' for Active; 'I' for Inactive)
REMARK    1  A    between atoms: O1_2  and  C2_3 
REMARK    2  A    between atoms: C2_3  and  C3_4 
REMARK    3  A    between atoms: C3_4  and  C4_5 
REMARK    4  A    between atoms: C4_5  and  O2_6 
REMARK    5  A    between atoms: C10_15  and  N3_16 
REMARK    6  A    between atoms: N3_16  and  C11_17 
ROOT
HETATM    1  C3  UNL     1      30.324   5.940  47.846  1.00  0.00     0.216 C 
HETATM    2  O3  UNL     1      29.887   6.948  47.014  1.00  0.00    -0.321 OA
HETATM    3  C6  UNL     1      28.962   8.005  47.017  1.00  0.00     0.141 C 
HETATM    4  C7  UNL     1      27.705   8.047  47.436  1.00  0.00     0.056 C 
HETATM    5  C8  UNL     1      26.842   7.034  48.035  1.00  0.00     0.071 A 
HETATM    6  N1  UNL     1      25.662   7.597  48.113  1.00  0.00    -0.242 NA
HETATM    7  C9  UNL     1      24.598   6.833  48.668  1.00  0.00     0.230 A 
HETATM    8  N2  UNL     1      24.683   5.626  49.106  1.00  0.00    -0.252 NA
HETATM    9  C10 UNL     1      25.915   4.846  49.098  1.00  0.00     0.245 A 
HETATM   10  C17 UNL     1      27.016   5.659  48.515  1.00  0.00     0.036 A 
HETATM   11  C18 UNL     1      28.036   4.848  48.570  1.00  0.00     0.152 C 
HETATM   12  O4  UNL     1      29.351   4.984  48.192  1.00  0.00    -0.321 OA
ENDROOT
BRANCH   9  13
HETATM   13  N3  UNL     1      26.188   4.465  50.462  1.00  0.00    -0.363 N 
HETATM   14  H15 UNL     1      26.824   5.006  51.082  1.00  0.00     0.162 HD
BRANCH  13  15
HETATM   15  C11 UNL     1      25.569   3.304  50.999  1.00  0.00     0.031 A 
HETATM   16  C12 UNL     1      24.204   3.134  51.060  1.00  0.00     0.029 A 
HETATM   17  C13 UNL     1      23.588   2.009  51.581  1.00  0.00     0.003 A 
HETATM   18  C14 UNL     1      24.366   0.980  52.076  1.00  0.00     0.018 A 
HETATM   19  C15 UNL     1      25.740   1.101  52.040  1.00  0.00     0.008 A 
HETATM   20  I1  UNL     1      26.979  -0.449  52.788  1.00  0.00    -0.045 I 
HETATM   21  C16 UNL     1      26.308   2.251  51.506  1.00  0.00     0.047 A 
ENDBRANCH  13  15
ENDBRANCH   9  13
BRANCH   1  22
HETATM   22  C2  UNL     1      31.455   5.183  47.221  1.00  0.00     0.238 C 
BRANCH  22  23
HETATM   23  O1  UNL     1      31.490   3.885  47.549  1.00  0.00    -0.391 OA
HETATM   24  C1  UNL     1      32.530   3.124  47.105  1.00  0.00     0.201 C 
ENDBRANCH  22  23
ENDBRANCH   1  22
BRANCH   1  25
HETATM   25  C4  UNL     1      30.888   6.484  49.169  1.00  0.00     0.238 C 
BRANCH  25  26
HETATM   26  O2  UNL     1      31.951   7.328  48.960  1.00  0.00    -0.391 OA
HETATM   27  C5  UNL     1      31.696   8.594  49.525  1.00  0.00     0.201 C 
ENDBRANCH  25  26
ENDBRANCH   1  25
TORSDOF 6
ENDMDL
MODEL 5
REMARK VINA RESULT:      -6.9      3.057      5.406
REMARK  6 active torsions:
REMARK  status: ('A' for Active; 'I' for Inactive)
REMARK    1  A    between atoms: O1_2  and  C2_3 
REMARK    2  A    between atoms: C2_3  and  C3_4 
REMARK    3  A    between atoms: C3_4  and  C4_5 
REMARK    4  A    between atoms: C4_5  and  O2_6 
REMARK    5  A    between atoms: C10_15  and  N3_16 
REMARK    6  A    between atoms: N3_16  and  C11_17 
ROOT
HETATM    1  C3  UNL     1      20.618   0.677  52.076  1.00  0.00     0.216 C 
HETATM    2  O3  UNL     1      20.762  -0.505  52.769  1.00  0.00    -0.321 OA
HETATM    3  C6  UNL     1      21.482  -1.018  53.861  1.00  0.00     0.141 C 
HETATM    4  C7  UNL     1      22.755  -0.871  54.197  1.00  0.00     0.056 C 
HETATM    5  C8  UNL     1      23.851  -0.137  53.572  1.00  0.00     0.071 A 
HETATM    6  N1  UNL     1      24.915  -0.464  54.262  1.00  0.00    -0.242 NA
HETATM    7  C9  UNL     1      26.158   0.109  53.876  1.00  0.00     0.230 A 
HETATM    8  N2  UNL     1      26.342   0.928  52.901  1.00  0.00    -0.252 NA
HETATM    9  C10 UNL     1      25.273   1.401  52.027  1.00  0.00     0.245 A 
HETATM   10  C17 UNL     1      23.982   0.792  52.445  1.00  0.00     0.036 A 
HETATM   11  C18 UNL     1      23.135   1.295  51.591  1.00  0.00     0.152 C 
HETATM   12  O4  UNL     1      21.779   1.137  51.427  1.00  0.00    -0.321 OA
ENDROOT
BRANCH   9  13
HETATM   13  N3  UNL     1      25.249   2.839  52.123  1.00  0.00    -0.363 N 
HETATM   14  H15 UNL     1      25.010   3.342  53.002  1.00  0.00     0.162 HD
BRANCH  13  15
HETATM   15  C11 UNL     1      25.563   3.621  50.979  1.00  0.00     0.031 A 
HETATM   16  C12 UNL     1      26.720   3.462  50.248  1.00  0.00     0.029 A 
HETATM   17  C13 UNL     1      27.038   4.215  49.132  1.00  0.00     0.003 A 
HETATM   18  C14 UNL     1      26.161   5.193  48.703  1.00  0.00     0.018 A 
HETATM   19  C15 UNL     1      24.987   5.394  49.401  1.00  0.00     0.008 A 
HETATM   20  I1  UNL     1      23.608   6.881  48.784  1.00  0.00    -0.045 I 
HETATM   21  C16 UNL     1      24.715   4.609  50.514  1.00  0.00     0.047 A 
ENDBRANCH  13  15
ENDBRANCH   9  13
BRANCH   1  22
HETATM   22  C2  UNL     1      19.565   0.552  51.018  1.00  0.00     0.238 C 
BRANCH  22  23
HETATM   23  O1  UNL     1      18.589  -0.315  51.317  1.00  0.00    -0.391 OA
HETATM   24  C1  UNL     1      17.351  -0.118  50.787  1.00  0.00     0.201 C 
ENDBRANCH  22  23
ENDBRANCH   1  22
BRANCH   1  25
HETATM   25  C4  UNL     1      20.142   1.826  52.981  1.00  0.00     0.238 C 
BRANCH  25  26
HETATM   26  O2  UNL     1      19.455   2.780  52.271  1.00  0.00    -0.391 OA
HETATM   27  C5  UNL     1      20.279   3.894  52.013  1.00  0.00     0.201 C 
ENDBRANCH  25  26
ENDBRANCH   1  25
TORSDOF 6
ENDMDL
MODEL 6
REMARK VINA RESULT:      -6.8      3.969      7.402
REMARK  6 active torsions:
REMARK  status: ('A' for Active; 'I' for Inactive)
REMARK    1  A    between atoms: O1_2  and  C2_3 
REMARK    2  A    between atoms: C2_3  and  C3_4 
REMARK    3  A    between atoms: C3_4  and  C4_5 
REMARK    4  A    between atoms: C4_5  and  O2_6 
REMARK    5  A    between atoms: C10_15  and  N3_16 
REMARK    6  A    between atoms: N3_16  and  C11_17 
ROOT
HETATM    1  C3  UNL     1      26.297   6.554  48.756  1.00  0.00     0.216 C 
HETATM    2  O3  UNL     1      25.498   6.917  47.694  1.00  0.00    -0.321 OA
HETATM    3  C6  UNL     1      24.136   7.076  47.392  1.00  0.00     0.141 C 
HETATM    4  C7  UNL     1      23.095   6.310  47.684  1.00  0.00     0.056 C 
HETATM    5  C8  UNL     1      22.984   5.050  48.411  1.00  0.00     0.071 A 
HETATM    6  N1  UNL     1      21.736   4.683  48.266  1.00  0.00    -0.242 NA
HETATM    7  C9  UNL     1      21.327   3.467  48.880  1.00  0.00     0.230 A 
HETATM    8  N2  UNL     1      22.073   2.681  49.572  1.00  0.00    -0.252 NA
HETATM    9  C10 UNL     1      23.486   2.930  49.836  1.00  0.00     0.245 A 
HETATM   10  C17 UNL     1      23.898   4.204  49.188  1.00  0.00     0.036 A 
HETATM   11  C18 UNL     1      25.159   4.295  49.502  1.00  0.00     0.152 C 
HETATM   12  O4  UNL     1      26.121   5.235  49.216  1.00  0.00    -0.321 OA
ENDROOT
BRANCH   9  13
HETATM   13  N3  UNL     1      23.651   2.973  51.268  1.00  0.00    -0.363 N 
HETATM   14  H15 UNL     1      23.517   3.841  51.825  1.00  0.00     0.162 HD
BRANCH  13  15
HETATM   15  C11 UNL     1      24.012   1.789  51.965  1.00  0.00     0.031 A 
HETATM   16  C12 UNL     1      25.291   1.276  51.973  1.00  0.00     0.029 A 
HETATM   17  C13 UNL     1      25.657   0.125  52.647  1.00  0.00     0.003 A 
HETATM   18  C14 UNL     1      24.703  -0.573  53.363  1.00  0.00     0.018 A 
HETATM   19  C15 UNL     1      23.406  -0.102  53.387  1.00  0.00     0.008 A 
HETATM   20  I1  UNL     1      21.904  -1.135  54.469  1.00  0.00    -0.045 I 
HETATM   21  C16 UNL     1      23.091   1.060  52.693  1.00  0.00     0.047 A 
ENDBRANCH  13  15
ENDBRANCH   9  13
BRANCH   1  22
HETATM   22  C2  UNL     1      27.747   6.688  48.407  1.00  0.00     0.238 C 
BRANCH  22  23
HETATM   23  O1  UNL     1      28.388   5.519  48.274  1.00  0.00    -0.391 OA
HETATM   24  C1  UNL     1      29.732   5.530  48.052  1.00  0.00     0.201 C 
ENDBRANCH  22  23
ENDBRANCH   1  22
BRANCH   1  25
HETATM   25  C4  UNL     1      26.092   7.469  49.976  1.00  0.00     0.238 C 
BRANCH  25  26
HETATM   26  O2  UNL     1      26.960   8.534  49.963  1.00  0.00    -0.391 OA
HETATM   27  C5  UNL     1      26.285   9.717  49.604  1.00  0.00     0.201 C 
ENDBRANCH  25  26
ENDBRANCH   1  25
TORSDOF 6
ENDMDL
MODEL 7
REMARK VINA RESULT:      -6.7      2.695      3.840
REMARK  6 active torsions:
REMARK  status: ('A' for Active; 'I' for Inactive)
REMARK    1  A    between atoms: O1_2  and  C2_3 
REMARK    2  A    between atoms: C2_3  and  C3_4 
REMARK    3  A    between atoms: C3_4  and  C4_5 
REMARK    4  A    between atoms: C4_5  and  O2_6 
REMARK    5  A    between atoms: C10_15  and  N3_16 
REMARK    6  A    between atoms: N3_16  and  C11_17 
ROOT
HETATM    1  C3  UNL     1      25.888   1.646  53.143  1.00  0.00     0.216 C 
HETATM    2  O3  UNL     1      25.245   0.552  53.680  1.00  0.00    -0.321 OA
HETATM    3  C6  UNL     1      24.129  -0.260  53.421  1.00  0.00     0.141 C 
HETATM    4  C7  UNL     1      22.896   0.064  53.056  1.00  0.00     0.056 C 
HETATM    5  C8  UNL     1      22.262   1.352  52.794  1.00  0.00     0.071 A 
HETATM    6  N1  UNL     1      20.996   1.075  52.610  1.00  0.00    -0.242 NA
HETATM    7  C9  UNL     1      20.115   2.156  52.329  1.00  0.00     0.230 A 
HETATM    8  N2  UNL     1      20.446   3.396  52.238  1.00  0.00    -0.252 NA
HETATM    9  C10 UNL     1      21.808   3.886  52.414  1.00  0.00     0.245 A 
HETATM   10  C17 UNL     1      22.715   2.744  52.706  1.00  0.00     0.036 A 
HETATM   11  C18 UNL     1      23.876   3.322  52.838  1.00  0.00     0.152 C 
HETATM   12  O4  UNL     1      25.131   2.832  53.113  1.00  0.00    -0.321 OA
ENDROOT
BRANCH   9  13
HETATM   13  N3  UNL     1      22.175   4.571  51.199  1.00  0.00    -0.363 N 
HETATM   14  H15 UNL     1      22.592   5.523  51.192  1.00  0.00     0.162 HD
BRANCH  13  15
HETATM   15  C11 UNL     1      21.964   3.933  49.947  1.00  0.00     0.031 A 
HETATM   16  C12 UNL     1      22.859   3.046  49.389  1.00  0.00     0.029 A 
HETATM   17  C13 UNL     1      22.667   2.418  48.171  1.00  0.00     0.003 A 
HETATM   18  C14 UNL     1      21.517   2.677  47.450  1.00  0.00     0.018 A 
HETATM   19  C15 UNL     1      20.588   3.558  47.965  1.00  0.00     0.008 A 
HETATM   20  I1  UNL     1      18.807   3.990  46.898  1.00  0.00    -0.045 I 
HETATM   21  C16 UNL     1      20.829   4.162  49.192  1.00  0.00     0.047 A 
ENDBRANCH  13  15
ENDBRANCH   9  13
BRANCH   1  22
HETATM   22  C2  UNL     1      27.136   1.962  53.908  1.00  0.00     0.238 C 
BRANCH  22  23
HETATM   23  O1  UNL     1      27.497   1.014  54.783  1.00  0.00    -0.391 OA
HETATM   24  C1  UNL     1      28.668   0.348  54.582  1.00  0.00     0.201 C 
ENDBRANCH  22  23
ENDBRANCH   1  22
BRANCH   1  25
HETATM   25  C4  UNL     1      26.357   1.393  51.700  1.00  0.00     0.238 C 
BRANCH  25  26
HETATM   26  O2  UNL     1      27.089   2.447  51.211  1.00  0.00    -0.391 OA
HETATM   27  C5  UNL     1      26.463   2.999  50.075  1.00  0.00     0.201 C 
ENDBRANCH  25  26
ENDBRANCH   1  25
TORSDOF 6
ENDMDL
MODEL 8
REMARK VINA RESULT:      -6.7      4.060      7.047
REMARK  6 active torsions:
REMARK  status: ('A' for Active; 'I' for Inactive)
REMARK    1  A    between atoms: O1_2  and  C2_3 
REMARK    2  A    between atoms: C2_3  and  C3_4 
REMARK    3  A    between atoms: C3_4  and  C4_5 
REMARK    4  A    between atoms: C4_5  and  O2_6 
REMARK    5  A    between atoms: C10_15  and  N3_16 
REMARK    6  A    between atoms: N3_16  and  C11_17 
ROOT
HETATM    1  C3  UNL     1      18.970   1.752  50.682  1.00  0.00     0.216 C 
HETATM    2  O3  UNL     1      18.179   0.671  51.004  1.00  0.00    -0.321 OA
HETATM    3  C6  UNL     1      17.897  -0.152  52.107  1.00  0.00     0.141 C 
HETATM    4  C7  UNL     1      18.709  -0.705  52.997  1.00  0.00     0.056 C 
HETATM    5  C8  UNL     1      20.159  -0.662  53.155  1.00  0.00     0.071 A 
HETATM    6  N1  UNL     1      20.420  -1.508  54.120  1.00  0.00    -0.242 NA
HETATM    7  C9  UNL     1      21.780  -1.680  54.501  1.00  0.00     0.230 A 
HETATM    8  N2  UNL     1      22.792  -1.079  53.982  1.00  0.00    -0.252 NA
HETATM    9  C10 UNL     1      22.689  -0.107  52.899  1.00  0.00     0.245 A 
HETATM   10  C17 UNL     1      21.262   0.061  52.513  1.00  0.00     0.036 A 
HETATM   11  C18 UNL     1      21.323   0.940  51.553  1.00  0.00     0.152 C 
HETATM   12  O4  UNL     1      20.357   1.528  50.771  1.00  0.00    -0.321 OA
ENDROOT
BRANCH   9  13
HETATM   13  N3  UNL     1      23.269   1.124  53.375  1.00  0.00    -0.363 N 
HETATM   14  H15 UNL     1      22.762   1.781  54.001  1.00  0.00     0.162 HD
BRANCH  13  15
HETATM   15  C11 UNL     1      24.590   1.471  52.982  1.00  0.00     0.031 A 
HETATM   16  C12 UNL     1      25.713   1.097  53.687  1.00  0.00     0.029 A 
HETATM   17  C13 UNL     1      27.004   1.428  53.316  1.00  0.00     0.003 A 
HETATM   18  C14 UNL     1      27.209   2.178  52.175  1.00  0.00     0.018 A 
HETATM   19  C15 UNL     1      26.117   2.580  51.432  1.00  0.00     0.008 A 
HETATM   20  I1  UNL     1      26.378   3.734  49.672  1.00  0.00    -0.045 I 
HETATM   21  C16 UNL     1      24.842   2.221  51.848  1.00  0.00     0.047 A 
ENDBRANCH  13  15
ENDBRANCH   9  13
BRANCH   1  22
HETATM   22  C2  UNL     1      18.706   2.210  49.281  1.00  0.00     0.238 C 
BRANCH  22  23
HETATM   23  O1  UNL     1      19.810   2.540  48.597  1.00  0.00    -0.391 OA
HETATM   24  C1  UNL     1      19.913   3.799  48.087  1.00  0.00     0.201 C 
ENDBRANCH  22  23
ENDBRANCH   1  22
BRANCH   1  25
HETATM   25  C4  UNL     1      18.671   2.974  51.567  1.00  0.00     0.238 C 
BRANCH  25  26
HETATM   26  O2  UNL     1      17.682   3.761  51.028  1.00  0.00    -0.391 OA
HETATM   27  C5  UNL     1      16.550   3.776  51.866  1.00  0.00     0.201 C 
ENDBRANCH  25  26
ENDBRANCH   1  25
TORSDOF 6
ENDMDL
MODEL 9
REMARK VINA RESULT:      -6.6      2.413      3.947
REMARK  6 active torsions:
REMARK  status: ('A' for Active; 'I' for Inactive)
REMARK    1  A    between atoms: O1_2  and  C2_3 
REMARK    2  A    between atoms: C2_3  and  C3_4 
REMARK    3  A    between atoms: C3_4  and  C4_5 
REMARK    4  A    between atoms: C4_5  and  O2_6 
REMARK    5  A    between atoms: C10_15  and  N3_16 
REMARK    6  A    between atoms: N3_16  and  C11_17 
ROOT
HETATM    1  C3  UNL     1      21.919   1.184  52.274  1.00  0.00     0.216 C 
HETATM    2  O3  UNL     1      21.268   0.707  51.159  1.00  0.00    -0.321 OA
HETATM    3  C6  UNL     1      21.412   0.703  49.761  1.00  0.00     0.141 C 
HETATM    4  C7  UNL     1      21.753   1.677  48.929  1.00  0.00     0.056 C 
HETATM    5  C8  UNL     1      22.096   3.077  49.153  1.00  0.00     0.071 A 
HETATM    6  N1  UNL     1      22.205   3.595  47.956  1.00  0.00    -0.242 NA
HETATM    7  C9  UNL     1      22.539   4.975  47.859  1.00  0.00     0.230 A 
HETATM    8  N2  UNL     1      22.746   5.774  48.845  1.00  0.00    -0.252 NA
HETATM    9  C10 UNL     1      22.668   5.370  50.245  1.00  0.00     0.245 A 
HETATM   10  C17 UNL     1      22.318   3.927  50.329  1.00  0.00     0.036 A 
HETATM   11  C18 UNL     1      22.282   3.711  51.614  1.00  0.00     0.152 C 
HETATM   12  O4  UNL     1      22.018   2.586  52.359  1.00  0.00    -0.321 OA
ENDROOT
BRANCH   9  13
HETATM   13  N3  UNL     1      23.949   5.651  50.842  1.00  0.00    -0.363 N 
HETATM   14  H15 UNL     1      24.050   6.081  51.784  1.00  0.00     0.162 HD
BRANCH  13  15
HETATM   15  C11 UNL     1      25.137   5.335  50.129  1.00  0.00     0.031 A 
HETATM   16  C12 UNL     1      25.663   4.064  50.060  1.00  0.00     0.029 A 
HETATM   17  C13 UNL     1      26.818   3.742  49.370  1.00  0.00     0.003 A 
HETATM   18  C14 UNL     1      27.505   4.736  48.700  1.00  0.00     0.018 A 
HETATM   19  C15 UNL     1      27.021   6.028  48.737  1.00  0.00     0.008 A 
HETATM   20  I1  UNL     1      28.038   7.589  47.727  1.00  0.00    -0.045 I 
HETATM   21  C16 UNL     1      25.856   6.298  49.445  1.00  0.00     0.047 A 
ENDBRANCH  13  15
ENDBRANCH   9  13
BRANCH   1  22
HETATM   22  C2  UNL     1      21.235   0.734  53.528  1.00  0.00     0.238 C 
BRANCH  22  23
HETATM   23  O1  UNL     1      20.517  -0.388  53.387  1.00  0.00    -0.391 OA
HETATM   24  C1  UNL     1      20.831  -1.468  54.155  1.00  0.00     0.201 C 
ENDBRANCH  22  23
ENDBRANCH   1  22
BRANCH   1  25
HETATM   25  C4  UNL     1      23.354   0.641  52.385  1.00  0.00     0.238 C 
BRANCH  25  26
HETATM   26  O2  UNL     1      23.720   0.435  53.693  1.00  0.00    -0.391 OA
HETATM   27  C5  UNL     1      24.743  -0.532  53.773  1.00  0.00     0.201 C 
ENDBRANCH  25  26
ENDBRANCH   1  25
TORSDOF 6
ENDMDL
