MODEL 1
REMARK VINA RESULT:      -8.3      0.000      0.000
REMARK  1 active torsions:
REMARK  status: ('A' for Active; 'I' for Inactive)
REMARK    1  A    between atoms: C6_7  and  C7_8 
ROOT
HETATM    1  C1  UNL     1      22.003  -0.282  54.405  1.00  0.00     0.101 C 
HETATM    2  C2  UNL     1      23.147  -0.851  53.967  1.00  0.00     0.100 C 
HETATM    3  N1  UNL     1      24.502  -0.626  53.519  1.00  0.00    -0.392 N 
HETATM    4  C3  UNL     1      24.789   0.739  53.208  1.00  0.00     0.176 C 
HETATM    5  C4  UNL     1      24.124   1.307  52.024  1.00  0.00     0.031 A 
HETATM    6  C5  UNL     1      24.878   2.256  51.433  1.00  0.00     0.039 A 
HETATM    7  C6  UNL     1      24.540   3.027  50.249  1.00  0.00    -0.026 A 
HETATM    8  C13 UNL     1      23.371   2.771  49.694  1.00  0.00     0.005 A 
HETATM    9  C14 UNL     1      22.411   1.781  50.183  1.00  0.00     0.158 A 
HETATM   10  N2  UNL     1      22.886   1.100  51.360  1.00  0.00    -0.340 N 
HETATM   11  C15 UNL     1      21.865   0.175  51.726  1.00  0.00     0.205 C 
HETATM   12  N3  UNL     1      21.392   0.904  52.712  1.00  0.00    -0.265 NA
HETATM   13  C16 UNL     1      20.263   0.361  53.468  1.00  0.00     0.271 C 
HETATM   14  N4  UNL     1      20.728   0.228  54.883  1.00  0.00    -0.380 N 
HETATM   15  H3  UNL     1      24.775  -1.622  53.601  1.00  0.00     0.159 HD
HETATM   16  H18 UNL     1      20.799   0.234  55.936  1.00  0.00     0.160 HD
ENDROOT
BRANCH   7  17
HETATM   17  C7  UNL     1      25.392   4.041  49.656  1.00  0.00    -0.026 A 
HETATM   18  C8  UNL     1      24.934   5.283  49.369  1.00  0.00     0.012 A 
HETATM   19  C9  UNL     1      25.716   6.271  48.800  1.00  0.00     0.001 A 
HETATM   20  C10 UNL     1      27.054   6.030  48.487  1.00  0.00     0.000 A 
HETATM   21  C11 UNL     1      27.543   4.762  48.773  1.00  0.00     0.001 A 
HETATM   22  C12 UNL     1      26.716   3.837  49.333  1.00  0.00     0.012 A 
ENDBRANCH   7  17
TORSDOF 1
ENDMDL
MODEL 2
REMARK VINA RESULT:      -8.3      3.581      5.307
REMARK  1 active torsions:
REMARK  status: ('A' for Active; 'I' for Inactive)
REMARK    1  A    between atoms: C6_7  and  C7_8 
ROOT
HETATM    1  C1  UNL     1      19.363   1.136  51.923  1.00  0.00     0.101 C 
HETATM    2  C2  UNL     1      19.999   2.246  52.353  1.00  0.00     0.100 C 
HETATM    3  N1  UNL     1      21.257   2.952  52.431  1.00  0.00    -0.392 N 
HETATM    4  C3  UNL     1      22.392   2.149  52.101  1.00  0.00     0.176 C 
HETATM    5  C4  UNL     1      22.744   1.074  53.043  1.00  0.00     0.031 A 
HETATM    6  C5  UNL     1      24.071   0.832  53.055  1.00  0.00     0.039 A 
HETATM    7  C6  UNL     1      24.771  -0.156  53.858  1.00  0.00    -0.026 A 
HETATM    8  C13 UNL     1      24.029  -0.894  54.661  1.00  0.00     0.005 A 
HETATM    9  C14 UNL     1      22.576  -0.787  54.792  1.00  0.00     0.158 A 
HETATM   10  N2  UNL     1      22.027   0.233  53.934  1.00  0.00    -0.340 N 
HETATM   11  C15 UNL     1      20.620   0.230  54.160  1.00  0.00     0.205 C 
HETATM   12  N3  UNL     1      20.324  -0.424  53.059  1.00  0.00    -0.265 NA
HETATM   13  C16 UNL     1      18.910  -0.695  52.797  1.00  0.00     0.271 C 
HETATM   14  N4  UNL     1      18.583  -0.018  51.504  1.00  0.00    -0.380 N 
HETATM   15  H3  UNL     1      20.824   3.849  52.718  1.00  0.00     0.159 HD
HETATM   16  H18 UNL     1      18.211   0.220  50.546  1.00  0.00     0.160 HD
ENDROOT
BRANCH   7  17
HETATM   17  C7  UNL     1      26.205  -0.373  53.829  1.00  0.00    -0.026 A 
HETATM   18  C8  UNL     1      26.781  -1.232  52.955  1.00  0.00     0.012 A 
HETATM   19  C9  UNL     1      28.142  -1.468  52.901  1.00  0.00     0.001 A 
HETATM   20  C10 UNL     1      29.014  -0.811  53.770  1.00  0.00     0.000 A 
HETATM   21  C11 UNL     1      28.443   0.074  54.675  1.00  0.00     0.001 A 
HETATM   22  C12 UNL     1      27.094   0.256  54.672  1.00  0.00     0.012 A 
ENDBRANCH   7  17
TORSDOF 1
ENDMDL
MODEL 3
REMARK VINA RESULT:      -8.2      3.020      5.997
REMARK  1 active torsions:
REMARK  status: ('A' for Active; 'I' for Inactive)
REMARK    1  A    between atoms: C6_7  and  C7_8 
ROOT
HETATM    1  C1  UNL     1      23.345   4.386  49.135  1.00  0.00     0.101 C 
HETATM    2  C2  UNL     1      24.281   4.993  49.895  1.00  0.00     0.100 C 
HETATM    3  N1  UNL     1      25.615   4.916  50.443  1.00  0.00    -0.392 N 
HETATM    4  C3  UNL     1      26.207   3.620  50.341  1.00  0.00     0.176 C 
HETATM    5  C4  UNL     1      25.623   2.552  51.170  1.00  0.00     0.031 A 
HETATM    6  C5  UNL     1      26.544   1.637  51.532  1.00  0.00     0.039 A 
HETATM    7  C6  UNL     1      26.325   0.452  52.344  1.00  0.00    -0.026 A 
HETATM    8  C13 UNL     1      25.094   0.252  52.773  1.00  0.00     0.005 A 
HETATM    9  C14 UNL     1      23.956   1.126  52.489  1.00  0.00     0.158 A 
HETATM   10  N2  UNL     1      24.329   2.255  51.674  1.00  0.00    -0.340 N 
HETATM   11  C15 UNL     1      23.140   3.015  51.476  1.00  0.00     0.205 C 
HETATM   12  N3  UNL     1      22.929   2.590  50.251  1.00  0.00    -0.265 NA
HETATM   13  C16 UNL     1      21.756   3.112  49.549  1.00  0.00     0.271 C 
HETATM   14  N4  UNL     1      22.270   3.819  48.336  1.00  0.00    -0.380 N 
HETATM   15  H3  UNL     1      25.640   5.913  50.725  1.00  0.00     0.159 HD
HETATM   16  H18 UNL     1      22.413   4.191  47.359  1.00  0.00     0.160 HD
ENDROOT
BRANCH   7  17
HETATM   17  C7  UNL     1      27.358  -0.502  52.703  1.00  0.00    -0.026 A 
HETATM   18  C8  UNL     1      27.168  -1.838  52.588  1.00  0.00     0.012 A 
HETATM   19  C9  UNL     1      28.127  -2.776  52.923  1.00  0.00     0.001 A 
HETATM   20  C10 UNL     1      29.373  -2.380  53.408  1.00  0.00     0.000 A 
HETATM   21  C11 UNL     1      29.588  -1.013  53.533  1.00  0.00     0.001 A 
HETATM   22  C12 UNL     1      28.598  -0.146  53.185  1.00  0.00     0.012 A 
ENDBRANCH   7  17
TORSDOF 1
ENDMDL
MODEL 4
REMARK VINA RESULT:      -8.0      2.903      5.091
REMARK  1 active torsions:
REMARK  status: ('A' for Active; 'I' for Inactive)
REMARK    1  A    between atoms: C6_7  and  C7_8 
ROOT
HETATM    1  C1  UNL     1      20.505   2.155  51.212  1.00  0.00     0.101 C 
HETATM    2  C2  UNL     1      21.149   3.114  51.911  1.00  0.00     0.100 C 
HETATM    3  N1  UNL     1      22.425   3.704  52.241  1.00  0.00    -0.392 N 
HETATM    4  C3  UNL     1      23.547   2.904  51.861  1.00  0.00     0.176 C 
HETATM    5  C4  UNL     1      23.748   1.644  52.597  1.00  0.00     0.031 A 
HETATM    6  C5  UNL     1      25.053   1.314  52.680  1.00  0.00     0.039 A 
HETATM    7  C6  UNL     1      25.617   0.143  53.329  1.00  0.00    -0.026 A 
HETATM    8  C13 UNL     1      24.761  -0.685  53.897  1.00  0.00     0.005 A 
HETATM    9  C14 UNL     1      23.310  -0.505  53.915  1.00  0.00     0.158 A 
HETATM   10  N2  UNL     1      22.902   0.697  53.233  1.00  0.00    -0.340 N 
HETATM   11  C15 UNL     1      21.481   0.747  53.326  1.00  0.00     0.205 C 
HETATM   12  N3  UNL     1      21.267   0.342  52.094  1.00  0.00    -0.265 NA
HETATM   13  C16 UNL     1      19.876   0.224  51.656  1.00  0.00     0.271 C 
HETATM   14  N4  UNL     1      19.717   1.161  50.501  1.00  0.00    -0.380 N 
HETATM   15  H3  UNL     1      22.010   4.555  52.662  1.00  0.00     0.159 HD
HETATM   16  H18 UNL     1      19.457   1.606  49.580  1.00  0.00     0.160 HD
ENDROOT
BRANCH   7  17
HETATM   17  C7  UNL     1      27.034  -0.163  53.387  1.00  0.00    -0.026 A 
HETATM   18  C8  UNL     1      27.949   0.755  53.781  1.00  0.00     0.012 A 
HETATM   19  C9  UNL     1      29.306   0.500  53.844  1.00  0.00     0.001 A 
HETATM   20  C10 UNL     1      29.814  -0.752  53.496  1.00  0.00     0.000 A 
HETATM   21  C11 UNL     1      28.891  -1.707  53.089  1.00  0.00     0.001 A 
HETATM   22  C12 UNL     1      27.568  -1.386  53.050  1.00  0.00     0.012 A 
ENDBRANCH   7  17
TORSDOF 1
ENDMDL
MODEL 5
REMARK VINA RESULT:      -7.8      3.383      5.899
REMARK  1 active torsions:
REMARK  status: ('A' for Active; 'I' for Inactive)
REMARK    1  A    between atoms: C6_7  and  C7_8 
ROOT
HETATM    1  C1  UNL     1      28.308   0.485  54.145  1.00  0.00     0.101 C 
HETATM    2  C2  UNL     1      27.404  -0.026  55.007  1.00  0.00     0.100 C 
HETATM    3  N1  UNL     1      26.143  -0.715  55.152  1.00  0.00    -0.392 N 
HETATM    4  C3  UNL     1      25.370  -0.765  53.952  1.00  0.00     0.176 C 
HETATM    5  C4  UNL     1      24.811   0.507  53.465  1.00  0.00     0.031 A 
HETATM    6  C5  UNL     1      23.646   0.326  52.810  1.00  0.00     0.039 A 
HETATM    7  C6  UNL     1      22.820   1.352  52.198  1.00  0.00    -0.026 A 
HETATM    8  C13 UNL     1      23.257   2.593  52.293  1.00  0.00     0.005 A 
HETATM    9  C14 UNL     1      24.495   2.996  52.960  1.00  0.00     0.158 A 
HETATM   10  N2  UNL     1      25.203   1.871  53.516  1.00  0.00    -0.340 N 
HETATM   11  C15 UNL     1      26.375   2.401  54.129  1.00  0.00     0.205 C 
HETATM   12  N3  UNL     1      27.189   2.043  53.161  1.00  0.00    -0.265 NA
HETATM   13  C16 UNL     1      28.606   2.369  53.317  1.00  0.00     0.271 C 
HETATM   14  N4  UNL     1      29.343   1.067  53.303  1.00  0.00    -0.380 N 
HETATM   15  H3  UNL     1      26.289  -0.932  56.155  1.00  0.00     0.159 HD
HETATM   16  H18 UNL     1      30.042   0.295  53.133  1.00  0.00     0.160 HD
ENDROOT
BRANCH   7  17
HETATM   17  C7  UNL     1      21.572   1.098  51.503  1.00  0.00    -0.026 A 
HETATM   18  C8  UNL     1      21.390   1.449  50.207  1.00  0.00     0.012 A 
HETATM   19  C9  UNL     1      20.215   1.226  49.515  1.00  0.00     0.001 A 
HETATM   20  C10 UNL     1      19.128   0.608  50.134  1.00  0.00     0.000 A 
HETATM   21  C11 UNL     1      19.295   0.240  51.463  1.00  0.00     0.001 A 
HETATM   22  C12 UNL     1      20.481   0.491  52.084  1.00  0.00     0.012 A 
ENDBRANCH   7  17
TORSDOF 1
ENDMDL
MODEL 6
REMARK VINA RESULT:      -7.7      3.113      5.744
REMARK  1 active torsions:
REMARK  status: ('A' for Active; 'I' for Inactive)
REMARK    1  A    between atoms: C6_7  and  C7_8 
ROOT
HETATM    1  C1  UNL     1      21.760   6.005  51.039  1.00  0.00     0.101 C 
HETATM    2  C2  UNL     1      21.303   4.757  50.801  1.00  0.00     0.100 C 
HETATM    3  N1  UNL     1      21.366   3.365  51.179  1.00  0.00    -0.392 N 
HETATM    4  C3  UNL     1      22.470   3.047  52.029  1.00  0.00     0.176 C 
HETATM    5  C4  UNL     1      23.814   3.121  51.433  1.00  0.00     0.031 A 
HETATM    6  C5  UNL     1      24.662   2.236  51.996  1.00  0.00     0.039 A 
HETATM    7  C6  UNL     1      26.061   2.033  51.661  1.00  0.00    -0.026 A 
HETATM    8  C13 UNL     1      26.553   2.795  50.703  1.00  0.00     0.005 A 
HETATM    9  C14 UNL     1      25.798   3.813  49.972  1.00  0.00     0.158 A 
HETATM   10  N2  UNL     1      24.430   3.897  50.416  1.00  0.00    -0.340 N 
HETATM   11  C15 UNL     1      23.817   4.915  49.630  1.00  0.00     0.205 C 
HETATM   12  N3  UNL     1      23.857   5.833  50.570  1.00  0.00    -0.265 NA
HETATM   13  C16 UNL     1      23.305   7.149  50.249  1.00  0.00     0.271 C 
HETATM   14  N4  UNL     1      22.187   7.384  51.214  1.00  0.00    -0.380 N 
HETATM   15  H3  UNL     1      20.516   3.102  50.648  1.00  0.00     0.159 HD
HETATM   16  H18 UNL     1      21.509   7.809  51.903  1.00  0.00     0.160 HD
ENDROOT
BRANCH   7  17
HETATM   17  C7  UNL     1      26.929   1.064  52.303  1.00  0.00    -0.026 A 
HETATM   18  C8  UNL     1      28.035   1.438  52.990  1.00  0.00     0.012 A 
HETATM   19  C9  UNL     1      28.886   0.543  53.611  1.00  0.00     0.001 A 
HETATM   20  C10 UNL     1      28.639  -0.829  53.560  1.00  0.00     0.000 A 
HETATM   21  C11 UNL     1      27.509  -1.234  52.860  1.00  0.00     0.001 A 
HETATM   22  C12 UNL     1      26.715  -0.296  52.272  1.00  0.00     0.012 A 
ENDBRANCH   7  17
TORSDOF 1
ENDMDL
MODEL 7
REMARK VINA RESULT:      -7.7      2.864      7.081
REMARK  1 active torsions:
REMARK  status: ('A' for Active; 'I' for Inactive)
REMARK    1  A    between atoms: C6_7  and  C7_8 
ROOT
HETATM    1  C1  UNL     1      25.726   7.013  50.080  1.00  0.00     0.101 C 
HETATM    2  C2  UNL     1      24.476   7.297  50.501  1.00  0.00     0.100 C 
HETATM    3  N1  UNL     1      23.444   7.011  51.471  1.00  0.00    -0.392 N 
HETATM    4  C3  UNL     1      23.682   5.828  52.235  1.00  0.00     0.176 C 
HETATM    5  C4  UNL     1      23.600   4.544  51.519  1.00  0.00     0.031 A 
HETATM    6  C5  UNL     1      23.179   3.546  52.324  1.00  0.00     0.039 A 
HETATM    7  C6  UNL     1      22.984   2.154  51.958  1.00  0.00    -0.026 A 
HETATM    8  C13 UNL     1      23.247   1.832  50.706  1.00  0.00     0.005 A 
HETATM    9  C14 UNL     1      23.713   2.766  49.682  1.00  0.00     0.158 A 
HETATM   10  N2  UNL     1      23.859   4.105  50.193  1.00  0.00    -0.340 N 
HETATM   11  C15 UNL     1      24.313   4.902  49.104  1.00  0.00     0.205 C 
HETATM   12  N3  UNL     1      25.566   4.943  49.500  1.00  0.00    -0.265 NA
HETATM   13  C16 UNL     1      26.509   5.697  48.674  1.00  0.00     0.271 C 
HETATM   14  N4  UNL     1      27.059   6.782  49.544  1.00  0.00    -0.380 N 
HETATM   15  H3  UNL     1      22.876   7.843  51.225  1.00  0.00     0.159 HD
HETATM   16  H18 UNL     1      27.688   7.474  50.032  1.00  0.00     0.160 HD
ENDROOT
BRANCH   7  17
HETATM   17  C7  UNL     1      22.530   1.120  52.869  1.00  0.00    -0.026 A 
HETATM   18  C8  UNL     1      23.371   0.180  53.363  1.00  0.00     0.012 A 
HETATM   19  C9  UNL     1      22.973  -0.821  54.229  1.00  0.00     0.001 A 
HETATM   20  C10 UNL     1      21.646  -0.913  54.650  1.00  0.00     0.000 A 
HETATM   21  C11 UNL     1      20.767   0.041  54.155  1.00  0.00     0.001 A 
HETATM   22  C12 UNL     1      21.229   0.999  53.304  1.00  0.00     0.012 A 
ENDBRANCH   7  17
TORSDOF 1
ENDMDL
MODEL 8
REMARK VINA RESULT:      -7.6      2.704      4.815
REMARK  1 active torsions:
REMARK  status: ('A' for Active; 'I' for Inactive)
REMARK    1  A    between atoms: C6_7  and  C7_8 
ROOT
HETATM    1  C1  UNL     1      20.438   2.420  52.011  1.00  0.00     0.101 C 
HETATM    2  C2  UNL     1      20.599   1.129  51.651  1.00  0.00     0.100 C 
HETATM    3  N1  UNL     1      21.315  -0.102  51.891  1.00  0.00    -0.392 N 
HETATM    4  C3  UNL     1      22.476   0.055  52.710  1.00  0.00     0.176 C 
HETATM    5  C4  UNL     1      23.607   0.797  52.127  1.00  0.00     0.031 A 
HETATM    6  C5  UNL     1      24.791   0.361  52.604  1.00  0.00     0.039 A 
HETATM    7  C6  UNL     1      26.110   0.861  52.253  1.00  0.00    -0.026 A 
HETATM    8  C13 UNL     1      26.152   1.846  51.376  1.00  0.00     0.005 A 
HETATM    9  C14 UNL     1      24.982   2.456  50.746  1.00  0.00     0.158 A 
HETATM   10  N2  UNL     1      23.750   1.857  51.192  1.00  0.00    -0.340 N 
HETATM   11  C15 UNL     1      22.703   2.538  50.508  1.00  0.00     0.205 C 
HETATM   12  N3  UNL     1      22.354   3.283  51.533  1.00  0.00    -0.265 NA
HETATM   13  C16 UNL     1      21.243   4.215  51.341  1.00  0.00     0.271 C 
HETATM   14  N4  UNL     1      20.185   3.818  52.321  1.00  0.00    -0.380 N 
HETATM   15  H3  UNL     1      20.661  -0.682  51.335  1.00  0.00     0.159 HD
HETATM   16  H18 UNL     1      19.418   3.817  53.046  1.00  0.00     0.160 HD
ENDROOT
BRANCH   7  17
HETATM   17  C7  UNL     1      27.354   0.354  52.801  1.00  0.00    -0.026 A 
HETATM   18  C8  UNL     1      28.294   1.176  53.324  1.00  0.00     0.012 A 
HETATM   19  C9  UNL     1      29.491   0.729  53.850  1.00  0.00     0.001 A 
HETATM   20  C10 UNL     1      29.798  -0.632  53.869  1.00  0.00     0.000 A 
HETATM   21  C11 UNL     1      28.847  -1.493  53.337  1.00  0.00     0.001 A 
HETATM   22  C12 UNL     1      27.688  -0.982  52.834  1.00  0.00     0.012 A 
ENDBRANCH   7  17
TORSDOF 1
ENDMDL
MODEL 9
REMARK VINA RESULT:      -7.5      3.295      6.594
REMARK  1 active torsions:
REMARK  status: ('A' for Active; 'I' for Inactive)
REMARK    1  A    between atoms: C6_7  and  C7_8 
ROOT
HETATM    1  C1  UNL     1      27.275   0.041  53.787  1.00  0.00     0.101 C 
HETATM    2  C2  UNL     1      26.580  -0.122  54.933  1.00  0.00     0.100 C 
HETATM    3  N1  UNL     1      25.394  -0.671  55.547  1.00  0.00    -0.392 N 
HETATM    4  C3  UNL     1      24.393  -1.074  54.611  1.00  0.00     0.176 C 
HETATM    5  C4  UNL     1      23.714  -0.006  53.859  1.00  0.00     0.031 A 
HETATM    6  C5  UNL     1      22.444  -0.339  53.549  1.00  0.00     0.039 A 
HETATM    7  C6  UNL     1      21.485   0.468  52.815  1.00  0.00    -0.026 A 
HETATM    8  C13 UNL     1      21.900   1.652  52.408  1.00  0.00     0.005 A 
HETATM    9  C14 UNL     1      23.238   2.195  52.643  1.00  0.00     0.158 A 
HETATM   10  N2  UNL     1      24.073   1.282  53.381  1.00  0.00    -0.340 N 
HETATM   11  C15 UNL     1      25.332   1.930  53.537  1.00  0.00     0.205 C 
HETATM   12  N3  UNL     1      25.939   1.242  52.596  1.00  0.00    -0.265 NA
HETATM   13  C16 UNL     1      27.350   1.539  52.347  1.00  0.00     0.271 C 
HETATM   14  N4  UNL     1      28.100   0.272  52.611  1.00  0.00    -0.380 N 
HETATM   15  H3  UNL     1      25.748  -0.556  56.514  1.00  0.00     0.159 HD
HETATM   16  H18 UNL     1      28.769  -0.543  52.566  1.00  0.00     0.160 HD
ENDROOT
BRANCH   7  17
HETATM   17  C7  UNL     1      20.127   0.056  52.508  1.00  0.00    -0.026 A 
HETATM   18  C8  UNL     1      19.399  -0.701  53.362  1.00  0.00     0.012 A 
HETATM   19  C9  UNL     1      18.106  -1.115  53.102  1.00  0.00     0.001 A 
HETATM   20  C10 UNL     1      17.470  -0.761  51.912  1.00  0.00     0.000 A 
HETATM   21  C11 UNL     1      18.200   0.016  51.022  1.00  0.00     0.001 A 
HETATM   22  C12 UNL     1      19.470   0.387  51.344  1.00  0.00     0.012 A 
ENDBRANCH   7  17
TORSDOF 1
ENDMDL
