MODEL 1
REMARK VINA RESULT:     -10.0      0.000      0.000
REMARK  0 active torsions:
REMARK  status: ('A' for Active; 'I' for Inactive)
ROOT
HETATM    1  C1  UNL     1      21.921   1.364  48.997  1.00  0.00     0.082 C 
HETATM    2  C2  UNL     1      21.511   2.120  50.271  1.00  0.00     0.263 C 
HETATM    3  C3  UNL     1      21.852   3.583  50.115  1.00  0.00     0.106 C 
HETATM    4  C4  UNL     1      23.361   3.737  50.272  1.00  0.00    -0.071 C 
HETATM    5  C5  UNL     1      24.329   3.731  49.317  1.00  0.00     0.003 C 
HETATM    6  C6  UNL     1      25.698   3.207  49.602  1.00  0.00     0.001 C 
HETATM    7  C7  UNL     1      26.054   2.694  50.850  1.00  0.00     0.008 C 
HETATM    8  C8  UNL     1      24.870   2.629  51.770  1.00  0.00    -0.038 C 
HETATM    9  C9  UNL     1      24.769   1.487  52.433  1.00  0.00     0.046 C 
HETATM   10  C10 UNL     1      25.715   0.330  52.356  1.00  0.00     0.253 C 
HETATM   11  O1  UNL     1      26.894   0.182  51.853  1.00  0.00    -0.268 OA
HETATM   12  N1  UNL     1      25.245  -0.851  52.947  1.00  0.00    -0.353 N 
HETATM   13  C11 UNL     1      24.231  -0.404  53.932  1.00  0.00     0.162 C 
HETATM   14  C12 UNL     1      23.737   0.736  53.153  1.00  0.00    -0.020 C 
HETATM   15  C13 UNL     1      22.449   0.912  53.247  1.00  0.00    -0.039 C 
HETATM   16  C14 UNL     1      21.330   0.266  53.878  1.00  0.00     0.078 C 
HETATM   17  C15 UNL     1      20.147   0.135  52.888  1.00  0.00    -0.021 A 
HETATM   18  C16 UNL     1      19.381  -0.804  53.512  1.00  0.00     0.010 A 
HETATM   19  C17 UNL     1      18.198  -1.163  52.907  1.00  0.00     0.001 A 
HETATM   20  C18 UNL     1      17.845  -0.567  51.716  1.00  0.00     0.003 A 
HETATM   21  C19 UNL     1      18.618   0.379  51.086  1.00  0.00     0.037 A 
HETATM   22  C20 UNL     1      19.833   0.779  51.663  1.00  0.00     0.078 A 
HETATM   23  O2  UNL     1      20.313   1.717  50.770  1.00  0.00    -0.310 OA
HETATM   24  C21 UNL     1      21.997   2.183  52.603  1.00  0.00     0.308 C 
HETATM   25  N2  UNL     1      22.452   1.901  51.314  1.00  0.00     0.122 NA
HETATM   26  C22 UNL     1      24.132   3.879  51.599  1.00  0.00     0.073 C 
HETATM   27  H9  UNL     1      25.468  -1.845  52.809  1.00  0.00     0.163 HD
HETATM   28  H20 UNL     1      22.768   0.898  51.095  1.00  0.00     0.320 HD
ENDROOT
TORSDOF 0
ENDMDL
MODEL 2
REMARK VINA RESULT:      -9.6      2.212      5.784
REMARK  0 active torsions:
REMARK  status: ('A' for Active; 'I' for Inactive)
ROOT
HETATM    1  C1  UNL     1      24.295   3.991  53.080  1.00  0.00     0.082 C 
HETATM    2  C2  UNL     1      24.790   2.868  52.153  1.00  0.00     0.263 C 
HETATM    3  C3  UNL     1      24.204   3.064  50.776  1.00  0.00     0.106 C 
HETATM    4  C4  UNL     1      22.737   2.648  50.822  1.00  0.00    -0.071 C 
HETATM    5  C5  UNL     1      21.636   3.411  51.057  1.00  0.00     0.003 C 
HETATM    6  C6  UNL     1      20.432   2.847  51.738  1.00  0.00     0.001 C 
HETATM    7  C7  UNL     1      20.374   1.523  52.172  1.00  0.00     0.008 C 
HETATM    8  C8  UNL     1      21.691   0.829  51.980  1.00  0.00    -0.038 C 
HETATM    9  C9  UNL     1      22.079   0.116  53.027  1.00  0.00     0.046 C 
HETATM   10  C10 UNL     1      21.326  -0.062  54.307  1.00  0.00     0.253 C 
HETATM   11  O1  UNL     1      20.116   0.209  54.669  1.00  0.00    -0.268 OA
HETATM   12  N1  UNL     1      22.066  -0.641  55.347  1.00  0.00    -0.353 N 
HETATM   13  C11 UNL     1      23.148  -1.393  54.668  1.00  0.00     0.162 C 
HETATM   14  C12 UNL     1      23.321  -0.459  53.551  1.00  0.00    -0.020 C 
HETATM   15  C13 UNL     1      24.563  -0.306  53.187  1.00  0.00    -0.039 C 
HETATM   16  C14 UNL     1      25.859  -0.770  53.604  1.00  0.00     0.078 C 
HETATM   17  C15 UNL     1      26.865   0.405  53.663  1.00  0.00    -0.021 A 
HETATM   18  C16 UNL     1      27.861  -0.136  54.419  1.00  0.00     0.010 A 
HETATM   19  C17 UNL     1      28.968   0.645  54.664  1.00  0.00     0.001 A 
HETATM   20  C18 UNL     1      29.019   1.920  54.143  1.00  0.00     0.003 A 
HETATM   21  C19 UNL     1      28.014   2.466  53.381  1.00  0.00     0.037 A 
HETATM   22  C20 UNL     1      26.865   1.709  53.102  1.00  0.00     0.078 A 
HETATM   23  O2  UNL     1      26.102   2.566  52.333  1.00  0.00    -0.310 OA
HETATM   24  C21 UNL     1      24.697   0.497  51.934  1.00  0.00     0.308 C 
HETATM   25  N2  UNL     1      24.082   1.659  52.400  1.00  0.00     0.122 NA
HETATM   26  C22 UNL     1      22.186   1.218  50.662  1.00  0.00     0.073 C 
HETATM   27  H9  UNL     1      21.981  -0.616  56.371  1.00  0.00     0.163 HD
HETATM   28  H20 UNL     1      23.894   1.746  53.455  1.00  0.00     0.320 HD
ENDROOT
TORSDOF 0
ENDMDL
MODEL 3
REMARK VINA RESULT:      -9.2      2.483      6.275
REMARK  0 active torsions:
REMARK  status: ('A' for Active; 'I' for Inactive)
ROOT
HETATM    1  C1  UNL     1      22.527   5.633  51.299  1.00  0.00     0.082 C 
HETATM    2  C2  UNL     1      22.942   4.854  50.041  1.00  0.00     0.263 C 
HETATM    3  C3  UNL     1      21.805   3.959  49.610  1.00  0.00     0.106 C 
HETATM    4  C4  UNL     1      21.749   2.771  50.566  1.00  0.00    -0.071 C 
HETATM    5  C5  UNL     1      21.023   2.620  51.706  1.00  0.00     0.003 C 
HETATM    6  C6  UNL     1      21.533   1.806  52.849  1.00  0.00     0.001 C 
HETATM    7  C7  UNL     1      22.773   1.168  52.814  1.00  0.00     0.008 C 
HETATM    8  C8  UNL     1      23.531   1.521  51.568  1.00  0.00    -0.038 C 
HETATM    9  C9  UNL     1      24.804   1.823  51.784  1.00  0.00     0.046 C 
HETATM   10  C10 UNL     1      25.507   1.810  53.103  1.00  0.00     0.253 C 
HETATM   11  O1  UNL     1      25.197   1.349  54.269  1.00  0.00    -0.268 OA
HETATM   12  N1  UNL     1      26.769   2.420  53.101  1.00  0.00    -0.353 N 
HETATM   13  C11 UNL     1      27.214   2.362  51.687  1.00  0.00     0.162 C 
HETATM   14  C12 UNL     1      25.886   2.527  51.090  1.00  0.00    -0.020 C 
HETATM   15  C13 UNL     1      25.886   3.263  50.015  1.00  0.00    -0.039 C 
HETATM   16  C14 UNL     1      26.835   4.020  49.243  1.00  0.00     0.078 C 
HETATM   17  C15 UNL     1      26.260   5.413  48.888  1.00  0.00    -0.021 A 
HETATM   18  C16 UNL     1      27.391   6.083  48.529  1.00  0.00     0.010 A 
HETATM   19  C17 UNL     1      27.252   7.390  48.118  1.00  0.00     0.001 A 
HETATM   20  C18 UNL     1      25.995   7.954  48.087  1.00  0.00     0.003 A 
HETATM   21  C19 UNL     1      24.854   7.278  48.450  1.00  0.00     0.037 A 
HETATM   22  C20 UNL     1      24.944   5.944  48.877  1.00  0.00     0.078 A 
HETATM   23  O2  UNL     1      23.631   5.611  49.147  1.00  0.00    -0.310 OA
HETATM   24  C21 UNL     1      24.562   3.262  49.321  1.00  0.00     0.308 C 
HETATM   25  N2  UNL     1      23.807   3.775  50.375  1.00  0.00     0.122 NA
HETATM   26  C22 UNL     1      22.576   1.475  50.464  1.00  0.00     0.073 C 
HETATM   27  H9  UNL     1      27.347   2.848  53.835  1.00  0.00     0.163 HD
HETATM   28  H20 UNL     1      24.329   4.188  51.219  1.00  0.00     0.320 HD
ENDROOT
TORSDOF 0
ENDMDL
MODEL 4
REMARK VINA RESULT:      -9.1      1.673      5.987
REMARK  0 active torsions:
REMARK  status: ('A' for Active; 'I' for Inactive)
ROOT
HETATM    1  C1  UNL     1      22.618  -1.463  52.705  1.00  0.00     0.082 C 
HETATM    2  C2  UNL     1      22.840  -0.116  53.413  1.00  0.00     0.263 C 
HETATM    3  C3  UNL     1      21.630   0.210  54.255  1.00  0.00     0.106 C 
HETATM    4  C4  UNL     1      20.511   0.662  53.321  1.00  0.00    -0.071 C 
HETATM    5  C5  UNL     1      19.524  -0.075  52.746  1.00  0.00     0.003 C 
HETATM    6  C6  UNL     1      18.970   0.280  51.405  1.00  0.00     0.001 C 
HETATM    7  C7  UNL     1      19.436   1.373  50.673  1.00  0.00     0.008 C 
HETATM    8  C8  UNL     1      20.611   2.019  51.348  1.00  0.00    -0.038 C 
HETATM    9  C9  UNL     1      21.611   2.302  50.526  1.00  0.00     0.046 C 
HETATM   10  C10 UNL     1      21.642   2.064  49.050  1.00  0.00     0.253 C 
HETATM   11  O1  UNL     1      20.737   1.750  48.185  1.00  0.00    -0.268 OA
HETATM   12  N1  UNL     1      22.905   2.205  48.459  1.00  0.00    -0.353 N 
HETATM   13  C11 UNL     1      23.658   3.088  49.383  1.00  0.00     0.162 C 
HETATM   14  C12 UNL     1      23.045   2.592  50.619  1.00  0.00    -0.020 C 
HETATM   15  C13 UNL     1      23.879   2.509  51.617  1.00  0.00    -0.039 C 
HETATM   16  C14 UNL     1      25.280   2.730  51.855  1.00  0.00     0.078 C 
HETATM   17  C15 UNL     1      25.888   1.555  52.660  1.00  0.00    -0.021 A 
HETATM   18  C16 UNL     1      27.220   1.746  52.444  1.00  0.00     0.010 A 
HETATM   19  C17 UNL     1      28.093   0.870  53.048  1.00  0.00     0.001 A 
HETATM   20  C18 UNL     1      27.590  -0.145  53.833  1.00  0.00     0.003 A 
HETATM   21  C19 UNL     1      26.247  -0.338  54.050  1.00  0.00     0.037 A 
HETATM   22  C20 UNL     1      25.316   0.529  53.456  1.00  0.00     0.078 A 
HETATM   23  O2  UNL     1      24.102   0.034  53.892  1.00  0.00    -0.310 OA
HETATM   24  C21 UNL     1      23.197   2.185  52.907  1.00  0.00     0.308 C 
HETATM   25  N2  UNL     1      22.640   0.968  52.514  1.00  0.00     0.122 NA
HETATM   26  C22 UNL     1      20.296   2.085  52.773  1.00  0.00     0.073 C 
HETATM   27  H9  UNL     1      23.327   1.832  47.600  1.00  0.00     0.163 HD
HETATM   28  H20 UNL     1      22.977   0.530  51.591  1.00  0.00     0.320 HD
ENDROOT
TORSDOF 0
ENDMDL
MODEL 5
REMARK VINA RESULT:      -9.0      5.563      9.685
REMARK  0 active torsions:
REMARK  status: ('A' for Active; 'I' for Inactive)
ROOT
HETATM    1  C1  UNL     1      27.388   9.452  50.279  1.00  0.00     0.082 C 
HETATM    2  C2  UNL     1      27.659   8.939  48.856  1.00  0.00     0.263 C 
HETATM    3  C3  UNL     1      26.702   9.603  47.895  1.00  0.00     0.106 C 
HETATM    4  C4  UNL     1      25.329   8.963  48.076  1.00  0.00    -0.071 C 
HETATM    5  C5  UNL     1      24.301   9.350  48.878  1.00  0.00     0.003 C 
HETATM    6  C6  UNL     1      23.365   8.351  49.477  1.00  0.00     0.001 C 
HETATM    7  C7  UNL     1      23.498   6.980  49.255  1.00  0.00     0.008 C 
HETATM    8  C8  UNL     1      24.742   6.673  48.473  1.00  0.00    -0.038 C 
HETATM    9  C9  UNL     1      25.442   5.657  48.957  1.00  0.00     0.046 C 
HETATM   10  C10 UNL     1      25.087   4.822  50.146  1.00  0.00     0.253 C 
HETATM   11  O1  UNL     1      24.015   4.700  50.855  1.00  0.00    -0.268 OA
HETATM   12  N1  UNL     1      26.116   3.990  50.606  1.00  0.00    -0.353 N 
HETATM   13  C11 UNL     1      27.002   3.799  49.432  1.00  0.00     0.162 C 
HETATM   14  C12 UNL     1      26.808   5.136  48.862  1.00  0.00    -0.020 C 
HETATM   15  C13 UNL     1      27.889   5.641  48.338  1.00  0.00    -0.039 C 
HETATM   16  C14 UNL     1      29.272   5.273  48.189  1.00  0.00     0.078 C 
HETATM   17  C15 UNL     1      30.194   6.462  48.551  1.00  0.00    -0.021 A 
HETATM   18  C16 UNL     1      31.388   5.829  48.726  1.00  0.00     0.010 A 
HETATM   19  C17 UNL     1      32.478   6.606  49.045  1.00  0.00     0.001 A 
HETATM   20  C18 UNL     1      32.318   7.969  49.171  1.00  0.00     0.003 A 
HETATM   21  C19 UNL     1      31.114   8.608  48.995  1.00  0.00     0.037 A 
HETATM   22  C20 UNL     1      29.972   7.859  48.669  1.00  0.00     0.078 A 
HETATM   23  O2  UNL     1      28.983   8.818  48.574  1.00  0.00    -0.310 OA
HETATM   24  C21 UNL     1      27.627   6.914  47.600  1.00  0.00     0.308 C 
HETATM   25  N2  UNL     1      27.110   7.639  48.673  1.00  0.00     0.122 NA
HETATM   26  C22 UNL     1      24.828   7.668  47.407  1.00  0.00     0.073 C 
HETATM   27  H9  UNL     1      26.320   3.557  51.516  1.00  0.00     0.163 HD
HETATM   28  H20 UNL     1      27.220   7.231  49.662  1.00  0.00     0.320 HD
ENDROOT
TORSDOF 0
ENDMDL
MODEL 6
REMARK VINA RESULT:      -8.9      1.900      4.458
REMARK  0 active torsions:
REMARK  status: ('A' for Active; 'I' for Inactive)
ROOT
HETATM    1  C1  UNL     1      24.464   3.154  53.160  1.00  0.00     0.082 C 
HETATM    2  C2  UNL     1      24.241   2.048  52.117  1.00  0.00     0.263 C 
HETATM    3  C3  UNL     1      25.269   2.182  51.019  1.00  0.00     0.106 C 
HETATM    4  C4  UNL     1      24.871   3.363  50.140  1.00  0.00    -0.071 C 
HETATM    5  C5  UNL     1      25.253   4.666  50.228  1.00  0.00     0.003 C 
HETATM    6  C6  UNL     1      24.337   5.772  49.818  1.00  0.00     0.001 C 
HETATM    7  C7  UNL     1      23.050   5.534  49.335  1.00  0.00     0.008 C 
HETATM    8  C8  UNL     1      22.701   4.076  49.414  1.00  0.00    -0.038 C 
HETATM    9  C9  UNL     1      21.491   3.842  49.901  1.00  0.00     0.046 C 
HETATM   10  C10 UNL     1      20.492   4.870  50.327  1.00  0.00     0.253 C 
HETATM   11  O1  UNL     1      20.415   6.149  50.171  1.00  0.00    -0.268 OA
HETATM   12  N1  UNL     1      19.401   4.364  51.047  1.00  0.00    -0.353 N 
HETATM   13  C11 UNL     1      19.317   2.936  50.654  1.00  0.00     0.162 C 
HETATM   14  C12 UNL     1      20.759   2.723  50.502  1.00  0.00    -0.020 C 
HETATM   15  C13 UNL     1      21.159   1.552  50.911  1.00  0.00    -0.039 C 
HETATM   16  C14 UNL     1      20.583   0.387  51.527  1.00  0.00     0.078 C 
HETATM   17  C15 UNL     1      21.469  -0.104  52.698  1.00  0.00    -0.021 A 
HETATM   18  C16 UNL     1      20.602  -0.918  53.364  1.00  0.00     0.010 A 
HETATM   19  C17 UNL     1      21.072  -1.565  54.485  1.00  0.00     0.001 A 
HETATM   20  C18 UNL     1      22.377  -1.365  54.878  1.00  0.00     0.003 A 
HETATM   21  C19 UNL     1      23.252  -0.544  54.207  1.00  0.00     0.037 A 
HETATM   22  C20 UNL     1      22.820   0.138  53.058  1.00  0.00     0.078 A 
HETATM   23  O2  UNL     1      23.943   0.843  52.670  1.00  0.00    -0.310 OA
HETATM   24  C21 UNL     1      22.591   1.286  50.575  1.00  0.00     0.308 C 
HETATM   25  N2  UNL     1      23.140   2.362  51.272  1.00  0.00     0.122 NA
HETATM   26  C22 UNL     1      23.876   3.334  48.964  1.00  0.00     0.073 C 
HETATM   27  H9  UNL     1      18.746   4.781  51.721  1.00  0.00     0.163 HD
HETATM   28  H20 UNL     1      22.509   2.901  51.954  1.00  0.00     0.320 HD
ENDROOT
TORSDOF 0
ENDMDL
MODEL 7
REMARK VINA RESULT:      -8.8      2.061      5.542
REMARK  0 active torsions:
REMARK  status: ('A' for Active; 'I' for Inactive)
ROOT
HETATM    1  C1  UNL     1      22.308   3.846  53.191  1.00  0.00     0.082 C 
HETATM    2  C2  UNL     1      22.498   3.142  51.838  1.00  0.00     0.263 C 
HETATM    3  C3  UNL     1      21.327   2.223  51.585  1.00  0.00     0.106 C 
HETATM    4  C4  UNL     1      21.491   0.992  52.471  1.00  0.00    -0.071 C 
HETATM    5  C5  UNL     1      21.001   0.762  53.719  1.00  0.00     0.003 C 
HETATM    6  C6  UNL     1      21.746  -0.083  54.701  1.00  0.00     0.001 C 
HETATM    7  C7  UNL     1      22.975  -0.669  54.399  1.00  0.00     0.008 C 
HETATM    8  C8  UNL     1      23.470  -0.230  53.051  1.00  0.00    -0.038 C 
HETATM    9  C9  UNL     1      24.750   0.112  53.037  1.00  0.00     0.046 C 
HETATM   10  C10 UNL     1      25.693   0.068  54.196  1.00  0.00     0.253 C 
HETATM   11  O1  UNL     1      25.626  -0.457  55.374  1.00  0.00    -0.268 OA
HETATM   12  N1  UNL     1      26.912   0.726  53.986  1.00  0.00    -0.353 N 
HETATM   13  C11 UNL     1      27.080   0.750  52.513  1.00  0.00     0.162 C 
HETATM   14  C12 UNL     1      25.657   0.888  52.187  1.00  0.00    -0.020 C 
HETATM   15  C13 UNL     1      25.429   1.672  51.171  1.00  0.00    -0.039 C 
HETATM   16  C14 UNL     1      26.189   2.500  50.274  1.00  0.00     0.078 C 
HETATM   17  C15 UNL     1      25.515   3.883  50.106  1.00  0.00    -0.021 A 
HETATM   18  C16 UNL     1      26.536   4.613  49.574  1.00  0.00     0.010 A 
HETATM   19  C17 UNL     1      26.281   5.930  49.265  1.00  0.00     0.001 A 
HETATM   20  C18 UNL     1      25.025   6.445  49.503  1.00  0.00     0.003 A 
HETATM   21  C19 UNL     1      23.996   5.709  50.040  1.00  0.00     0.037 A 
HETATM   22  C20 UNL     1      24.206   4.361  50.372  1.00  0.00     0.078 A 
HETATM   23  O2  UNL     1      22.980   3.965  50.870  1.00  0.00    -0.310 OA
HETATM   24  C21 UNL     1      23.998   1.649  50.742  1.00  0.00     0.308 C 
HETATM   25  N2  UNL     1      23.443   2.085  51.946  1.00  0.00     0.122 NA
HETATM   26  C22 UNL     1      22.323  -0.264  52.147  1.00  0.00     0.073 C 
HETATM   27  H9  UNL     1      27.607   1.144  54.618  1.00  0.00     0.163 HD
HETATM   28  H20 UNL     1      24.104   2.479  52.696  1.00  0.00     0.320 HD
ENDROOT
TORSDOF 0
ENDMDL
MODEL 8
REMARK VINA RESULT:      -8.5      2.203      4.069
REMARK  0 active torsions:
REMARK  status: ('A' for Active; 'I' for Inactive)
ROOT
HETATM    1  C1  UNL     1      21.510   0.006  54.989  1.00  0.00     0.082 C 
HETATM    2  C2  UNL     1      21.494  -0.477  53.530  1.00  0.00     0.263 C 
HETATM    3  C3  UNL     1      22.777  -1.216  53.235  1.00  0.00     0.106 C 
HETATM    4  C4  UNL     1      23.893  -0.186  53.088  1.00  0.00    -0.071 C 
HETATM    5  C5  UNL     1      24.751   0.290  54.030  1.00  0.00     0.003 C 
HETATM    6  C6  UNL     1      25.274   1.688  53.968  1.00  0.00     0.001 C 
HETATM    7  C7  UNL     1      24.909   2.575  52.954  1.00  0.00     0.008 C 
HETATM    8  C8  UNL     1      23.860   1.979  52.061  1.00  0.00    -0.038 C 
HETATM    9  C9  UNL     1      22.862   2.805  51.783  1.00  0.00     0.046 C 
HETATM   10  C10 UNL     1      22.726   4.220  52.248  1.00  0.00     0.253 C 
HETATM   11  O1  UNL     1      23.539   5.050  52.811  1.00  0.00    -0.268 OA
HETATM   12  N1  UNL     1      21.461   4.787  52.038  1.00  0.00    -0.353 N 
HETATM   13  C11 UNL     1      20.872   3.998  50.929  1.00  0.00     0.162 C 
HETATM   14  C12 UNL     1      21.482   2.716  51.297  1.00  0.00    -0.020 C 
HETATM   15  C13 UNL     1      20.697   1.693  51.111  1.00  0.00    -0.039 C 
HETATM   16  C14 UNL     1      19.348   1.452  50.674  1.00  0.00     0.078 C 
HETATM   17  C15 UNL     1      18.642   0.446  51.616  1.00  0.00    -0.021 A 
HETATM   18  C16 UNL     1      17.334   0.650  51.289  1.00  0.00     0.010 A 
HETATM   19  C17 UNL     1      16.392  -0.117  51.936  1.00  0.00     0.001 A 
HETATM   20  C18 UNL     1      16.805  -1.042  52.870  1.00  0.00     0.003 A 
HETATM   21  C19 UNL     1      18.123  -1.247  53.200  1.00  0.00     0.037 A 
HETATM   22  C20 UNL     1      19.122  -0.490  52.568  1.00  0.00     0.078 A 
HETATM   23  O2  UNL     1      20.286  -0.963  53.142  1.00  0.00    -0.310 OA
HETATM   24  C21 UNL     1      21.399   0.389  51.312  1.00  0.00     0.308 C 
HETATM   25  N2  UNL     1      21.779   0.594  52.639  1.00  0.00     0.122 NA
HETATM   26  C22 UNL     1      24.254   0.595  51.810  1.00  0.00     0.073 C 
HETATM   27  H9  UNL     1      20.952   5.559  52.485  1.00  0.00     0.163 HD
HETATM   28  H20 UNL     1      21.344   1.421  53.169  1.00  0.00     0.320 HD
ENDROOT
TORSDOF 0
ENDMDL
MODEL 9
REMARK VINA RESULT:      -8.4      1.721      2.633
REMARK  0 active torsions:
REMARK  status: ('A' for Active; 'I' for Inactive)
ROOT
HETATM    1  C1  UNL     1      21.256   2.084  49.438  1.00  0.00     0.082 C 
HETATM    2  C2  UNL     1      21.297   2.698  50.846  1.00  0.00     0.263 C 
HETATM    3  C3  UNL     1      20.873   4.145  50.771  1.00  0.00     0.106 C 
HETATM    4  C4  UNL     1      22.025   4.947  50.173  1.00  0.00    -0.071 C 
HETATM    5  C5  UNL     1      22.260   5.273  48.874  1.00  0.00     0.003 C 
HETATM    6  C6  UNL     1      23.651   5.417  48.349  1.00  0.00     0.001 C 
HETATM    7  C7  UNL     1      24.775   5.219  49.153  1.00  0.00     0.008 C 
HETATM    8  C8  UNL     1      24.387   4.732  50.519  1.00  0.00    -0.038 C 
HETATM    9  C9  UNL     1      25.123   3.720  50.954  1.00  0.00     0.046 C 
HETATM   10  C10 UNL     1      26.268   3.080  50.235  1.00  0.00     0.253 C 
HETATM   11  O1  UNL     1      26.954   3.410  49.192  1.00  0.00    -0.268 OA
HETATM   12  N1  UNL     1      26.705   1.869  50.788  1.00  0.00    -0.353 N 
HETATM   13  C11 UNL     1      26.270   1.921  52.204  1.00  0.00     0.162 C 
HETATM   14  C12 UNL     1      25.029   2.665  51.968  1.00  0.00    -0.020 C 
HETATM   15  C13 UNL     1      24.038   2.277  52.720  1.00  0.00    -0.039 C 
HETATM   16  C14 UNL     1      23.788   1.271  53.717  1.00  0.00     0.078 C 
HETATM   17  C15 UNL     1      22.441   0.558  53.446  1.00  0.00    -0.021 A 
HETATM   18  C16 UNL     1      22.574  -0.560  54.214  1.00  0.00     0.010 A 
HETATM   19  C17 UNL     1      21.519  -1.445  54.235  1.00  0.00     0.001 A 
HETATM   20  C18 UNL     1      20.394  -1.165  53.491  1.00  0.00     0.003 A 
HETATM   21  C19 UNL     1      20.260  -0.038  52.716  1.00  0.00     0.037 A 
HETATM   22  C20 UNL     1      21.308   0.894  52.661  1.00  0.00     0.078 A 
HETATM   23  O2  UNL     1      20.821   1.865  51.807  1.00  0.00    -0.310 OA
HETATM   24  C21 UNL     1      22.844   3.168  52.597  1.00  0.00     0.308 C 
HETATM   25  N2  UNL     1      22.634   2.998  51.228  1.00  0.00     0.122 NA
HETATM   26  C22 UNL     1      23.233   5.522  50.938  1.00  0.00     0.073 C 
HETATM   27  H9  UNL     1      27.208   1.059  50.404  1.00  0.00     0.163 HD
HETATM   28  H20 UNL     1      23.170   2.213  50.726  1.00  0.00     0.320 HD
ENDROOT
TORSDOF 0
ENDMDL
