MODEL 1
REMARK VINA RESULT:      -7.3      0.000      0.000
REMARK  5 active torsions:
REMARK  status: ('A' for Active; 'I' for Inactive)
REMARK    1  A    between atoms: O1_2  and  C2_3 
REMARK    2  A    between atoms: C6_9  and  C7_10 
REMARK    3  A    between atoms: C7_10  and  N3_11 
REMARK    4  A    between atoms: N3_11  and  C8_12 
REMARK    5  A    between atoms: C16_20  and  O2_21 
ROOT
HETATM    1  C2  UNL     1      28.188   0.303  53.509  1.00  0.00     0.102 C 
HETATM    2  C3  UNL     1      27.745  -0.727  52.705  1.00  0.00     0.059 C 
HETATM    3  C4  UNL     1      26.512  -1.338  52.845  1.00  0.00     0.121 C 
HETATM    4  N1  UNL     1      25.208  -1.041  53.060  1.00  0.00    -0.254 NA
HETATM    5  C5  UNL     1      24.733  -0.174  53.944  1.00  0.00     0.232 C 
HETATM    6  N2  UNL     1      24.367   0.447  52.798  1.00  0.00    -0.245 NA
HETATM    7  C6  UNL     1      24.592   1.809  52.892  1.00  0.00     0.053 C 
HETATM    8  C14 UNL     1      25.584   2.461  53.621  1.00  0.00     0.032 C 
HETATM    9  C15 UNL     1      26.967   2.486  53.474  1.00  0.00     0.041 C 
HETATM   10  C16 UNL     1      28.081   1.676  53.704  1.00  0.00     0.099 C 
ENDROOT
BRANCH   7  11
HETATM   11  C7  UNL     1      23.630   2.576  52.101  1.00  0.00     0.179 C 
BRANCH  11  12
HETATM   12  N3  UNL     1      23.958   2.502  50.678  1.00  0.00    -0.384 N 
HETATM   13  H9  UNL     1      23.535   1.749  50.086  1.00  0.00     0.160 HD
BRANCH  12  14
HETATM   14  C8  UNL     1      24.836   3.429  50.076  1.00  0.00     0.028 A 
HETATM   15  C9  UNL     1      26.176   3.135  49.859  1.00  0.00     0.029 A 
HETATM   16  C10 UNL     1      26.993   4.091  49.261  1.00  0.00     0.002 A 
HETATM   17  C11 UNL     1      26.533   5.334  48.868  1.00  0.00     0.000 A 
HETATM   18  C12 UNL     1      25.195   5.584  49.104  1.00  0.00     0.002 A 
HETATM   19  C13 UNL     1      24.358   4.659  49.694  1.00  0.00     0.029 A 
ENDBRANCH  12  14
ENDBRANCH  11  12
ENDBRANCH   7  11
BRANCH  10  20
HETATM   20  O2  UNL     1      29.195   2.292  54.175  1.00  0.00    -0.358 OA
HETATM   21  H17 UNL     1      29.332   2.690  55.097  1.00  0.00     0.217 HD
ENDBRANCH  10  20
BRANCH   1  22
HETATM   22  O1  UNL     1      29.015  -0.402  54.377  1.00  0.00    -0.353 OA
HETATM   23  C1  UNL     1      30.091  -1.186  53.973  1.00  0.00     0.210 C 
ENDBRANCH   1  22
TORSDOF 5
ENDMDL
MODEL 2
REMARK VINA RESULT:      -7.3      2.726      5.100
REMARK  5 active torsions:
REMARK  status: ('A' for Active; 'I' for Inactive)
REMARK    1  A    between atoms: O1_2  and  C2_3 
REMARK    2  A    between atoms: C6_9  and  C7_10 
REMARK    3  A    between atoms: C7_10  and  N3_11 
REMARK    4  A    between atoms: N3_11  and  C8_12 
REMARK    5  A    between atoms: C16_20  and  O2_21 
ROOT
HETATM    1  C2  UNL     1      28.567  -0.931  53.690  1.00  0.00     0.102 C 
HETATM    2  C3  UNL     1      28.846   0.016  54.654  1.00  0.00     0.059 C 
HETATM    3  C4  UNL     1      28.836   1.379  54.422  1.00  0.00     0.121 C 
HETATM    4  N1  UNL     1      28.107   2.335  53.798  1.00  0.00    -0.254 NA
HETATM    5  C5  UNL     1      27.580   2.256  52.583  1.00  0.00     0.232 C 
HETATM    6  N2  UNL     1      26.446   2.308  53.320  1.00  0.00    -0.245 NA
HETATM    7  C6  UNL     1      25.509   1.413  52.833  1.00  0.00     0.053 C 
HETATM    8  C14 UNL     1      25.743   0.193  52.203  1.00  0.00     0.032 C 
HETATM    9  C15 UNL     1      26.281  -0.998  52.677  1.00  0.00     0.041 C 
HETATM   10  C16 UNL     1      27.516  -1.551  53.023  1.00  0.00     0.099 C 
ENDROOT
BRANCH   7  11
HETATM   11  C7  UNL     1      24.141   1.885  53.049  1.00  0.00     0.179 C 
BRANCH  11  12
HETATM   12  N3  UNL     1      23.193   1.086  52.274  1.00  0.00    -0.384 N 
HETATM   13  H9  UNL     1      23.211   1.129  51.228  1.00  0.00     0.160 HD
BRANCH  12  14
HETATM   14  C8  UNL     1      22.248   0.249  52.905  1.00  0.00     0.028 A 
HETATM   15  C9  UNL     1      20.896   0.303  52.592  1.00  0.00     0.029 A 
HETATM   16  C10 UNL     1      20.012  -0.549  53.250  1.00  0.00     0.002 A 
HETATM   17  C11 UNL     1      20.416  -1.456  54.211  1.00  0.00     0.000 A 
HETATM   18  C12 UNL     1      21.768  -1.476  54.491  1.00  0.00     0.002 A 
HETATM   19  C13 UNL     1      22.671  -0.646  53.858  1.00  0.00     0.029 A 
ENDBRANCH  12  14
ENDBRANCH  11  12
ENDBRANCH   7  11
BRANCH  10  20
HETATM   20  O2  UNL     1      27.725  -2.844  52.669  1.00  0.00    -0.358 OA
HETATM   21  H17 UNL     1      27.240  -3.370  51.950  1.00  0.00     0.217 HD
ENDBRANCH  10  20
BRANCH   1  22
HETATM   22  O1  UNL     1      29.857  -1.322  53.349  1.00  0.00    -0.353 OA
HETATM   23  C1  UNL     1      30.710  -2.031  54.188  1.00  0.00     0.210 C 
ENDBRANCH   1  22
TORSDOF 5
ENDMDL
MODEL 3
REMARK VINA RESULT:      -7.1      3.426      6.534
REMARK  5 active torsions:
REMARK  status: ('A' for Active; 'I' for Inactive)
REMARK    1  A    between atoms: O1_2  and  C2_3 
REMARK    2  A    between atoms: C6_9  and  C7_10 
REMARK    3  A    between atoms: C7_10  and  N3_11 
REMARK    4  A    between atoms: N3_11  and  C8_12 
REMARK    5  A    between atoms: C16_20  and  O2_21 
ROOT
HETATM    1  C2  UNL     1      21.125  -0.281  52.944  1.00  0.00     0.102 C 
HETATM    2  C3  UNL     1      20.883   0.009  51.617  1.00  0.00     0.059 C 
HETATM    3  C4  UNL     1      21.170   1.227  51.029  1.00  0.00     0.121 C 
HETATM    4  N1  UNL     1      22.140   2.171  50.983  1.00  0.00    -0.254 NA
HETATM    5  C5  UNL     1      22.815   2.657  52.015  1.00  0.00     0.232 C 
HETATM    6  N2  UNL     1      23.822   2.032  51.362  1.00  0.00    -0.245 NA
HETATM    7  C6  UNL     1      24.644   1.370  52.256  1.00  0.00     0.053 C 
HETATM    8  C14 UNL     1      24.290   0.794  53.475  1.00  0.00     0.032 C 
HETATM    9  C15 UNL     1      23.484  -0.300  53.775  1.00  0.00     0.041 C 
HETATM   10  C16 UNL     1      22.133  -0.650  53.828  1.00  0.00     0.099 C 
ENDROOT
BRANCH   7  11
HETATM   11  C7  UNL     1      26.028   1.315  51.787  1.00  0.00     0.179 C 
BRANCH  11  12
HETATM   12  N3  UNL     1      26.944   1.114  52.908  1.00  0.00    -0.384 N 
HETATM   13  H9  UNL     1      27.042   1.858  53.638  1.00  0.00     0.160 HD
BRANCH  12  14
HETATM   14  C8  UNL     1      27.705  -0.068  53.035  1.00  0.00     0.028 A 
HETATM   15  C9  UNL     1      29.020  -0.049  53.481  1.00  0.00     0.029 A 
HETATM   16  C10 UNL     1      29.719  -1.250  53.584  1.00  0.00     0.002 A 
HETATM   17  C11 UNL     1      29.165  -2.474  53.261  1.00  0.00     0.000 A 
HETATM   18  C12 UNL     1      27.855  -2.445  52.822  1.00  0.00     0.002 A 
HETATM   19  C13 UNL     1      27.134  -1.274  52.708  1.00  0.00     0.029 A 
ENDBRANCH  12  14
ENDBRANCH  11  12
ENDBRANCH   7  11
BRANCH  10  20
HETATM   20  O2  UNL     1      21.750  -1.443  54.860  1.00  0.00    -0.358 OA
HETATM   21  H17 UNL     1      20.983  -2.106  54.873  1.00  0.00     0.217 HD
ENDBRANCH  10  20
BRANCH   1  22
HETATM   22  O1  UNL     1      19.848  -0.110  53.469  1.00  0.00    -0.353 OA
HETATM   23  C1  UNL     1      18.705  -0.723  52.968  1.00  0.00     0.210 C 
ENDBRANCH   1  22
TORSDOF 5
ENDMDL
MODEL 4
REMARK VINA RESULT:      -7.0      2.750      6.258
REMARK  5 active torsions:
REMARK  status: ('A' for Active; 'I' for Inactive)
REMARK    1  A    between atoms: O1_2  and  C2_3 
REMARK    2  A    between atoms: C6_9  and  C7_10 
REMARK    3  A    between atoms: C7_10  and  N3_11 
REMARK    4  A    between atoms: N3_11  and  C8_12 
REMARK    5  A    between atoms: C16_20  and  O2_21 
ROOT
HETATM    1  C2  UNL     1      24.507   5.087  50.665  1.00  0.00     0.102 C 
HETATM    2  C3  UNL     1      24.999   4.468  49.534  1.00  0.00     0.059 C 
HETATM    3  C4  UNL     1      26.127   3.668  49.521  1.00  0.00     0.121 C 
HETATM    4  N1  UNL     1      26.728   2.685  50.233  1.00  0.00    -0.254 NA
HETATM    5  C5  UNL     1      26.871   2.641  51.550  1.00  0.00     0.232 C 
HETATM    6  N2  UNL     1      26.042   1.585  51.377  1.00  0.00    -0.245 NA
HETATM    7  C6  UNL     1      25.068   1.567  52.360  1.00  0.00     0.053 C 
HETATM    8  C14 UNL     1      24.500   2.655  53.018  1.00  0.00     0.032 C 
HETATM    9  C15 UNL     1      23.679   3.681  52.560  1.00  0.00     0.041 C 
HETATM   10  C16 UNL     1      23.755   4.857  51.811  1.00  0.00     0.099 C 
ENDROOT
BRANCH   7  11
HETATM   11  C7  UNL     1      24.643   0.204  52.681  1.00  0.00     0.179 C 
BRANCH  11  12
HETATM   12  N3  UNL     1      25.341  -0.285  53.869  1.00  0.00    -0.384 N 
HETATM   13  H9  UNL     1      24.793  -0.535  54.726  1.00  0.00     0.160 HD
BRANCH  12  14
HETATM   14  C8  UNL     1      26.744  -0.432  53.891  1.00  0.00     0.028 A 
HETATM   15  C9  UNL     1      27.549   0.335  54.723  1.00  0.00     0.029 A 
HETATM   16  C10 UNL     1      28.929   0.144  54.699  1.00  0.00     0.002 A 
HETATM   17  C11 UNL     1      29.545  -0.782  53.878  1.00  0.00     0.000 A 
HETATM   18  C12 UNL     1      28.707  -1.522  53.068  1.00  0.00     0.002 A 
HETATM   19  C13 UNL     1      27.337  -1.358  53.067  1.00  0.00     0.029 A 
ENDBRANCH  12  14
ENDBRANCH  11  12
ENDBRANCH   7  11
BRANCH  10  20
HETATM   20  O2  UNL     1      23.010   5.905  52.247  1.00  0.00    -0.358 OA
HETATM   21  H17 UNL     1      23.335   6.840  52.466  1.00  0.00     0.217 HD
ENDBRANCH  10  20
BRANCH   1  22
HETATM   22  O1  UNL     1      25.003   6.373  50.475  1.00  0.00    -0.353 OA
HETATM   23  C1  UNL     1      24.720   7.168  49.369  1.00  0.00     0.210 C 
ENDBRANCH   1  22
TORSDOF 5
ENDMDL
MODEL 5
REMARK VINA RESULT:      -7.0      2.313      3.588
REMARK  5 active torsions:
REMARK  status: ('A' for Active; 'I' for Inactive)
REMARK    1  A    between atoms: O1_2  and  C2_3 
REMARK    2  A    between atoms: C6_9  and  C7_10 
REMARK    3  A    between atoms: C7_10  and  N3_11 
REMARK    4  A    between atoms: N3_11  and  C8_12 
REMARK    5  A    between atoms: C16_20  and  O2_21 
ROOT
HETATM    1  C2  UNL     1      28.458  -0.933  53.660  1.00  0.00     0.102 C 
HETATM    2  C3  UNL     1      28.780   0.027  54.598  1.00  0.00     0.059 C 
HETATM    3  C4  UNL     1      28.793   1.385  54.337  1.00  0.00     0.121 C 
HETATM    4  N1  UNL     1      28.070   2.343  53.710  1.00  0.00    -0.254 NA
HETATM    5  C5  UNL     1      27.513   2.250  52.510  1.00  0.00     0.232 C 
HETATM    6  N2  UNL     1      26.397   2.342  53.271  1.00  0.00    -0.245 NA
HETATM    7  C6  UNL     1      25.431   1.458  52.824  1.00  0.00     0.053 C 
HETATM    8  C14 UNL     1      25.624   0.221  52.215  1.00  0.00     0.032 C 
HETATM    9  C15 UNL     1      26.148  -0.973  52.702  1.00  0.00     0.041 C 
HETATM   10  C16 UNL     1      27.379  -1.544  53.031  1.00  0.00     0.099 C 
ENDROOT
BRANCH   7  11
HETATM   11  C7  UNL     1      24.079   1.963  53.061  1.00  0.00     0.179 C 
BRANCH  11  12
HETATM   12  N3  UNL     1      23.660   2.841  51.969  1.00  0.00    -0.384 N 
HETATM   13  H9  UNL     1      23.859   3.868  52.023  1.00  0.00     0.160 HD
BRANCH  12  14
HETATM   14  C8  UNL     1      22.990   2.336  50.835  1.00  0.00     0.028 A 
HETATM   15  C9  UNL     1      23.223   2.838  49.562  1.00  0.00     0.029 A 
HETATM   16  C10 UNL     1      22.530   2.298  48.480  1.00  0.00     0.002 A 
HETATM   17  C11 UNL     1      21.609   1.276  48.612  1.00  0.00     0.000 A 
HETATM   18  C12 UNL     1      21.409   0.807  49.896  1.00  0.00     0.002 A 
HETATM   19  C13 UNL     1      22.078   1.319  50.988  1.00  0.00     0.029 A 
ENDBRANCH  12  14
ENDBRANCH  11  12
ENDBRANCH   7  11
BRANCH  10  20
HETATM   20  O2  UNL     1      27.553  -2.849  52.700  1.00  0.00    -0.358 OA
HETATM   21  H17 UNL     1      27.669  -3.632  53.332  1.00  0.00     0.217 HD
ENDBRANCH  10  20
BRANCH   1  22
HETATM   22  O1  UNL     1      29.732  -1.359  53.299  1.00  0.00    -0.353 OA
HETATM   23  C1  UNL     1      30.646  -1.934  54.175  1.00  0.00     0.210 C 
ENDBRANCH   1  22
TORSDOF 5
ENDMDL
MODEL 6
REMARK VINA RESULT:      -6.9      3.732      5.660
REMARK  5 active torsions:
REMARK  status: ('A' for Active; 'I' for Inactive)
REMARK    1  A    between atoms: O1_2  and  C2_3 
REMARK    2  A    between atoms: C6_9  and  C7_10 
REMARK    3  A    between atoms: C7_10  and  N3_11 
REMARK    4  A    between atoms: N3_11  and  C8_12 
REMARK    5  A    between atoms: C16_20  and  O2_21 
ROOT
HETATM    1  C2  UNL     1      26.719   1.547  51.995  1.00  0.00     0.102 C 
HETATM    2  C3  UNL     1      27.176   0.246  51.961  1.00  0.00     0.059 C 
HETATM    3  C4  UNL     1      27.003  -0.658  52.994  1.00  0.00     0.121 C 
HETATM    4  N1  UNL     1      26.066  -1.086  53.873  1.00  0.00    -0.254 NA
HETATM    5  C5  UNL     1      25.240  -0.324  54.576  1.00  0.00     0.232 C 
HETATM    6  N2  UNL     1      24.344  -0.958  53.785  1.00  0.00    -0.245 NA
HETATM    7  C6  UNL     1      23.379  -0.073  53.337  1.00  0.00     0.053 C 
HETATM    8  C14 UNL     1      23.525   1.289  53.082  1.00  0.00     0.032 C 
HETATM    9  C15 UNL     1      24.257   1.970  52.115  1.00  0.00     0.041 C 
HETATM   10  C16 UNL     1      25.577   2.321  51.823  1.00  0.00     0.099 C 
ENDROOT
BRANCH   7  11
HETATM   11  C7  UNL     1      22.088  -0.730  53.134  1.00  0.00     0.179 C 
BRANCH  11  12
HETATM   12  N3  UNL     1      21.098   0.224  52.637  1.00  0.00    -0.384 N 
HETATM   13  H9  UNL     1      21.392   1.200  52.399  1.00  0.00     0.160 HD
BRANCH  12  14
HETATM   14  C8  UNL     1      19.745  -0.140  52.468  1.00  0.00     0.028 A 
HETATM   15  C9  UNL     1      19.016   0.248  51.352  1.00  0.00     0.029 A 
HETATM   16  C10 UNL     1      17.683  -0.142  51.241  1.00  0.00     0.002 A 
HETATM   17  C11 UNL     1      17.041  -0.905  52.199  1.00  0.00     0.000 A 
HETATM   18  C12 UNL     1      17.804  -1.268  53.292  1.00  0.00     0.002 A 
HETATM   19  C13 UNL     1      19.126  -0.898  53.432  1.00  0.00     0.029 A 
ENDBRANCH  12  14
ENDBRANCH  11  12
ENDBRANCH   7  11
BRANCH  10  20
HETATM   20  O2  UNL     1      25.778   3.563  51.313  1.00  0.00    -0.358 OA
HETATM   21  H17 UNL     1      25.496   4.447  51.721  1.00  0.00     0.217 HD
ENDBRANCH  10  20
BRANCH   1  22
HETATM   22  O1  UNL     1      27.897   2.212  52.321  1.00  0.00    -0.353 OA
HETATM   23  C1  UNL     1      28.312   2.482  53.620  1.00  0.00     0.210 C 
ENDBRANCH   1  22
TORSDOF 5
ENDMDL
MODEL 7
REMARK VINA RESULT:      -6.9      2.155      3.707
REMARK  5 active torsions:
REMARK  status: ('A' for Active; 'I' for Inactive)
REMARK    1  A    between atoms: O1_2  and  C2_3 
REMARK    2  A    between atoms: C6_9  and  C7_10 
REMARK    3  A    between atoms: C7_10  and  N3_11 
REMARK    4  A    between atoms: N3_11  and  C8_12 
REMARK    5  A    between atoms: C16_20  and  O2_21 
ROOT
HETATM    1  C2  UNL     1      24.687  -0.416  53.513  1.00  0.00     0.102 C 
HETATM    2  C3  UNL     1      23.422  -0.026  53.124  1.00  0.00     0.059 C 
HETATM    3  C4  UNL     1      23.007   1.292  53.060  1.00  0.00     0.121 C 
HETATM    4  N1  UNL     1      23.431   2.509  52.647  1.00  0.00    -0.254 NA
HETATM    5  C5  UNL     1      24.633   3.034  52.845  1.00  0.00     0.232 C 
HETATM    6  N2  UNL     1      24.660   2.909  51.497  1.00  0.00    -0.245 NA
HETATM    7  C6  UNL     1      25.894   2.445  51.077  1.00  0.00     0.053 C 
HETATM    8  C14 UNL     1      26.764   1.599  51.761  1.00  0.00     0.032 C 
HETATM    9  C15 UNL     1      26.651   0.261  52.122  1.00  0.00     0.041 C 
HETATM   10  C16 UNL     1      25.993  -0.543  53.055  1.00  0.00     0.099 C 
ENDROOT
BRANCH   7  11
HETATM   11  C7  UNL     1      26.243   2.951  49.750  1.00  0.00     0.179 C 
BRANCH  11  12
HETATM   12  N3  UNL     1      26.945   4.229  49.855  1.00  0.00    -0.384 N 
HETATM   13  H9  UNL     1      27.764   4.320  50.501  1.00  0.00     0.160 HD
BRANCH  12  14
HETATM   14  C8  UNL     1      26.544   5.353  49.102  1.00  0.00     0.028 A 
HETATM   15  C9  UNL     1      25.208   5.699  48.954  1.00  0.00     0.029 A 
HETATM   16  C10 UNL     1      24.875   6.820  48.197  1.00  0.00     0.002 A 
HETATM   17  C11 UNL     1      25.820   7.616  47.577  1.00  0.00     0.000 A 
HETATM   18  C12 UNL     1      27.136   7.235  47.750  1.00  0.00     0.002 A 
HETATM   19  C13 UNL     1      27.500   6.131  48.493  1.00  0.00     0.029 A 
ENDBRANCH  12  14
ENDBRANCH  11  12
ENDBRANCH   7  11
BRANCH  10  20
HETATM   20  O2  UNL     1      26.705  -1.571  53.583  1.00  0.00    -0.358 OA
HETATM   21  H17 UNL     1      26.653  -1.932  54.529  1.00  0.00     0.217 HD
ENDBRANCH  10  20
BRANCH   1  22
HETATM   22  O1  UNL     1      24.434  -0.786  54.830  1.00  0.00    -0.353 OA
HETATM   23  C1  UNL     1      23.269  -1.412  55.261  1.00  0.00     0.210 C 
ENDBRANCH   1  22
TORSDOF 5
ENDMDL
MODEL 8
REMARK VINA RESULT:      -6.9      2.738      6.467
REMARK  5 active torsions:
REMARK  status: ('A' for Active; 'I' for Inactive)
REMARK    1  A    between atoms: O1_2  and  C2_3 
REMARK    2  A    between atoms: C6_9  and  C7_10 
REMARK    3  A    between atoms: C7_10  and  N3_11 
REMARK    4  A    between atoms: N3_11  and  C8_12 
REMARK    5  A    between atoms: C16_20  and  O2_21 
ROOT
HETATM    1  C2  UNL     1      25.804   5.770  49.536  1.00  0.00     0.102 C 
HETATM    2  C3  UNL     1      25.166   6.613  50.424  1.00  0.00     0.059 C 
HETATM    3  C4  UNL     1      23.945   6.333  51.010  1.00  0.00     0.121 C 
HETATM    4  N1  UNL     1      23.267   5.319  51.597  1.00  0.00    -0.254 NA
HETATM    5  C5  UNL     1      23.203   4.064  51.173  1.00  0.00     0.232 C 
HETATM    6  N2  UNL     1      23.875   3.876  52.332  1.00  0.00    -0.245 NA
HETATM    7  C6  UNL     1      24.898   2.962  52.157  1.00  0.00     0.053 C 
HETATM    8  C14 UNL     1      25.643   2.725  51.004  1.00  0.00     0.032 C 
HETATM    9  C15 UNL     1      26.560   3.519  50.323  1.00  0.00     0.041 C 
HETATM   10  C16 UNL     1      26.591   4.626  49.471  1.00  0.00     0.099 C 
ENDROOT
BRANCH   7  11
HETATM   11  C7  UNL     1      25.161   2.198  53.377  1.00  0.00     0.179 C 
BRANCH  11  12
HETATM   12  N3  UNL     1      26.562   2.330  53.774  1.00  0.00    -0.384 N 
HETATM   13  H9  UNL     1      26.908   3.238  54.165  1.00  0.00     0.160 HD
BRANCH  12  14
HETATM   14  C8  UNL     1      27.468   1.255  53.646  1.00  0.00     0.028 A 
HETATM   15  C9  UNL     1      28.826   1.407  53.894  1.00  0.00     0.029 A 
HETATM   16  C10 UNL     1      29.670   0.308  53.749  1.00  0.00     0.002 A 
HETATM   17  C11 UNL     1      29.219  -0.941  53.366  1.00  0.00     0.000 A 
HETATM   18  C12 UNL     1      27.863  -1.046  53.131  1.00  0.00     0.002 A 
HETATM   19  C13 UNL     1      26.999   0.021  53.264  1.00  0.00     0.029 A 
ENDBRANCH  12  14
ENDBRANCH  11  12
ENDBRANCH   7  11
BRANCH  10  20
HETATM   20  O2  UNL     1      27.491   4.587  48.456  1.00  0.00    -0.358 OA
HETATM   21  H17 UNL     1      28.098   5.337  48.146  1.00  0.00     0.217 HD
ENDBRANCH  10  20
BRANCH   1  22
HETATM   22  O1  UNL     1      25.469   6.383  48.333  1.00  0.00    -0.353 OA
HETATM   23  C1  UNL     1      25.822   7.684  47.990  1.00  0.00     0.210 C 
ENDBRANCH   1  22
TORSDOF 5
ENDMDL
MODEL 9
REMARK VINA RESULT:      -6.7      3.808      6.897
REMARK  5 active torsions:
REMARK  status: ('A' for Active; 'I' for Inactive)
REMARK    1  A    between atoms: O1_2  and  C2_3 
REMARK    2  A    between atoms: C6_9  and  C7_10 
REMARK    3  A    between atoms: C7_10  and  N3_11 
REMARK    4  A    between atoms: N3_11  and  C8_12 
REMARK    5  A    between atoms: C16_20  and  O2_21 
ROOT
HETATM    1  C2  UNL     1      20.921   1.113  50.602  1.00  0.00     0.102 C 
HETATM    2  C3  UNL     1      21.910   1.403  49.685  1.00  0.00     0.059 C 
HETATM    3  C4  UNL     1      23.003   2.205  49.959  1.00  0.00     0.121 C 
HETATM    4  N1  UNL     1      23.929   2.430  50.921  1.00  0.00    -0.254 NA
HETATM    5  C5  UNL     1      23.704   2.515  52.225  1.00  0.00     0.232 C 
HETATM    6  N2  UNL     1      24.456   1.390  52.198  1.00  0.00    -0.245 NA
HETATM    7  C6  UNL     1      23.936   0.438  53.058  1.00  0.00     0.053 C 
HETATM    8  C14 UNL     1      22.602   0.243  53.407  1.00  0.00     0.032 C 
HETATM    9  C15 UNL     1      21.509  -0.182  52.659  1.00  0.00     0.041 C 
HETATM   10  C16 UNL     1      20.627   0.296  51.688  1.00  0.00     0.099 C 
ENDROOT
BRANCH   7  11
HETATM   11  C7  UNL     1      24.981  -0.419  53.617  1.00  0.00     0.179 C 
BRANCH  11  12
HETATM   12  N3  UNL     1      26.034  -0.658  52.631  1.00  0.00    -0.384 N 
HETATM   13  H9  UNL     1      25.777  -0.825  51.630  1.00  0.00     0.160 HD
BRANCH  12  14
HETATM   14  C8  UNL     1      27.396  -0.667  52.996  1.00  0.00     0.028 A 
HETATM   15  C9  UNL     1      28.063   0.492  53.369  1.00  0.00     0.029 A 
HETATM   16  C10 UNL     1      29.410   0.419  53.718  1.00  0.00     0.002 A 
HETATM   17  C11 UNL     1      30.125  -0.764  53.712  1.00  0.00     0.000 A 
HETATM   18  C12 UNL     1      29.423  -1.891  53.336  1.00  0.00     0.002 A 
HETATM   19  C13 UNL     1      28.089  -1.854  52.983  1.00  0.00     0.029 A 
ENDBRANCH  12  14
ENDBRANCH  11  12
ENDBRANCH   7  11
BRANCH  10  20
HETATM   20  O2  UNL     1      19.326  -0.073  51.812  1.00  0.00    -0.358 OA
HETATM   21  H17 UNL     1      18.890  -0.525  52.608  1.00  0.00     0.217 HD
ENDBRANCH  10  20
BRANCH   1  22
HETATM   22  O1  UNL     1      19.938   2.008  50.193  1.00  0.00    -0.353 OA
HETATM   23  C1  UNL     1      19.647   3.205  50.840  1.00  0.00     0.210 C 
ENDBRANCH   1  22
TORSDOF 5
ENDMDL
