MODEL 1
REMARK VINA RESULT:      -8.7      0.000      0.000
REMARK  3 active torsions:
REMARK  status: ('A' for Active; 'I' for Inactive)
REMARK    1  A    between atoms: C10_10  and  N1_11 
REMARK    2  A    between atoms: N1_11  and  C11_12 
REMARK    3  A    between atoms: C13_14  and  C14_15 
ROOT
HETATM    1  C1  UNL     1      21.172  -1.485  54.407  1.00  0.00     0.037 C 
HETATM    2  C2  UNL     1      21.669  -0.281  53.746  1.00  0.00    -0.017 C 
HETATM    3  C3  UNL     1      22.844   0.228  53.421  1.00  0.00    -0.011 C 
HETATM    4  C4  UNL     1      24.018  -0.559  53.783  1.00  0.00     0.013 C 
HETATM    5  C5  UNL     1      25.330  -0.272  53.862  1.00  0.00     0.002 C 
HETATM    6  C6  UNL     1      26.116   0.957  53.614  1.00  0.00     0.012 C 
HETATM    7  C7  UNL     1      26.048   1.992  52.830  1.00  0.00    -0.025 C 
HETATM    8  C8  UNL     1      25.031   2.789  52.719  1.00  0.00     0.030 C 
HETATM    9  C9  UNL     1      23.618   2.531  52.477  1.00  0.00     0.040 A 
HETATM   10  C10 UNL     1      23.168   3.643  51.809  1.00  0.00     0.141 A 
HETATM   11  N2  UNL     1      21.881   3.731  51.430  1.00  0.00    -0.224 NA
HETATM   12  C20 UNL     1      21.019   2.738  51.699  1.00  0.00     0.236 A 
HETATM   13  N3  UNL     1      21.454   1.651  52.352  1.00  0.00    -0.240 NA
HETATM   14  C21 UNL     1      22.723   1.520  52.746  1.00  0.00     0.082 A 
ENDROOT
BRANCH  10  15
HETATM   15  N1  UNL     1      23.991   4.742  51.469  1.00  0.00    -0.344 N 
HETATM   16  H9  UNL     1      24.504   5.611  51.682  1.00  0.00     0.167 HD
BRANCH  15  17
HETATM   17  C11 UNL     1      24.500   4.935  50.149  1.00  0.00     0.007 C 
HETATM   18  C12 UNL     1      23.968   4.692  48.781  1.00  0.00     0.068 C 
HETATM   19  C13 UNL     1      25.743   5.451  50.148  1.00  0.00     0.033 C 
BRANCH  19  20
HETATM   20  C14 UNL     1      26.540   5.765  48.970  1.00  0.00    -0.042 C 
HETATM   21  C15 UNL     1      27.503   4.930  48.643  1.00  0.00    -0.019 C 
HETATM   22  C16 UNL     1      28.641   5.367  48.219  1.00  0.00     0.012 C 
HETATM   23  C17 UNL     1      28.864   6.770  47.976  1.00  0.00    -0.003 C 
HETATM   24  C18 UNL     1      27.803   7.547  47.869  1.00  0.00    -0.022 C 
HETATM   25  C19 UNL     1      26.489   6.892  48.009  1.00  0.00     0.066 C 
ENDBRANCH  19  20
ENDBRANCH  15  17
ENDBRANCH  10  15
TORSDOF 3
ENDMDL
MODEL 2
REMARK VINA RESULT:      -8.7      2.222      6.840
REMARK  3 active torsions:
REMARK  status: ('A' for Active; 'I' for Inactive)
REMARK    1  A    between atoms: C10_10  and  N1_11 
REMARK    2  A    between atoms: N1_11  and  C11_12 
REMARK    3  A    between atoms: C13_14  and  C14_15 
ROOT
HETATM    1  C1  UNL     1      23.608   8.971  49.603  1.00  0.00     0.037 C 
HETATM    2  C2  UNL     1      23.822   7.577  49.988  1.00  0.00    -0.017 C 
HETATM    3  C3  UNL     1      24.781   6.677  49.864  1.00  0.00    -0.011 C 
HETATM    4  C4  UNL     1      25.989   7.104  49.166  1.00  0.00     0.013 C 
HETATM    5  C5  UNL     1      27.025   6.436  48.629  1.00  0.00     0.002 C 
HETATM    6  C6  UNL     1      27.363   4.999  48.526  1.00  0.00     0.012 C 
HETATM    7  C7  UNL     1      27.174   3.921  49.228  1.00  0.00    -0.025 C 
HETATM    8  C8  UNL     1      26.025   3.478  49.636  1.00  0.00     0.030 C 
HETATM    9  C9  UNL     1      24.938   4.123  50.359  1.00  0.00     0.040 A 
HETATM   10  C10 UNL     1      24.348   3.113  51.079  1.00  0.00     0.141 A 
HETATM   11  N2  UNL     1      23.291   3.372  51.868  1.00  0.00    -0.224 NA
HETATM   12  C20 UNL     1      22.797   4.617  51.965  1.00  0.00     0.236 A 
HETATM   13  N3  UNL     1      23.369   5.605  51.264  1.00  0.00    -0.240 NA
HETATM   14  C21 UNL     1      24.420   5.395  50.468  1.00  0.00     0.082 A 
ENDROOT
BRANCH  10  15
HETATM   15  N1  UNL     1      24.791   1.770  51.057  1.00  0.00    -0.344 N 
HETATM   16  H9  UNL     1      24.952   0.859  50.601  1.00  0.00     0.167 HD
BRANCH  15  17
HETATM   17  C11 UNL     1      25.370   1.139  52.199  1.00  0.00     0.007 C 
HETATM   18  C12 UNL     1      24.908   0.868  53.587  1.00  0.00     0.068 C 
HETATM   19  C13 UNL     1      26.618   0.694  51.961  1.00  0.00     0.033 C 
BRANCH  19  20
HETATM   20  C14 UNL     1      27.479   0.007  52.915  1.00  0.00    -0.042 C 
HETATM   21  C15 UNL     1      28.224   0.747  53.708  1.00  0.00    -0.019 C 
HETATM   22  C16 UNL     1      29.437   0.406  53.986  1.00  0.00     0.012 C 
HETATM   23  C17 UNL     1      29.985  -0.850  53.537  1.00  0.00    -0.003 C 
HETATM   24  C18 UNL     1      29.136  -1.778  53.138  1.00  0.00    -0.022 C 
HETATM   25  C19 UNL     1      27.704  -1.431  53.193  1.00  0.00     0.066 C 
ENDBRANCH  19  20
ENDBRANCH  15  17
ENDBRANCH  10  15
TORSDOF 3
ENDMDL
MODEL 3
REMARK VINA RESULT:      -8.6      4.238      5.950
REMARK  3 active torsions:
REMARK  status: ('A' for Active; 'I' for Inactive)
REMARK    1  A    between atoms: C10_10  and  N1_11 
REMARK    2  A    between atoms: N1_11  and  C11_12 
REMARK    3  A    between atoms: C13_14  and  C14_15 
ROOT
HETATM    1  C1  UNL     1      17.396  -2.617  53.493  1.00  0.00     0.037 C 
HETATM    2  C2  UNL     1      18.668  -1.901  53.415  1.00  0.00    -0.017 C 
HETATM    3  C3  UNL     1      19.175  -0.905  52.710  1.00  0.00    -0.011 C 
HETATM    4  C4  UNL     1      18.296  -0.297  51.716  1.00  0.00     0.013 C 
HETATM    5  C5  UNL     1      18.517   0.518  50.669  1.00  0.00     0.002 C 
HETATM    6  C6  UNL     1      19.737   1.131  50.100  1.00  0.00     0.012 C 
HETATM    7  C7  UNL     1      20.882   1.564  50.538  1.00  0.00    -0.025 C 
HETATM    8  C8  UNL     1      21.726   0.880  51.247  1.00  0.00     0.030 C 
HETATM    9  C9  UNL     1      21.563   0.110  52.473  1.00  0.00     0.040 A 
HETATM   10  C10 UNL     1      22.781   0.191  53.102  1.00  0.00     0.141 A 
HETATM   11  N2  UNL     1      22.977  -0.423  54.282  1.00  0.00    -0.224 NA
HETATM   12  C20 UNL     1      21.988  -1.122  54.862  1.00  0.00     0.236 A 
HETATM   13  N3  UNL     1      20.798  -1.204  54.251  1.00  0.00    -0.240 NA
HETATM   14  C21 UNL     1      20.559  -0.610  53.079  1.00  0.00     0.082 A 
ENDROOT
BRANCH  10  15
HETATM   15  N1  UNL     1      23.887   0.907  52.585  1.00  0.00    -0.344 N 
HETATM   16  H9  UNL     1      24.320   1.673  52.048  1.00  0.00     0.167 HD
BRANCH  15  17
HETATM   17  C11 UNL     1      25.235   0.510  52.833  1.00  0.00     0.007 C 
HETATM   18  C12 UNL     1      26.088  -0.623  52.386  1.00  0.00     0.068 C 
HETATM   19  C13 UNL     1      25.874   1.356  53.663  1.00  0.00     0.033 C 
BRANCH  19  20
HETATM   20  C14 UNL     1      27.254   1.236  54.114  1.00  0.00    -0.042 C 
HETATM   21  C15 UNL     1      28.120   2.122  53.671  1.00  0.00    -0.019 C 
HETATM   22  C16 UNL     1      29.317   1.769  53.339  1.00  0.00     0.012 C 
HETATM   23  C17 UNL     1      29.787   0.422  53.548  1.00  0.00    -0.003 C 
HETATM   24  C18 UNL     1      29.105  -0.340  54.382  1.00  0.00    -0.022 C 
HETATM   25  C19 UNL     1      27.922   0.271  55.018  1.00  0.00     0.066 C 
ENDBRANCH  19  20
ENDBRANCH  15  17
ENDBRANCH  10  15
TORSDOF 3
ENDMDL
MODEL 4
REMARK VINA RESULT:      -8.5      2.283      7.701
REMARK  3 active torsions:
REMARK  status: ('A' for Active; 'I' for Inactive)
REMARK    1  A    between atoms: C10_10  and  N1_11 
REMARK    2  A    between atoms: N1_11  and  C11_12 
REMARK    3  A    between atoms: C13_14  and  C14_15 
ROOT
HETATM    1  C1  UNL     1      26.247  10.909  48.717  1.00  0.00     0.037 C 
HETATM    2  C2  UNL     1      26.027   9.504  49.055  1.00  0.00    -0.017 C 
HETATM    3  C3  UNL     1      26.715   8.378  49.000  1.00  0.00    -0.011 C 
HETATM    4  C4  UNL     1      28.072   8.469  48.470  1.00  0.00     0.013 C 
HETATM    5  C5  UNL     1      28.949   7.552  48.025  1.00  0.00     0.002 C 
HETATM    6  C6  UNL     1      28.897   6.079  47.892  1.00  0.00     0.012 C 
HETATM    7  C7  UNL     1      28.338   5.083  48.513  1.00  0.00    -0.025 C 
HETATM    8  C8  UNL     1      27.071   4.965  48.762  1.00  0.00     0.030 C 
HETATM    9  C9  UNL     1      26.115   5.871  49.384  1.00  0.00     0.040 A 
HETATM   10  C10 UNL     1      25.190   5.050  49.979  1.00  0.00     0.141 A 
HETATM   11  N2  UNL     1      24.151   5.575  50.652  1.00  0.00    -0.224 NA
HETATM   12  C20 UNL     1      24.003   6.906  50.751  1.00  0.00     0.236 A 
HETATM   13  N3  UNL     1      24.903   7.712  50.171  1.00  0.00    -0.240 NA
HETATM   14  C21 UNL     1      25.950   7.234  49.494  1.00  0.00     0.082 A 
ENDROOT
BRANCH  10  15
HETATM   15  N1  UNL     1      25.254   3.637  49.943  1.00  0.00    -0.344 N 
HETATM   16  H9  UNL     1      25.281   2.728  49.459  1.00  0.00     0.167 HD
BRANCH  15  17
HETATM   17  C11 UNL     1      25.331   2.847  51.130  1.00  0.00     0.007 C 
HETATM   18  C12 UNL     1      24.474   2.691  52.335  1.00  0.00     0.068 C 
HETATM   19  C13 UNL     1      26.431   2.072  51.158  1.00  0.00     0.033 C 
BRANCH  19  20
HETATM   20  C14 UNL     1      26.803   1.152  52.225  1.00  0.00    -0.042 C 
HETATM   21  C15 UNL     1      26.715  -0.138  51.978  1.00  0.00    -0.019 C 
HETATM   22  C16 UNL     1      26.275  -0.955  52.874  1.00  0.00     0.012 C 
HETATM   23  C17 UNL     1      25.973  -0.510  54.212  1.00  0.00    -0.003 C 
HETATM   24  C18 UNL     1      26.469   0.651  54.595  1.00  0.00    -0.022 C 
HETATM   25  C19 UNL     1      27.287   1.378  53.607  1.00  0.00     0.066 C 
ENDBRANCH  19  20
ENDBRANCH  15  17
ENDBRANCH  10  15
TORSDOF 3
ENDMDL
MODEL 5
REMARK VINA RESULT:      -8.3      1.860      7.812
REMARK  3 active torsions:
REMARK  status: ('A' for Active; 'I' for Inactive)
REMARK    1  A    between atoms: C10_10  and  N1_11 
REMARK    2  A    between atoms: N1_11  and  C11_12 
REMARK    3  A    between atoms: C13_14  and  C14_15 
ROOT
HETATM    1  C1  UNL     1      23.774   8.557  46.831  1.00  0.00     0.037 C 
HETATM    2  C2  UNL     1      23.693   7.340  47.636  1.00  0.00    -0.017 C 
HETATM    3  C3  UNL     1      24.538   6.523  48.239  1.00  0.00    -0.011 C 
HETATM    4  C4  UNL     1      25.956   6.848  48.121  1.00  0.00     0.013 C 
HETATM    5  C5  UNL     1      27.082   6.150  48.352  1.00  0.00     0.002 C 
HETATM    6  C6  UNL     1      27.343   4.771  48.822  1.00  0.00     0.012 C 
HETATM    7  C7  UNL     1      26.776   3.908  49.612  1.00  0.00    -0.025 C 
HETATM    8  C8  UNL     1      25.549   3.495  49.521  1.00  0.00     0.030 C 
HETATM    9  C9  UNL     1      24.288   4.216  49.426  1.00  0.00     0.040 A 
HETATM   10  C10 UNL     1      23.366   3.390  50.020  1.00  0.00     0.141 A 
HETATM   11  N2  UNL     1      22.076   3.760  50.100  1.00  0.00    -0.224 NA
HETATM   12  C20 UNL     1      21.670   4.940  49.603  1.00  0.00     0.236 A 
HETATM   13  N3  UNL     1      22.566   5.750  49.022  1.00  0.00    -0.240 NA
HETATM   14  C21 UNL     1      23.857   5.423  48.921  1.00  0.00     0.082 A 
ENDROOT
BRANCH  10  15
HETATM   15  N1  UNL     1      23.685   2.132  50.582  1.00  0.00    -0.344 N 
HETATM   16  H9  UNL     1      24.332   1.363  50.814  1.00  0.00     0.167 HD
BRANCH  15  17
HETATM   17  C11 UNL     1      22.711   1.320  51.239  1.00  0.00     0.007 C 
HETATM   18  C12 UNL     1      21.532   0.535  50.787  1.00  0.00     0.068 C 
HETATM   19  C13 UNL     1      22.909   1.258  52.569  1.00  0.00     0.033 C 
BRANCH  19  20
HETATM   20  C14 UNL     1      22.095   0.517  53.523  1.00  0.00    -0.042 C 
HETATM   21  C15 UNL     1      22.633  -0.539  54.094  1.00  0.00    -0.019 C 
HETATM   22  C16 UNL     1      21.942  -1.611  54.289  1.00  0.00     0.012 C 
HETATM   23  C17 UNL     1      20.530  -1.657  53.998  1.00  0.00    -0.003 C 
HETATM   24  C18 UNL     1      19.899  -0.508  53.855  1.00  0.00    -0.022 C 
HETATM   25  C19 UNL     1      20.710   0.715  54.010  1.00  0.00     0.066 C 
ENDBRANCH  19  20
ENDBRANCH  15  17
ENDBRANCH  10  15
TORSDOF 3
ENDMDL
MODEL 6
REMARK VINA RESULT:      -8.2      2.446      7.077
REMARK  3 active torsions:
REMARK  status: ('A' for Active; 'I' for Inactive)
REMARK    1  A    between atoms: C10_10  and  N1_11 
REMARK    2  A    between atoms: N1_11  and  C11_12 
REMARK    3  A    between atoms: C13_14  and  C14_15 
ROOT
HETATM    1  C1  UNL     1      20.957   5.971  46.461  1.00  0.00     0.037 C 
HETATM    2  C2  UNL     1      21.915   5.423  47.418  1.00  0.00    -0.017 C 
HETATM    3  C3  UNL     1      23.098   5.758  47.902  1.00  0.00    -0.011 C 
HETATM    4  C4  UNL     1      23.681   6.997  47.396  1.00  0.00     0.013 C 
HETATM    5  C5  UNL     1      24.922   7.514  47.438  1.00  0.00     0.002 C 
HETATM    6  C6  UNL     1      26.200   7.038  48.013  1.00  0.00     0.012 C 
HETATM    7  C7  UNL     1      26.583   6.321  49.027  1.00  0.00    -0.025 C 
HETATM    8  C8  UNL     1      26.176   5.120  49.297  1.00  0.00     0.030 C 
HETATM    9  C9  UNL     1      24.841   4.551  49.417  1.00  0.00     0.040 A 
HETATM   10  C10 UNL     1      24.975   3.530  50.325  1.00  0.00     0.141 A 
HETATM   11  N2  UNL     1      23.910   2.784  50.668  1.00  0.00    -0.224 NA
HETATM   12  C20 UNL     1      22.704   3.024  50.129  1.00  0.00     0.236 A 
HETATM   13  N3  UNL     1      22.569   4.019  49.242  1.00  0.00    -0.240 NA
HETATM   14  C21 UNL     1      23.598   4.786  48.873  1.00  0.00     0.082 A 
ENDROOT
BRANCH  10  15
HETATM   15  N1  UNL     1      26.195   3.196  50.958  1.00  0.00    -0.344 N 
HETATM   16  H9  UNL     1      27.215   3.266  51.089  1.00  0.00     0.167 HD
BRANCH  15  17
HETATM   17  C11 UNL     1      26.265   2.264  52.037  1.00  0.00     0.007 C 
HETATM   18  C12 UNL     1      25.729   2.234  53.424  1.00  0.00     0.068 C 
HETATM   19  C13 UNL     1      26.981   1.168  51.723  1.00  0.00     0.033 C 
BRANCH  19  20
HETATM   20  C14 UNL     1      27.240   0.034  52.600  1.00  0.00    -0.042 C 
HETATM   21  C15 UNL     1      28.326   0.071  53.342  1.00  0.00    -0.019 C 
HETATM   22  C16 UNL     1      29.042  -0.988  53.521  1.00  0.00     0.012 C 
HETATM   23  C17 UNL     1      28.622  -2.272  53.017  1.00  0.00    -0.003 C 
HETATM   24  C18 UNL     1      27.356  -2.408  52.674  1.00  0.00    -0.022 C 
HETATM   25  C19 UNL     1      26.494  -1.223  52.844  1.00  0.00     0.066 C 
ENDBRANCH  19  20
ENDBRANCH  15  17
ENDBRANCH  10  15
TORSDOF 3
ENDMDL
MODEL 7
REMARK VINA RESULT:      -8.1      2.612      6.632
REMARK  3 active torsions:
REMARK  status: ('A' for Active; 'I' for Inactive)
REMARK    1  A    between atoms: C10_10  and  N1_11 
REMARK    2  A    between atoms: N1_11  and  C11_12 
REMARK    3  A    between atoms: C13_14  and  C14_15 
ROOT
HETATM    1  C1  UNL     1      21.348   5.419  45.789  1.00  0.00     0.037 C 
HETATM    2  C2  UNL     1      22.125   5.068  46.975  1.00  0.00    -0.017 C 
HETATM    3  C3  UNL     1      22.236   4.030  47.786  1.00  0.00    -0.011 C 
HETATM    4  C4  UNL     1      21.389   2.879  47.490  1.00  0.00     0.013 C 
HETATM    5  C5  UNL     1      21.032   1.794  48.199  1.00  0.00     0.002 C 
HETATM    6  C6  UNL     1      21.353   1.324  49.565  1.00  0.00     0.012 C 
HETATM    7  C7  UNL     1      22.355   1.398  50.390  1.00  0.00    -0.025 C 
HETATM    8  C8  UNL     1      22.928   2.493  50.784  1.00  0.00     0.030 C 
HETATM    9  C9  UNL     1      23.471   3.624  50.045  1.00  0.00     0.040 A 
HETATM   10  C10 UNL     1      24.487   4.103  50.834  1.00  0.00     0.141 A 
HETATM   11  N2  UNL     1      25.208   5.167  50.438  1.00  0.00    -0.224 NA
HETATM   12  C20 UNL     1      24.946   5.775  49.269  1.00  0.00     0.236 A 
HETATM   13  N3  UNL     1      23.955   5.311  48.496  1.00  0.00    -0.240 NA
HETATM   14  C21 UNL     1      23.214   4.257  48.849  1.00  0.00     0.082 A 
ENDROOT
BRANCH  10  15
HETATM   15  N1  UNL     1      24.852   3.535  52.077  1.00  0.00    -0.344 N 
HETATM   16  H9  UNL     1      24.829   3.477  53.106  1.00  0.00     0.167 HD
BRANCH  15  17
HETATM   17  C11 UNL     1      25.726   2.411  52.174  1.00  0.00     0.007 C 
HETATM   18  C12 UNL     1      26.820   1.865  51.328  1.00  0.00     0.068 C 
HETATM   19  C13 UNL     1      25.504   1.684  53.285  1.00  0.00     0.033 C 
BRANCH  19  20
HETATM   20  C14 UNL     1      26.223   0.480  53.679  1.00  0.00    -0.042 C 
HETATM   21  C15 UNL     1      27.231   0.616  54.513  1.00  0.00    -0.019 C 
HETATM   22  C16 UNL     1      28.314  -0.069  54.360  1.00  0.00     0.012 C 
HETATM   23  C17 UNL     1      28.420  -1.090  53.347  1.00  0.00    -0.003 C 
HETATM   24  C18 UNL     1      27.300  -1.539  52.814  1.00  0.00    -0.022 C 
HETATM   25  C19 UNL     1      26.046  -0.946  53.316  1.00  0.00     0.066 C 
ENDBRANCH  19  20
ENDBRANCH  15  17
ENDBRANCH  10  15
TORSDOF 3
ENDMDL
MODEL 8
REMARK VINA RESULT:      -7.9      1.850      3.319
REMARK  3 active torsions:
REMARK  status: ('A' for Active; 'I' for Inactive)
REMARK    1  A    between atoms: C10_10  and  N1_11 
REMARK    2  A    between atoms: N1_11  and  C11_12 
REMARK    3  A    between atoms: C13_14  and  C14_15 
ROOT
HETATM    1  C1  UNL     1      21.744  -0.961  54.899  1.00  0.00     0.037 C 
HETATM    2  C2  UNL     1      22.313  -0.078  53.883  1.00  0.00    -0.017 C 
HETATM    3  C3  UNL     1      21.908   0.495  52.764  1.00  0.00    -0.011 C 
HETATM    4  C4  UNL     1      20.533   0.227  52.355  1.00  0.00     0.013 C 
HETATM    5  C5  UNL     1      19.867   0.397  51.199  1.00  0.00     0.002 C 
HETATM    6  C6  UNL     1      20.256   0.926  49.873  1.00  0.00     0.012 C 
HETATM    7  C7  UNL     1      21.079   1.816  49.403  1.00  0.00    -0.025 C 
HETATM    8  C8  UNL     1      22.353   1.865  49.640  1.00  0.00     0.030 C 
HETATM    9  C9  UNL     1      23.110   1.841  50.883  1.00  0.00     0.040 A 
HETATM   10  C10 UNL     1      24.245   2.567  50.617  1.00  0.00     0.141 A 
HETATM   11  N2  UNL     1      25.177   2.742  51.570  1.00  0.00    -0.224 NA
HETATM   12  C20 UNL     1      25.013   2.212  52.793  1.00  0.00     0.236 A 
HETATM   13  N3  UNL     1      23.908   1.502  53.057  1.00  0.00    -0.240 NA
HETATM   14  C21 UNL     1      22.956   1.303  52.142  1.00  0.00     0.082 A 
ENDROOT
BRANCH  10  15
HETATM   15  N1  UNL     1      24.514   3.175  49.368  1.00  0.00    -0.344 N 
HETATM   16  H9  UNL     1      24.430   3.252  48.344  1.00  0.00     0.167 HD
BRANCH  15  17
HETATM   17  C11 UNL     1      25.334   4.337  49.246  1.00  0.00     0.007 C 
HETATM   18  C12 UNL     1      26.799   4.575  49.160  1.00  0.00     0.068 C 
HETATM   19  C13 UNL     1      24.610   5.472  49.202  1.00  0.00     0.033 C 
BRANCH  19  20
HETATM   20  C14 UNL     1      25.142   6.822  49.081  1.00  0.00    -0.042 C 
HETATM   21  C15 UNL     1      25.182   7.358  47.879  1.00  0.00    -0.019 C 
HETATM   22  C16 UNL     1      26.192   8.069  47.505  1.00  0.00     0.012 C 
HETATM   23  C17 UNL     1      27.255   8.403  48.420  1.00  0.00    -0.003 C 
HETATM   24  C18 UNL     1      27.018   8.261  49.710  1.00  0.00    -0.022 C 
HETATM   25  C19 UNL     1      25.677   7.772  50.084  1.00  0.00     0.066 C 
ENDBRANCH  19  20
ENDBRANCH  15  17
ENDBRANCH  10  15
TORSDOF 3
ENDMDL
MODEL 9
REMARK VINA RESULT:      -7.5      4.420      7.089
REMARK  3 active torsions:
REMARK  status: ('A' for Active; 'I' for Inactive)
REMARK    1  A    between atoms: C10_10  and  N1_11 
REMARK    2  A    between atoms: N1_11  and  C11_12 
REMARK    3  A    between atoms: C13_14  and  C14_15 
ROOT
HETATM    1  C1  UNL     1      21.820   7.465  47.954  1.00  0.00     0.037 C 
HETATM    2  C2  UNL     1      23.265   7.263  48.025  1.00  0.00    -0.017 C 
HETATM    3  C3  UNL     1      24.090   6.261  48.272  1.00  0.00    -0.011 C 
HETATM    4  C4  UNL     1      23.477   4.969  48.564  1.00  0.00     0.013 C 
HETATM    5  C5  UNL     1      23.946   3.830  49.103  1.00  0.00     0.002 C 
HETATM    6  C6  UNL     1      25.272   3.421  49.618  1.00  0.00     0.012 C 
HETATM    7  C7  UNL     1      26.519   3.684  49.361  1.00  0.00    -0.025 C 
HETATM    8  C8  UNL     1      27.050   4.866  49.332  1.00  0.00     0.030 C 
HETATM    9  C9  UNL     1      26.665   6.087  48.638  1.00  0.00     0.040 A 
HETATM   10  C10 UNL     1      27.846   6.749  48.412  1.00  0.00     0.141 A 
HETATM   11  N2  UNL     1      27.847   7.936  47.780  1.00  0.00    -0.224 NA
HETATM   12  C20 UNL     1      26.698   8.490  47.362  1.00  0.00     0.236 A 
HETATM   13  N3  UNL     1      25.542   7.847  47.581  1.00  0.00    -0.240 NA
HETATM   14  C21 UNL     1      25.494   6.667  48.204  1.00  0.00     0.082 A 
ENDROOT
BRANCH  10  15
HETATM   15  N1  UNL     1      29.112   6.254  48.803  1.00  0.00    -0.344 N 
HETATM   16  H9  UNL     1      29.776   5.853  49.482  1.00  0.00     0.167 HD
BRANCH  15  17
HETATM   17  C11 UNL     1      30.217   6.189  47.901  1.00  0.00     0.007 C 
HETATM   18  C12 UNL     1      30.683   7.023  46.761  1.00  0.00     0.068 C 
HETATM   19  C13 UNL     1      31.012   5.129  48.140  1.00  0.00     0.033 C 
BRANCH  19  20
HETATM   20  C14 UNL     1      32.217   4.779  47.401  1.00  0.00    -0.042 C 
HETATM   21  C15 UNL     1      32.190   3.685  46.670  1.00  0.00    -0.019 C 
HETATM   22  C16 UNL     1      33.210   2.896  46.619  1.00  0.00     0.012 C 
HETATM   23  C17 UNL     1      34.454   3.236  47.263  1.00  0.00    -0.003 C 
HETATM   24  C18 UNL     1      34.638   4.496  47.608  1.00  0.00    -0.022 C 
HETATM   25  C19 UNL     1      33.542   5.433  47.296  1.00  0.00     0.066 C 
ENDBRANCH  19  20
ENDBRANCH  15  17
ENDBRANCH  10  15
TORSDOF 3
ENDMDL
