MODEL 1
REMARK VINA RESULT:      -8.8      0.000      0.000
REMARK  7 active torsions:
REMARK  status: ('A' for Active; 'I' for Inactive)
REMARK    1  A    between atoms: C2_2  and  C3_3 
REMARK    2  A    between atoms: C3_3  and  C4_4 
REMARK    3  A    between atoms: C4_4  and  N1_5 
REMARK       I    between atoms: N1_5  and  C5_6 
REMARK       I    between atoms: C5_6  and  N2_8 
REMARK    4  A    between atoms: N2_8  and  C6_9 
REMARK    5  A    between atoms: C14_17  and  O2_18 
REMARK    6  A    between atoms: C16_20  and  O3_21 
REMARK    7  A    between atoms: C21_28  and  O4_29 
ROOT
HETATM    1  C6  UNL     1      23.307   4.334  52.479  1.00  0.00     0.037 A 
HETATM    2  C7  UNL     1      22.052   4.083  51.965  1.00  0.00     0.030 A 
HETATM    3  C8  UNL     1      21.524   2.820  51.829  1.00  0.00     0.019 A 
HETATM    4  C9  UNL     1      22.307   1.790  52.230  1.00  0.00     0.028 A 
HETATM    5  C10 UNL     1      23.580   2.011  52.749  1.00  0.00    -0.007 A 
HETATM    6  C11 UNL     1      24.146   3.290  52.905  1.00  0.00     0.043 A 
HETATM    7  C12 UNL     1      24.650   1.085  53.203  1.00  0.00     0.007 A 
HETATM    8  C13 UNL     1      25.798   1.763  52.751  1.00  0.00     0.054 A 
HETATM    9  C14 UNL     1      26.986   1.092  53.092  1.00  0.00     0.102 A 
HETATM   10  C16 UNL     1      26.941  -0.101  53.796  1.00  0.00     0.103 A 
HETATM   11  C18 UNL     1      25.744  -0.687  54.194  1.00  0.00     0.072 A 
HETATM   12  C19 UNL     1      24.559  -0.081  53.891  1.00  0.00     0.072 A 
HETATM   13  N3  UNL     1      23.475  -0.906  54.369  1.00  0.00    -0.241 NA
HETATM   14  C20 UNL     1      22.282  -1.066  53.848  1.00  0.00     0.236 C 
HETATM   15  N4  UNL     1      21.523  -0.594  52.711  1.00  0.00    -0.217 NA
HETATM   16  C21 UNL     1      21.526   0.546  52.056  1.00  0.00     0.174 C 
ENDROOT
BRANCH   1  17
HETATM   17  N2  UNL     1      23.792   5.668  52.592  1.00  0.00    -0.309 N 
HETATM   18  C5  UNL     1      24.167   6.263  51.354  1.00  0.00     0.320 C 
HETATM   19  N1  UNL     1      24.677   7.585  51.226  1.00  0.00    -0.343 N 
HETATM   20  O1  UNL     1      24.028   5.545  50.308  1.00  0.00    -0.247 OA
HETATM   21  H10 UNL     1      24.743   8.067  52.166  1.00  0.00     0.164 HD
HETATM   22  H11 UNL     1      23.893   6.227  53.465  1.00  0.00     0.170 HD
BRANCH  19  23
HETATM   23  C4  UNL     1      25.032   8.097  49.909  1.00  0.00     0.124 C 
BRANCH  23  24
HETATM   24  C3  UNL     1      26.487   7.769  49.682  1.00  0.00     0.019 C 
BRANCH  24  25
HETATM   25  C2  UNL     1      26.634   6.997  48.395  1.00  0.00    -0.003 C 
HETATM   26  C1  UNL     1      27.220   5.615  48.639  1.00  0.00     0.005 C 
ENDBRANCH  24  25
ENDBRANCH  23  24
ENDBRANCH  19  23
ENDBRANCH   1  17
BRANCH  16  27
HETATM   27  O4  UNL     1      20.652   0.678  50.992  1.00  0.00    -0.344 OA
HETATM   28  H24 UNL     1      19.852   1.317  51.105  1.00  0.00     0.219 HD
ENDBRANCH  16  27
BRANCH   9  29
HETATM   29  O2  UNL     1      28.193   1.659  52.705  1.00  0.00    -0.353 OA
HETATM   30  C15 UNL     1      28.812   2.553  53.613  1.00  0.00     0.210 C 
ENDBRANCH   9  29
BRANCH  10  31
HETATM   31  O3  UNL     1      28.157  -0.729  54.112  1.00  0.00    -0.353 OA
HETATM   32  C17 UNL     1      28.756  -1.652  53.228  1.00  0.00     0.210 C 
ENDBRANCH  10  31
TORSDOF 7
ENDMDL
MODEL 2
REMARK VINA RESULT:      -8.7      3.105      6.311
REMARK  7 active torsions:
REMARK  status: ('A' for Active; 'I' for Inactive)
REMARK    1  A    between atoms: C2_2  and  C3_3 
REMARK    2  A    between atoms: C3_3  and  C4_4 
REMARK    3  A    between atoms: C4_4  and  N1_5 
REMARK       I    between atoms: N1_5  and  C5_6 
REMARK       I    between atoms: C5_6  and  N2_8 
REMARK    4  A    between atoms: N2_8  and  C6_9 
REMARK    5  A    between atoms: C14_17  and  O2_18 
REMARK    6  A    between atoms: C16_20  and  O3_21 
REMARK    7  A    between atoms: C21_28  and  O4_29 
ROOT
HETATM    1  C6  UNL     1      24.432   2.433  52.065  1.00  0.00     0.037 A 
HETATM    2  C7  UNL     1      24.661   2.885  50.782  1.00  0.00     0.030 A 
HETATM    3  C8  UNL     1      23.787   2.686  49.737  1.00  0.00     0.019 A 
HETATM    4  C9  UNL     1      22.650   2.006  50.021  1.00  0.00     0.028 A 
HETATM    5  C10 UNL     1      22.392   1.534  51.305  1.00  0.00    -0.007 A 
HETATM    6  C11 UNL     1      23.263   1.725  52.394  1.00  0.00     0.043 A 
HETATM    7  C12 UNL     1      21.279   0.729  51.871  1.00  0.00     0.007 A 
HETATM    8  C13 UNL     1      21.976  -0.085  52.783  1.00  0.00     0.054 A 
HETATM    9  C14 UNL     1      21.122  -0.946  53.495  1.00  0.00     0.102 A 
HETATM   10  C16 UNL     1      19.756  -0.930  53.261  1.00  0.00     0.103 A 
HETATM   11  C18 UNL     1      19.168  -0.082  52.329  1.00  0.00     0.072 A 
HETATM   12  C19 UNL     1      19.948   0.776  51.608  1.00  0.00     0.072 A 
HETATM   13  N3  UNL     1      19.112   1.507  50.685  1.00  0.00    -0.241 NA
HETATM   14  C20 UNL     1      19.412   1.944  49.485  1.00  0.00     0.236 C 
HETATM   15  N4  UNL     1      20.540   1.942  48.580  1.00  0.00    -0.217 NA
HETATM   16  C21 UNL     1      21.838   1.966  48.785  1.00  0.00     0.174 C 
ENDROOT
BRANCH   1  17
HETATM   17  N2  UNL     1      25.379   2.674  53.099  1.00  0.00    -0.309 N 
HETATM   18  C5  UNL     1      26.230   1.568  53.384  1.00  0.00     0.320 C 
HETATM   19  N1  UNL     1      27.249   1.580  54.377  1.00  0.00    -0.343 N 
HETATM   20  O1  UNL     1      26.047   0.511  52.693  1.00  0.00    -0.247 OA
HETATM   21  H10 UNL     1      27.294   2.513  54.874  1.00  0.00     0.164 HD
HETATM   22  H11 UNL     1      25.503   3.552  53.646  1.00  0.00     0.170 HD
BRANCH  19  23
HETATM   23  C4  UNL     1      28.065   0.391  54.588  1.00  0.00     0.124 C 
BRANCH  23  24
HETATM   24  C3  UNL     1      29.374   0.618  53.874  1.00  0.00     0.019 C 
BRANCH  24  25
HETATM   25  C2  UNL     1      30.015  -0.712  53.564  1.00  0.00    -0.003 C 
HETATM   26  C1  UNL     1      28.973  -1.773  53.248  1.00  0.00     0.005 C 
ENDBRANCH  24  25
ENDBRANCH  23  24
ENDBRANCH  19  23
ENDBRANCH   1  17
BRANCH  16  27
HETATM   27  O4  UNL     1      22.663   1.959  47.674  1.00  0.00    -0.344 OA
HETATM   28  H24 UNL     1      22.263   2.272  46.778  1.00  0.00     0.219 HD
ENDBRANCH  16  27
BRANCH   9  29
HETATM   29  O2  UNL     1      21.686  -1.802  54.432  1.00  0.00    -0.353 OA
HETATM   30  C15 UNL     1      22.767  -1.305  55.199  1.00  0.00     0.210 C 
ENDBRANCH   9  29
BRANCH  10  31
HETATM   31  O3  UNL     1      18.948  -1.810  54.001  1.00  0.00    -0.353 OA
HETATM   32  C17 UNL     1      17.740  -2.313  53.473  1.00  0.00     0.210 C 
ENDBRANCH  10  31
TORSDOF 7
ENDMDL
MODEL 3
REMARK VINA RESULT:      -8.2      2.272      5.219
REMARK  7 active torsions:
REMARK  status: ('A' for Active; 'I' for Inactive)
REMARK    1  A    between atoms: C2_2  and  C3_3 
REMARK    2  A    between atoms: C3_3  and  C4_4 
REMARK    3  A    between atoms: C4_4  and  N1_5 
REMARK       I    between atoms: N1_5  and  C5_6 
REMARK       I    between atoms: C5_6  and  N2_8 
REMARK    4  A    between atoms: N2_8  and  C6_9 
REMARK    5  A    between atoms: C14_17  and  O2_18 
REMARK    6  A    between atoms: C16_20  and  O3_21 
REMARK    7  A    between atoms: C21_28  and  O4_29 
ROOT
HETATM    1  C6  UNL     1      25.836   0.984  51.950  1.00  0.00     0.037 A 
HETATM    2  C7  UNL     1      26.493   0.215  52.887  1.00  0.00     0.030 A 
HETATM    3  C8  UNL     1      25.859  -0.423  53.929  1.00  0.00     0.019 A 
HETATM    4  C9  UNL     1      24.516  -0.264  54.008  1.00  0.00     0.028 A 
HETATM    5  C10 UNL     1      23.825   0.510  53.080  1.00  0.00    -0.007 A 
HETATM    6  C11 UNL     1      24.444   1.170  52.002  1.00  0.00     0.043 A 
HETATM    7  C12 UNL     1      22.394   0.892  52.963  1.00  0.00     0.007 A 
HETATM    8  C13 UNL     1      22.509   2.216  52.499  1.00  0.00     0.054 A 
HETATM    9  C14 UNL     1      21.257   2.814  52.270  1.00  0.00     0.102 A 
HETATM   10  C16 UNL     1      20.088   2.108  52.504  1.00  0.00     0.103 A 
HETATM   11  C18 UNL     1      20.089   0.797  52.968  1.00  0.00     0.072 A 
HETATM   12  C19 UNL     1      21.275   0.164  53.207  1.00  0.00     0.072 A 
HETATM   13  N3  UNL     1      21.006  -1.158  53.722  1.00  0.00    -0.241 NA
HETATM   14  C20 UNL     1      21.703  -1.853  54.589  1.00  0.00     0.236 C 
HETATM   15  N4  UNL     1      22.911  -1.711  55.372  1.00  0.00    -0.217 NA
HETATM   16  C21 UNL     1      24.041  -1.077  55.149  1.00  0.00     0.174 C 
ENDROOT
BRANCH   1  17
HETATM   17  N2  UNL     1      26.555   1.616  50.897  1.00  0.00    -0.309 N 
HETATM   18  C5  UNL     1      26.131   2.945  50.612  1.00  0.00     0.320 C 
HETATM   19  N1  UNL     1      26.704   3.768  49.603  1.00  0.00    -0.343 N 
HETATM   20  O1  UNL     1      25.175   3.406  51.321  1.00  0.00    -0.247 OA
HETATM   21  H10 UNL     1      27.483   3.267  49.091  1.00  0.00     0.164 HD
HETATM   22  H11 UNL     1      27.333   1.211  50.336  1.00  0.00     0.170 HD
BRANCH  19  23
HETATM   23  C4  UNL     1      26.193   5.116  49.394  1.00  0.00     0.124 C 
BRANCH  23  24
HETATM   24  C3  UNL     1      27.249   5.878  48.632  1.00  0.00     0.019 C 
BRANCH  24  25
HETATM   25  C2  UNL     1      28.435   4.979  48.379  1.00  0.00    -0.003 C 
HETATM   26  C1  UNL     1      29.686   5.783  48.067  1.00  0.00     0.005 C 
ENDBRANCH  24  25
ENDBRANCH  23  24
ENDBRANCH  19  23
ENDBRANCH   1  17
BRANCH  16  27
HETATM   27  O4  UNL     1      25.019  -1.147  56.125  1.00  0.00    -0.344 OA
HETATM   28  H24 UNL     1      25.372  -2.079  56.385  1.00  0.00     0.219 HD
ENDBRANCH  16  27
BRANCH   9  29
HETATM   29  O2  UNL     1      21.231   4.123  51.806  1.00  0.00    -0.353 OA
HETATM   30  C15 UNL     1      22.271   4.985  52.232  1.00  0.00     0.210 C 
ENDBRANCH   9  29
BRANCH  10  31
HETATM   31  O3  UNL     1      18.864   2.752  52.258  1.00  0.00    -0.353 OA
HETATM   32  C17 UNL     1      17.919   2.212  51.361  1.00  0.00     0.210 C 
ENDBRANCH  10  31
TORSDOF 7
ENDMDL
MODEL 4
REMARK VINA RESULT:      -7.8      2.583      4.948
REMARK  7 active torsions:
REMARK  status: ('A' for Active; 'I' for Inactive)
REMARK    1  A    between atoms: C2_2  and  C3_3 
REMARK    2  A    between atoms: C3_3  and  C4_4 
REMARK    3  A    between atoms: C4_4  and  N1_5 
REMARK       I    between atoms: N1_5  and  C5_6 
REMARK       I    between atoms: C5_6  and  N2_8 
REMARK    4  A    between atoms: N2_8  and  C6_9 
REMARK    5  A    between atoms: C14_17  and  O2_18 
REMARK    6  A    between atoms: C16_20  and  O3_21 
REMARK    7  A    between atoms: C21_28  and  O4_29 
ROOT
HETATM    1  C6  UNL     1      24.341   3.194  49.612  1.00  0.00     0.037 A 
HETATM    2  C7  UNL     1      25.667   3.571  49.628  1.00  0.00     0.030 A 
HETATM    3  C8  UNL     1      26.576   3.122  50.560  1.00  0.00     0.019 A 
HETATM    4  C9  UNL     1      26.106   2.264  51.498  1.00  0.00     0.028 A 
HETATM    5  C10 UNL     1      24.771   1.868  51.511  1.00  0.00    -0.007 A 
HETATM    6  C11 UNL     1      23.820   2.306  50.570  1.00  0.00     0.043 A 
HETATM    7  C12 UNL     1      23.993   1.004  52.435  1.00  0.00     0.007 A 
HETATM    8  C13 UNL     1      22.760   1.684  52.460  1.00  0.00     0.054 A 
HETATM    9  C14 UNL     1      21.806   1.034  53.263  1.00  0.00     0.102 A 
HETATM   10  C16 UNL     1      22.128  -0.141  53.924  1.00  0.00     0.103 A 
HETATM   11  C18 UNL     1      23.385  -0.729  53.830  1.00  0.00     0.072 A 
HETATM   12  C19 UNL     1      24.351  -0.143  53.065  1.00  0.00     0.072 A 
HETATM   13  N3  UNL     1      25.566  -0.916  53.171  1.00  0.00    -0.241 NA
HETATM   14  C20 UNL     1      26.807  -0.492  53.136  1.00  0.00     0.236 C 
HETATM   15  N4  UNL     1      27.523   0.757  52.997  1.00  0.00    -0.217 NA
HETATM   16  C21 UNL     1      27.251   1.865  52.345  1.00  0.00     0.174 C 
ENDROOT
BRANCH   1  17
HETATM   17  N2  UNL     1      23.455   3.698  48.619  1.00  0.00    -0.309 N 
HETATM   18  C5  UNL     1      22.713   4.845  49.021  1.00  0.00     0.320 C 
HETATM   19  N1  UNL     1      21.771   5.516  48.194  1.00  0.00    -0.343 N 
HETATM   20  O1  UNL     1      22.925   5.279  50.202  1.00  0.00    -0.247 OA
HETATM   21  H10 UNL     1      21.691   5.055  47.244  1.00  0.00     0.164 HD
HETATM   22  H11 UNL     1      23.305   3.318  47.660  1.00  0.00     0.170 HD
BRANCH  19  23
HETATM   23  C4  UNL     1      21.064   6.683  48.704  1.00  0.00     0.124 C 
BRANCH  23  24
HETATM   24  C3  UNL     1      21.784   7.902  48.184  1.00  0.00     0.019 C 
BRANCH  24  25
HETATM   25  C2  UNL     1      22.395   8.657  49.338  1.00  0.00    -0.003 C 
HETATM   26  C1  UNL     1      23.914   8.626  49.283  1.00  0.00     0.005 C 
ENDBRANCH  24  25
ENDBRANCH  23  24
ENDBRANCH  19  23
ENDBRANCH   1  17
BRANCH  16  27
HETATM   27  O4  UNL     1      28.172   2.895  52.417  1.00  0.00    -0.344 OA
HETATM   28  H24 UNL     1      28.148   3.502  53.249  1.00  0.00     0.219 HD
ENDBRANCH  16  27
BRANCH   9  29
HETATM   29  O2  UNL     1      20.543   1.603  53.371  1.00  0.00    -0.353 OA
HETATM   30  C15 UNL     1      20.058   2.323  52.254  1.00  0.00     0.210 C 
ENDBRANCH   9  29
BRANCH  10  31
HETATM   31  O3  UNL     1      21.137  -0.750  54.712  1.00  0.00    -0.353 OA
HETATM   32  C17 UNL     1      20.244  -1.696  54.166  1.00  0.00     0.210 C 
ENDBRANCH  10  31
TORSDOF 7
ENDMDL
MODEL 5
REMARK VINA RESULT:      -7.8      2.764      6.701
REMARK  7 active torsions:
REMARK  status: ('A' for Active; 'I' for Inactive)
REMARK    1  A    between atoms: C2_2  and  C3_3 
REMARK    2  A    between atoms: C3_3  and  C4_4 
REMARK    3  A    between atoms: C4_4  and  N1_5 
REMARK       I    between atoms: N1_5  and  C5_6 
REMARK       I    between atoms: C5_6  and  N2_8 
REMARK    4  A    between atoms: N2_8  and  C6_9 
REMARK    5  A    between atoms: C14_17  and  O2_18 
REMARK    6  A    between atoms: C16_20  and  O3_21 
REMARK    7  A    between atoms: C21_28  and  O4_29 
ROOT
HETATM    1  C6  UNL     1      21.435   1.449  50.221  1.00  0.00     0.037 A 
HETATM    2  C7  UNL     1      21.266   2.693  49.648  1.00  0.00     0.030 A 
HETATM    3  C8  UNL     1      22.219   3.685  49.686  1.00  0.00     0.019 A 
HETATM    4  C9  UNL     1      23.374   3.389  50.331  1.00  0.00     0.028 A 
HETATM    5  C10 UNL     1      23.573   2.145  50.922  1.00  0.00    -0.007 A 
HETATM    6  C11 UNL     1      22.620   1.109  50.896  1.00  0.00     0.043 A 
HETATM    7  C12 UNL     1      24.692   1.585  51.722  1.00  0.00     0.007 A 
HETATM    8  C13 UNL     1      23.986   0.815  52.666  1.00  0.00     0.054 A 
HETATM    9  C14 UNL     1      24.841   0.134  53.550  1.00  0.00     0.102 A 
HETATM   10  C16 UNL     1      26.216   0.264  53.437  1.00  0.00     0.103 A 
HETATM   11  C18 UNL     1      26.812   1.058  52.463  1.00  0.00     0.072 A 
HETATM   12  C19 UNL     1      26.032   1.742  51.576  1.00  0.00     0.072 A 
HETATM   13  N3  UNL     1      26.882   2.521  50.707  1.00  0.00    -0.241 NA
HETATM   14  C20 UNL     1      26.638   3.688  50.160  1.00  0.00     0.236 C 
HETATM   15  N4  UNL     1      25.576   4.669  50.127  1.00  0.00    -0.217 NA
HETATM   16  C21 UNL     1      24.268   4.560  50.194  1.00  0.00     0.174 C 
ENDROOT
BRANCH   1  17
HETATM   17  N2  UNL     1      20.406   0.469  50.143  1.00  0.00    -0.309 N 
HETATM   18  C5  UNL     1      19.327   0.678  51.047  1.00  0.00     0.320 C 
HETATM   19  N1  UNL     1      18.191  -0.173  51.146  1.00  0.00    -0.343 N 
HETATM   20  O1  UNL     1      19.405   1.701  51.806  1.00  0.00    -0.247 OA
HETATM   21  H10 UNL     1      18.251  -0.980  50.464  1.00  0.00     0.164 HD
HETATM   22  H11 UNL     1      20.373  -0.358  49.510  1.00  0.00     0.170 HD
BRANCH  19  23
HETATM   23  C4  UNL     1      17.140   0.133  52.108  1.00  0.00     0.124 C 
BRANCH  23  24
HETATM   24  C3  UNL     1      16.686  -1.176  52.701  1.00  0.00     0.019 C 
BRANCH  24  25
HETATM   25  C2  UNL     1      17.862  -1.879  53.332  1.00  0.00    -0.003 C 
HETATM   26  C1  UNL     1      17.537  -3.328  53.657  1.00  0.00     0.005 C 
ENDBRANCH  24  25
ENDBRANCH  23  24
ENDBRANCH  19  23
ENDBRANCH   1  17
BRANCH  16  27
HETATM   27  O4  UNL     1      23.522   5.724  50.127  1.00  0.00    -0.344 OA
HETATM   28  H24 UNL     1      22.923   5.956  50.932  1.00  0.00     0.219 HD
ENDBRANCH  16  27
BRANCH   9  29
HETATM   29  O2  UNL     1      24.268  -0.666  54.531  1.00  0.00    -0.353 OA
HETATM   30  C15 UNL     1      22.893  -0.974  54.397  1.00  0.00     0.210 C 
ENDBRANCH   9  29
BRANCH  10  31
HETATM   31  O3  UNL     1      27.025  -0.439  54.346  1.00  0.00    -0.353 OA
HETATM   32  C17 UNL     1      28.219   0.120  54.847  1.00  0.00     0.210 C 
ENDBRANCH  10  31
TORSDOF 7
ENDMDL
MODEL 6
REMARK VINA RESULT:      -7.5      1.497      1.869
REMARK  7 active torsions:
REMARK  status: ('A' for Active; 'I' for Inactive)
REMARK    1  A    between atoms: C2_2  and  C3_3 
REMARK    2  A    between atoms: C3_3  and  C4_4 
REMARK    3  A    between atoms: C4_4  and  N1_5 
REMARK       I    between atoms: N1_5  and  C5_6 
REMARK       I    between atoms: C5_6  and  N2_8 
REMARK    4  A    between atoms: N2_8  and  C6_9 
REMARK    5  A    between atoms: C14_17  and  O2_18 
REMARK    6  A    between atoms: C16_20  and  O3_21 
REMARK    7  A    between atoms: C21_28  and  O4_29 
ROOT
HETATM    1  C6  UNL     1      21.676   4.650  51.732  1.00  0.00     0.037 A 
HETATM    2  C7  UNL     1      20.390   4.440  51.278  1.00  0.00     0.030 A 
HETATM    3  C8  UNL     1      19.777   3.208  51.270  1.00  0.00     0.019 A 
HETATM    4  C9  UNL     1      20.505   2.167  51.740  1.00  0.00     0.028 A 
HETATM    5  C10 UNL     1      21.806   2.345  52.202  1.00  0.00    -0.007 A 
HETATM    6  C11 UNL     1      22.459   3.592  52.227  1.00  0.00     0.043 A 
HETATM    7  C12 UNL     1      22.828   1.393  52.708  1.00  0.00     0.007 A 
HETATM    8  C13 UNL     1      24.002   1.949  52.165  1.00  0.00     0.054 A 
HETATM    9  C14 UNL     1      25.154   1.232  52.532  1.00  0.00     0.102 A 
HETATM   10  C16 UNL     1      25.055   0.111  53.341  1.00  0.00     0.103 A 
HETATM   11  C18 UNL     1      23.837  -0.356  53.822  1.00  0.00     0.072 A 
HETATM   12  C19 UNL     1      22.684   0.300  53.499  1.00  0.00     0.072 A 
HETATM   13  N3  UNL     1      21.565  -0.404  54.079  1.00  0.00    -0.241 NA
HETATM   14  C20 UNL     1      20.348  -0.529  53.607  1.00  0.00     0.236 C 
HETATM   15  N4  UNL     1      19.583  -0.108  52.453  1.00  0.00    -0.217 NA
HETATM   16  C21 UNL     1      19.639   0.968  51.700  1.00  0.00     0.174 C 
ENDROOT
BRANCH   1  17
HETATM   17  N2  UNL     1      22.249   5.952  51.712  1.00  0.00    -0.309 N 
HETATM   18  C5  UNL     1      23.042   6.226  50.562  1.00  0.00     0.320 C 
HETATM   19  N1  UNL     1      23.711   7.460  50.329  1.00  0.00    -0.343 N 
HETATM   20  O1  UNL     1      23.144   5.291  49.700  1.00  0.00    -0.247 OA
HETATM   21  H10 UNL     1      23.545   8.145  51.118  1.00  0.00     0.164 HD
HETATM   22  H11 UNL     1      22.146   6.695  52.435  1.00  0.00     0.170 HD
BRANCH  19  23
HETATM   23  C4  UNL     1      24.499   7.636  49.116  1.00  0.00     0.124 C 
BRANCH  23  24
HETATM   24  C3  UNL     1      25.938   7.366  49.478  1.00  0.00     0.019 C 
BRANCH  24  25
HETATM   25  C2  UNL     1      26.628   6.681  48.325  1.00  0.00    -0.003 C 
HETATM   26  C1  UNL     1      27.132   5.302  48.718  1.00  0.00     0.005 C 
ENDBRANCH  24  25
ENDBRANCH  23  24
ENDBRANCH  19  23
ENDBRANCH   1  17
BRANCH  16  27
HETATM   27  O4  UNL     1      18.740   1.065  50.652  1.00  0.00    -0.344 OA
HETATM   28  H24 UNL     1      17.986   1.763  50.731  1.00  0.00     0.219 HD
ENDBRANCH  16  27
BRANCH   9  29
HETATM   29  O2  UNL     1      26.382   1.680  52.063  1.00  0.00    -0.353 OA
HETATM   30  C15 UNL     1      26.376   2.511  50.917  1.00  0.00     0.210 C 
ENDBRANCH   9  29
BRANCH  10  31
HETATM   31  O3  UNL     1      26.238  -0.569  53.678  1.00  0.00    -0.353 OA
HETATM   32  C17 UNL     1      27.090  -0.093  54.697  1.00  0.00     0.210 C 
ENDBRANCH  10  31
TORSDOF 7
ENDMDL
MODEL 7
REMARK VINA RESULT:      -7.5      3.145      8.185
REMARK  7 active torsions:
REMARK  status: ('A' for Active; 'I' for Inactive)
REMARK    1  A    between atoms: C2_2  and  C3_3 
REMARK    2  A    between atoms: C3_3  and  C4_4 
REMARK    3  A    between atoms: C4_4  and  N1_5 
REMARK       I    between atoms: N1_5  and  C5_6 
REMARK       I    between atoms: C5_6  and  N2_8 
REMARK    4  A    between atoms: N2_8  and  C6_9 
REMARK    5  A    between atoms: C14_17  and  O2_18 
REMARK    6  A    between atoms: C16_20  and  O3_21 
REMARK    7  A    between atoms: C21_28  and  O4_29 
ROOT
HETATM    1  C6  UNL     1      25.810   3.571  50.095  1.00  0.00     0.037 A 
HETATM    2  C7  UNL     1      24.766   4.120  50.809  1.00  0.00     0.030 A 
HETATM    3  C8  UNL     1      24.451   5.460  50.790  1.00  0.00     0.019 A 
HETATM    4  C9  UNL     1      25.231   6.253  50.016  1.00  0.00     0.028 A 
HETATM    5  C10 UNL     1      26.294   5.730  49.286  1.00  0.00    -0.007 A 
HETATM    6  C11 UNL     1      26.639   4.365  49.282  1.00  0.00     0.043 A 
HETATM    7  C12 UNL     1      27.323   6.363  48.422  1.00  0.00     0.007 A 
HETATM    8  C13 UNL     1      28.454   5.588  48.741  1.00  0.00     0.054 A 
HETATM    9  C14 UNL     1      29.592   5.974  48.011  1.00  0.00     0.102 A 
HETATM   10  C16 UNL     1      29.521   7.015  47.100  1.00  0.00     0.103 A 
HETATM   11  C18 UNL     1      28.346   7.720  46.862  1.00  0.00     0.072 A 
HETATM   12  C19 UNL     1      27.209   7.389  47.541  1.00  0.00     0.072 A 
HETATM   13  N3  UNL     1      26.151   8.292  47.152  1.00  0.00    -0.241 NA
HETATM   14  C20 UNL     1      25.157   8.744  47.879  1.00  0.00     0.236 C 
HETATM   15  N4  UNL     1      24.655   8.616  49.230  1.00  0.00    -0.217 NA
HETATM   16  C21 UNL     1      24.680   7.624  50.092  1.00  0.00     0.174 C 
ENDROOT
BRANCH   1  17
HETATM   17  N2  UNL     1      26.080   2.175  50.161  1.00  0.00    -0.309 N 
HETATM   18  C5  UNL     1      26.420   1.704  51.461  1.00  0.00     0.320 C 
HETATM   19  N1  UNL     1      26.729   0.349  51.764  1.00  0.00    -0.343 N 
HETATM   20  O1  UNL     1      26.443   2.572  52.397  1.00  0.00    -0.247 OA
HETATM   21  H10 UNL     1      26.674  -0.263  50.902  1.00  0.00     0.164 HD
HETATM   22  H11 UNL     1      26.052   1.492  49.375  1.00  0.00     0.170 HD
BRANCH  19  23
HETATM   23  C4  UNL     1      27.065  -0.027  53.130  1.00  0.00     0.124 C 
BRANCH  23  24
HETATM   24  C3  UNL     1      28.006  -1.203  53.049  1.00  0.00     0.019 C 
BRANCH  24  25
HETATM   25  C2  UNL     1      29.401  -0.758  53.415  1.00  0.00    -0.003 C 
HETATM   26  C1  UNL     1      29.399   0.632  54.028  1.00  0.00     0.005 C 
ENDBRANCH  24  25
ENDBRANCH  23  24
ENDBRANCH  19  23
ENDBRANCH   1  17
BRANCH  16  27
HETATM   27  O4  UNL     1      24.092   7.833  51.327  1.00  0.00    -0.344 OA
HETATM   28  H24 UNL     1      23.677   7.020  51.804  1.00  0.00     0.219 HD
ENDBRANCH  16  27
BRANCH   9  29
HETATM   29  O2  UNL     1      30.777   5.284  48.232  1.00  0.00    -0.353 OA
HETATM   30  C15 UNL     1      31.600   5.728  49.294  1.00  0.00     0.210 C 
ENDBRANCH   9  29
BRANCH  10  31
HETATM   31  O3  UNL     1      30.688   7.360  46.397  1.00  0.00    -0.353 OA
HETATM   32  C17 UNL     1      31.440   8.503  46.742  1.00  0.00     0.210 C 
ENDBRANCH  10  31
TORSDOF 7
ENDMDL
MODEL 8
REMARK VINA RESULT:      -7.4      3.729      8.768
REMARK  7 active torsions:
REMARK  status: ('A' for Active; 'I' for Inactive)
REMARK    1  A    between atoms: C2_2  and  C3_3 
REMARK    2  A    between atoms: C3_3  and  C4_4 
REMARK    3  A    between atoms: C4_4  and  N1_5 
REMARK       I    between atoms: N1_5  and  C5_6 
REMARK       I    between atoms: C5_6  and  N2_8 
REMARK    4  A    between atoms: N2_8  and  C6_9 
REMARK    5  A    between atoms: C14_17  and  O2_18 
REMARK    6  A    between atoms: C16_20  and  O3_21 
REMARK    7  A    between atoms: C21_28  and  O4_29 
ROOT
HETATM    1  C6  UNL     1      26.290   4.270  49.467  1.00  0.00     0.037 A 
HETATM    2  C7  UNL     1      25.363   5.087  50.080  1.00  0.00     0.030 A 
HETATM    3  C8  UNL     1      25.411   6.462  50.036  1.00  0.00     0.019 A 
HETATM    4  C9  UNL     1      26.440   7.009  49.344  1.00  0.00     0.028 A 
HETATM    5  C10 UNL     1      27.394   6.212  48.717  1.00  0.00    -0.007 A 
HETATM    6  C11 UNL     1      27.369   4.804  48.741  1.00  0.00     0.043 A 
HETATM    7  C12 UNL     1      28.628   6.538  47.957  1.00  0.00     0.007 A 
HETATM    8  C13 UNL     1      29.483   5.503  48.380  1.00  0.00     0.054 A 
HETATM    9  C14 UNL     1      30.745   5.565  47.765  1.00  0.00     0.102 A 
HETATM   10  C16 UNL     1      31.034   6.569  46.854  1.00  0.00     0.103 A 
HETATM   11  C18 UNL     1      30.110   7.550  46.508  1.00  0.00     0.072 A 
HETATM   12  C19 UNL     1      28.868   7.540  47.074  1.00  0.00     0.072 A 
HETATM   13  N3  UNL     1      28.123   8.677  46.589  1.00  0.00    -0.241 NA
HETATM   14  C20 UNL     1      27.217   9.387  47.219  1.00  0.00     0.236 C 
HETATM   15  N4  UNL     1      26.575   9.422  48.515  1.00  0.00    -0.217 NA
HETATM   16  C21 UNL     1      26.260   8.477  49.372  1.00  0.00     0.174 C 
ENDROOT
BRANCH   1  17
HETATM   17  N2  UNL     1      26.180   2.854  49.553  1.00  0.00    -0.309 N 
HETATM   18  C5  UNL     1      26.632   2.304  50.786  1.00  0.00     0.320 C 
HETATM   19  N1  UNL     1      26.616   0.916  51.095  1.00  0.00    -0.343 N 
HETATM   20  O1  UNL     1      27.074   3.129  51.654  1.00  0.00    -0.247 OA
HETATM   21  H10 UNL     1      26.227   0.345  50.293  1.00  0.00     0.164 HD
HETATM   22  H11 UNL     1      25.813   2.207  48.824  1.00  0.00     0.170 HD
BRANCH  19  23
HETATM   23  C4  UNL     1      27.103   0.458  52.389  1.00  0.00     0.124 C 
BRANCH  23  24
HETATM   24  C3  UNL     1      26.438  -0.866  52.671  1.00  0.00     0.019 C 
BRANCH  24  25
HETATM   25  C2  UNL     1      25.554  -0.737  53.887  1.00  0.00    -0.003 C 
HETATM   26  C1  UNL     1      24.164  -0.245  53.516  1.00  0.00     0.005 C 
ENDBRANCH  24  25
ENDBRANCH  23  24
ENDBRANCH  19  23
ENDBRANCH   1  17
BRANCH  16  27
HETATM   27  O4  UNL     1      25.634   8.857  50.546  1.00  0.00    -0.344 OA
HETATM   28  H24 UNL     1      25.222   8.117  51.131  1.00  0.00     0.219 HD
ENDBRANCH  16  27
BRANCH   9  29
HETATM   29  O2  UNL     1      31.684   4.595  48.094  1.00  0.00    -0.353 OA
HETATM   30  C15 UNL     1      31.905   3.559  47.156  1.00  0.00     0.210 C 
ENDBRANCH   9  29
BRANCH  10  31
HETATM   31  O3  UNL     1      32.310   6.584  46.268  1.00  0.00    -0.353 OA
HETATM   32  C17 UNL     1      33.327   7.438  46.747  1.00  0.00     0.210 C 
ENDBRANCH  10  31
TORSDOF 7
ENDMDL
MODEL 9
REMARK VINA RESULT:      -7.1      5.850      9.905
REMARK  7 active torsions:
REMARK  status: ('A' for Active; 'I' for Inactive)
REMARK    1  A    between atoms: C2_2  and  C3_3 
REMARK    2  A    between atoms: C3_3  and  C4_4 
REMARK    3  A    between atoms: C4_4  and  N1_5 
REMARK       I    between atoms: N1_5  and  C5_6 
REMARK       I    between atoms: C5_6  and  N2_8 
REMARK    4  A    between atoms: N2_8  and  C6_9 
REMARK    5  A    between atoms: C14_17  and  O2_18 
REMARK    6  A    between atoms: C16_20  and  O3_21 
REMARK    7  A    between atoms: C21_28  and  O4_29 
ROOT
HETATM    1  C6  UNL     1      29.399   6.238  47.797  1.00  0.00     0.037 A 
HETATM    2  C7  UNL     1      28.748   5.125  48.285  1.00  0.00     0.030 A 
HETATM    3  C8  UNL     1      27.503   5.165  48.869  1.00  0.00     0.019 A 
HETATM    4  C9  UNL     1      26.914   6.383  48.953  1.00  0.00     0.028 A 
HETATM    5  C10 UNL     1      27.547   7.526  48.473  1.00  0.00    -0.007 A 
HETATM    6  C11 UNL     1      28.817   7.516  47.867  1.00  0.00     0.043 A 
HETATM    7  C12 UNL     1      27.165   8.961  48.486  1.00  0.00     0.007 A 
HETATM    8  C13 UNL     1      28.415   9.568  48.712  1.00  0.00     0.054 A 
HETATM    9  C14 UNL     1      28.335  10.971  48.737  1.00  0.00     0.102 A 
HETATM   10  C16 UNL     1      27.117  11.607  48.554  1.00  0.00     0.103 A 
HETATM   11  C18 UNL     1      25.934  10.907  48.340  1.00  0.00     0.072 A 
HETATM   12  C19 UNL     1      25.952   9.543  48.304  1.00  0.00     0.072 A 
HETATM   13  N3  UNL     1      24.604   9.061  48.117  1.00  0.00    -0.241 NA
HETATM   14  C20 UNL     1      24.060   7.961  48.581  1.00  0.00     0.236 C 
HETATM   15  N4  UNL     1      24.435   6.824  49.392  1.00  0.00    -0.217 NA
HETATM   16  C21 UNL     1      25.574   6.185  49.548  1.00  0.00     0.174 C 
ENDROOT
BRANCH   1  17
HETATM   17  N2  UNL     1      30.688   6.124  47.204  1.00  0.00    -0.309 N 
HETATM   18  C5  UNL     1      31.758   6.032  48.138  1.00  0.00     0.320 C 
HETATM   19  N1  UNL     1      33.128   5.911  47.774  1.00  0.00    -0.343 N 
HETATM   20  O1  UNL     1      31.443   6.062  49.375  1.00  0.00    -0.247 OA
HETATM   21  H10 UNL     1      33.250   5.899  46.723  1.00  0.00     0.164 HD
HETATM   22  H11 UNL     1      30.911   6.103  46.186  1.00  0.00     0.170 HD
BRANCH  19  23
HETATM   23  C4  UNL     1      34.146   5.824  48.813  1.00  0.00     0.124 C 
BRANCH  23  24
HETATM   24  C3  UNL     1      35.175   4.827  48.343  1.00  0.00     0.019 C 
BRANCH  24  25
HETATM   25  C2  UNL     1      34.480   3.630  47.742  1.00  0.00    -0.003 C 
HETATM   26  C1  UNL     1      35.036   3.296  46.367  1.00  0.00     0.005 C 
ENDBRANCH  24  25
ENDBRANCH  23  24
ENDBRANCH  19  23
ENDBRANCH   1  17
BRANCH  16  27
HETATM   27  O4  UNL     1      25.592   5.109  50.417  1.00  0.00    -0.344 OA
HETATM   28  H24 UNL     1      24.745   4.929  50.974  1.00  0.00     0.219 HD
ENDBRANCH  16  27
BRANCH   9  29
HETATM   29  O2  UNL     1      29.503  11.692  48.950  1.00  0.00    -0.353 OA
HETATM   30  C15 UNL     1      30.719  10.968  48.964  1.00  0.00     0.210 C 
ENDBRANCH   9  29
BRANCH  10  31
HETATM   31  O3  UNL     1      27.092  13.012  48.588  1.00  0.00    -0.353 OA
HETATM   32  C17 UNL     1      26.085  13.742  47.923  1.00  0.00     0.210 C 
ENDBRANCH  10  31
TORSDOF 7
ENDMDL
