MODEL 1
REMARK VINA RESULT:      -8.3      0.000      0.000
REMARK  7 active torsions:
REMARK  status: ('A' for Active; 'I' for Inactive)
REMARK    1  A    between atoms: O1_2  and  N1_3 
REMARK    2  A    between atoms: C7_9  and  C8_10 
REMARK    3  A    between atoms: C8_10  and  N2_11 
REMARK    4  A    between atoms: C15_20  and  N5_21 
REMARK    5  A    between atoms: N5_21  and  C16_22 
REMARK    6  A    between atoms: C16_22  and  C17_23 
REMARK    7  A    between atoms: C18_24  and  C19_26 
ROOT
HETATM    1  N2  UNL     1      23.642   3.126  50.789  1.00  0.00    -0.288 NA
HETATM    2  C9  UNL     1      22.997   2.114  51.247  1.00  0.00     0.061 C 
HETATM    3  C10 UNL     1      21.601   1.880  50.900  1.00  0.00     0.065 C 
HETATM    4  C11 UNL     1      20.624   1.220  51.450  1.00  0.00     0.087 C 
HETATM    5  N3  UNL     1      20.548   1.020  52.699  1.00  0.00    -0.257 NA
HETATM    6  C12 UNL     1      21.270   0.164  53.610  1.00  0.00     0.142 C 
HETATM    7  C13 UNL     1      22.581  -0.069  53.801  1.00  0.00     0.089 C 
HETATM    8  C14 UNL     1      22.890  -1.009  54.826  1.00  0.00     0.103 C 
HETATM    9  N4  UNL     1      23.122  -1.773  55.665  1.00  0.00    -0.191 NA
HETATM   10  C15 UNL     1      23.773   0.490  53.122  1.00  0.00     0.059 C 
HETATM   11  C20 UNL     1      23.939   1.358  52.107  1.00  0.00    -0.006 C 
HETATM   12  C21 UNL     1      25.378   1.570  51.826  1.00  0.00     0.053 C 
ENDROOT
BRANCH  10  13
HETATM   13  N5  UNL     1      24.988  -0.007  53.674  1.00  0.00    -0.385 N 
HETATM   14  H13 UNL     1      24.925  -0.866  53.065  1.00  0.00     0.160 HD
BRANCH  13  15
HETATM   15  C16 UNL     1      26.003   0.317  54.618  1.00  0.00     0.148 C 
BRANCH  15  16
HETATM   16  C17 UNL     1      27.238  -0.412  54.217  1.00  0.00     0.014 C 
HETATM   17  C18 UNL     1      28.344   0.186  53.851  1.00  0.00     0.038 C 
HETATM   18 CL1  UNL     1      28.454   1.936  53.808  1.00  0.00    -0.087 Cl
BRANCH  17  19
HETATM   19  C19 UNL     1      29.527  -0.605  53.466  1.00  0.00     0.273 C 
HETATM   20  F1  UNL     1      29.248  -1.888  53.120  1.00  0.00    -0.250 F 
ENDBRANCH  17  19
ENDBRANCH  15  16
ENDBRANCH  13  15
ENDBRANCH  10  13
BRANCH   1  21
HETATM   21  C8  UNL     1      23.015   4.084  49.908  1.00  0.00     0.162 C 
BRANCH  21  22
HETATM   22  C7  UNL     1      23.041   5.501  50.440  1.00  0.00     0.077 C 
HETATM   23  C6  UNL     1      24.010   6.371  49.725  1.00  0.00     0.069 A 
HETATM   24  N1  UNL     1      24.241   6.571  48.335  1.00  0.00    -0.257 N 
HETATM   25  C5  UNL     1      24.767   7.061  50.563  1.00  0.00     0.053 A 
HETATM   26  C2  UNL     1      25.217   7.450  47.731  1.00  0.00     0.183 A 
HETATM   27  C3  UNL     1      25.970   8.136  48.807  1.00  0.00    -0.003 A 
HETATM   28  C4  UNL     1      25.799   7.991  50.121  1.00  0.00     0.029 A 
HETATM   29  N6  UNL     1      24.418   6.753  51.898  1.00  0.00    -0.388 N 
HETATM   30  C22 UNL     1      23.596   5.540  51.851  1.00  0.00     0.132 C 
HETATM   31  H24 UNL     1      24.651   7.233  52.804  1.00  0.00     0.159 HD
BRANCH  24  32
HETATM   32  O1  UNL     1      23.476   5.875  47.462  1.00  0.00    -0.283 OA
HETATM   33  C1  UNL     1      22.476   6.660  46.916  1.00  0.00     0.238 C 
ENDBRANCH  24  32
ENDBRANCH  21  22
ENDBRANCH   1  21
TORSDOF 7
ENDMDL
MODEL 2
REMARK VINA RESULT:      -8.1      4.958      7.740
REMARK  7 active torsions:
REMARK  status: ('A' for Active; 'I' for Inactive)
REMARK    1  A    between atoms: O1_2  and  N1_3 
REMARK    2  A    between atoms: C7_9  and  C8_10 
REMARK    3  A    between atoms: C8_10  and  N2_11 
REMARK    4  A    between atoms: C15_20  and  N5_21 
REMARK    5  A    between atoms: N5_21  and  C16_22 
REMARK    6  A    between atoms: C16_22  and  C17_23 
REMARK    7  A    between atoms: C18_24  and  C19_26 
ROOT
HETATM    1  N2  UNL     1      23.233   0.634  51.831  1.00  0.00    -0.288 NA
HETATM    2  C9  UNL     1      22.071   0.544  52.368  1.00  0.00     0.061 C 
HETATM    3  C10 UNL     1      21.906   0.224  53.780  1.00  0.00     0.065 C 
HETATM    4  C11 UNL     1      20.942  -0.281  54.495  1.00  0.00     0.087 C 
HETATM    5  N3  UNL     1      20.075  -1.071  54.017  1.00  0.00    -0.257 NA
HETATM    6  C12 UNL     1      18.949  -0.886  53.132  1.00  0.00     0.142 C 
HETATM    7  C13 UNL     1      18.805  -0.251  51.954  1.00  0.00     0.089 C 
HETATM    8  C14 UNL     1      17.499  -0.303  51.391  1.00  0.00     0.103 C 
HETATM    9  N4  UNL     1      16.430  -0.358  50.945  1.00  0.00    -0.191 NA
HETATM   10  C15 UNL     1      19.783   0.502  51.135  1.00  0.00     0.059 C 
HETATM   11  C20 UNL     1      21.080   0.818  51.298  1.00  0.00    -0.006 C 
HETATM   12  C21 UNL     1      21.580   1.603  50.146  1.00  0.00     0.053 C 
ENDROOT
BRANCH  10  13
HETATM   13  N5  UNL     1      19.210   0.983  49.924  1.00  0.00    -0.385 N 
HETATM   14  H13 UNL     1      19.026  -0.005  49.606  1.00  0.00     0.160 HD
BRANCH  13  15
HETATM   15  C16 UNL     1      18.910   2.190  49.230  1.00  0.00     0.148 C 
BRANCH  15  16
HETATM   16  C17 UNL     1      17.756   2.829  49.921  1.00  0.00     0.014 C 
HETATM   17  C18 UNL     1      17.883   3.641  50.940  1.00  0.00     0.038 C 
HETATM   18 CL1  UNL     1      19.464   4.046  51.582  1.00  0.00    -0.087 Cl
BRANCH  17  19
HETATM   19  C19 UNL     1      16.692   4.235  51.573  1.00  0.00     0.273 C 
HETATM   20  F1  UNL     1      15.579   4.208  50.796  1.00  0.00    -0.250 F 
ENDBRANCH  17  19
ENDBRANCH  15  16
ENDBRANCH  13  15
ENDBRANCH  10  13
BRANCH   1  21
HETATM   21  C8  UNL     1      24.438   0.421  52.600  1.00  0.00     0.162 C 
BRANCH  21  22
HETATM   22  C7  UNL     1      25.686   0.946  51.924  1.00  0.00     0.077 C 
HETATM   23  C6  UNL     1      26.882   0.910  52.806  1.00  0.00     0.069 A 
HETATM   24  N1  UNL     1      27.404  -0.122  53.635  1.00  0.00    -0.257 N 
HETATM   25  C5  UNL     1      27.546   2.055  52.785  1.00  0.00     0.053 A 
HETATM   26  C2  UNL     1      28.586  -0.060  54.464  1.00  0.00     0.183 A 
HETATM   27  C3  UNL     1      29.199   1.282  54.321  1.00  0.00    -0.003 A 
HETATM   28  C4  UNL     1      28.758   2.286  53.562  1.00  0.00     0.029 A 
HETATM   29  N6  UNL     1      26.905   2.972  51.921  1.00  0.00    -0.388 N 
HETATM   30  C22 UNL     1      25.569   2.432  51.647  1.00  0.00     0.132 C 
HETATM   31  H24 UNL     1      27.234   3.880  51.506  1.00  0.00     0.159 HD
BRANCH  24  32
HETATM   32  O1  UNL     1      26.739  -1.300  53.669  1.00  0.00    -0.283 OA
HETATM   33  C1  UNL     1      27.205  -2.181  52.708  1.00  0.00     0.238 C 
ENDBRANCH  24  32
ENDBRANCH  21  22
ENDBRANCH   1  21
TORSDOF 7
ENDMDL
MODEL 3
REMARK VINA RESULT:      -8.0      4.553      7.528
REMARK  7 active torsions:
REMARK  status: ('A' for Active; 'I' for Inactive)
REMARK    1  A    between atoms: O1_2  and  N1_3 
REMARK    2  A    between atoms: C7_9  and  C8_10 
REMARK    3  A    between atoms: C8_10  and  N2_11 
REMARK    4  A    between atoms: C15_20  and  N5_21 
REMARK    5  A    between atoms: N5_21  and  C16_22 
REMARK    6  A    between atoms: C16_22  and  C17_23 
REMARK    7  A    between atoms: C18_24  and  C19_26 
ROOT
HETATM    1  N2  UNL     1      23.403   0.982  51.452  1.00  0.00    -0.288 NA
HETATM    2  C9  UNL     1      22.189   0.973  51.869  1.00  0.00     0.061 C 
HETATM    3  C10 UNL     1      21.860   0.652  53.252  1.00  0.00     0.065 C 
HETATM    4  C11 UNL     1      20.795   0.213  53.857  1.00  0.00     0.087 C 
HETATM    5  N3  UNL     1      19.925  -0.506  53.282  1.00  0.00    -0.257 NA
HETATM    6  C12 UNL     1      18.910  -0.229  52.292  1.00  0.00     0.142 C 
HETATM    7  C13 UNL     1      18.933   0.426  51.117  1.00  0.00     0.089 C 
HETATM    8  C14 UNL     1      17.689   0.478  50.425  1.00  0.00     0.103 C 
HETATM    9  N4  UNL     1      16.670   0.506  49.874  1.00  0.00    -0.191 NA
HETATM   10  C15 UNL     1      20.040   1.113  50.412  1.00  0.00     0.059 C 
HETATM   11  C20 UNL     1      21.334   1.330  50.710  1.00  0.00    -0.006 C 
HETATM   12  C21 UNL     1      22.004   2.087  49.627  1.00  0.00     0.053 C 
ENDROOT
BRANCH  10  13
HETATM   13  N5  UNL     1      19.629   1.647  49.159  1.00  0.00    -0.385 N 
HETATM   14  H13 UNL     1      19.939   0.766  48.670  1.00  0.00     0.160 HD
BRANCH  13  15
HETATM   15  C16 UNL     1      19.044   2.806  48.574  1.00  0.00     0.148 C 
BRANCH  15  16
HETATM   16  C17 UNL     1      19.587   2.935  47.194  1.00  0.00     0.014 C 
HETATM   17  C18 UNL     1      20.408   3.886  46.825  1.00  0.00     0.038 C 
HETATM   18 CL1  UNL     1      20.942   5.110  47.963  1.00  0.00    -0.087 Cl
BRANCH  17  19
HETATM   19  C19 UNL     1      20.904   3.948  45.439  1.00  0.00     0.273 C 
HETATM   20  F1  UNL     1      22.164   3.470  45.278  1.00  0.00    -0.250 F 
ENDBRANCH  17  19
ENDBRANCH  15  16
ENDBRANCH  13  15
ENDBRANCH  10  13
BRANCH   1  21
HETATM   21  C8  UNL     1      24.505   0.673  52.333  1.00  0.00     0.162 C 
BRANCH  21  22
HETATM   22  C7  UNL     1      25.853   1.091  51.785  1.00  0.00     0.077 C 
HETATM   23  C6  UNL     1      26.942   0.999  52.791  1.00  0.00     0.069 A 
HETATM   24  N1  UNL     1      27.299  -0.042  53.694  1.00  0.00    -0.257 N 
HETATM   25  C5  UNL     1      27.684   2.095  52.819  1.00  0.00     0.053 A 
HETATM   26  C2  UNL     1      28.388  -0.037  54.644  1.00  0.00     0.183 A 
HETATM   27  C3  UNL     1      29.105   1.255  54.539  1.00  0.00    -0.003 A 
HETATM   28  C4  UNL     1      28.820   2.264  53.717  1.00  0.00     0.029 A 
HETATM   29  N6  UNL     1      27.205   3.029  51.871  1.00  0.00    -0.388 N 
HETATM   30  C22 UNL     1      25.871   2.573  51.466  1.00  0.00     0.132 C 
HETATM   31  H24 UNL     1      27.641   3.900  51.474  1.00  0.00     0.159 HD
BRANCH  24  32
HETATM   32  O1  UNL     1      26.552  -1.171  53.680  1.00  0.00    -0.283 OA
HETATM   33  C1  UNL     1      27.027  -2.090  52.762  1.00  0.00     0.238 C 
ENDBRANCH  24  32
ENDBRANCH  21  22
ENDBRANCH   1  21
TORSDOF 7
ENDMDL
MODEL 4
REMARK VINA RESULT:      -7.9      1.585      2.234
REMARK  7 active torsions:
REMARK  status: ('A' for Active; 'I' for Inactive)
REMARK    1  A    between atoms: O1_2  and  N1_3 
REMARK    2  A    between atoms: C7_9  and  C8_10 
REMARK    3  A    between atoms: C8_10  and  N2_11 
REMARK    4  A    between atoms: C15_20  and  N5_21 
REMARK    5  A    between atoms: N5_21  and  C16_22 
REMARK    6  A    between atoms: C16_22  and  C17_23 
REMARK    7  A    between atoms: C18_24  and  C19_26 
ROOT
HETATM    1  N2  UNL     1      23.397   3.542  51.292  1.00  0.00    -0.288 NA
HETATM    2  C9  UNL     1      22.570   2.633  51.664  1.00  0.00     0.061 C 
HETATM    3  C10 UNL     1      21.133   2.792  51.490  1.00  0.00     0.065 C 
HETATM    4  C11 UNL     1      20.083   2.274  52.059  1.00  0.00     0.087 C 
HETATM    5  N3  UNL     1      20.085   1.856  53.254  1.00  0.00    -0.257 NA
HETATM    6  C12 UNL     1      20.661   0.698  53.896  1.00  0.00     0.142 C 
HETATM    7  C13 UNL     1      21.886   0.142  53.854  1.00  0.00     0.089 C 
HETATM    8  C14 UNL     1      22.053  -1.025  54.652  1.00  0.00     0.103 C 
HETATM    9  N4  UNL     1      22.171  -1.972  55.310  1.00  0.00    -0.191 NA
HETATM   10  C15 UNL     1      23.104   0.540  53.111  1.00  0.00     0.059 C 
HETATM   11  C20 UNL     1      23.377   1.529  52.241  1.00  0.00    -0.006 C 
HETATM   12  C21 UNL     1      24.788   1.463  51.793  1.00  0.00     0.053 C 
ENDROOT
BRANCH  10  13
HETATM   13  N5  UNL     1      24.207  -0.317  53.390  1.00  0.00    -0.385 N 
HETATM   14  H13 UNL     1      24.261  -0.594  52.374  1.00  0.00     0.160 HD
BRANCH  13  15
HETATM   15  C16 UNL     1      25.034  -0.762  54.459  1.00  0.00     0.148 C 
BRANCH  15  16
HETATM   16  C17 UNL     1      26.352  -0.083  54.319  1.00  0.00     0.014 C 
HETATM   17  C18 UNL     1      27.324  -0.538  53.570  1.00  0.00     0.038 C 
HETATM   18 CL1  UNL     1      27.140  -2.022  52.651  1.00  0.00    -0.087 Cl
BRANCH  17  19
HETATM   19  C19 UNL     1      28.603   0.190  53.481  1.00  0.00     0.273 C 
HETATM   20  F1  UNL     1      29.662  -0.587  53.138  1.00  0.00    -0.250 F 
ENDBRANCH  17  19
ENDBRANCH  15  16
ENDBRANCH  13  15
ENDBRANCH  10  13
BRANCH   1  21
HETATM   21  C8  UNL     1      22.942   4.771  50.683  1.00  0.00     0.162 C 
BRANCH  21  22
HETATM   22  C7  UNL     1      22.982   4.745  49.170  1.00  0.00     0.077 C 
HETATM   23  C6  UNL     1      23.915   5.750  48.597  1.00  0.00     0.069 A 
HETATM   24  N1  UNL     1      25.262   6.072  48.926  1.00  0.00    -0.257 N 
HETATM   25  C5  UNL     1      23.356   6.442  47.617  1.00  0.00     0.053 A 
HETATM   26  C2  UNL     1      26.094   7.077  48.304  1.00  0.00     0.183 A 
HETATM   27  C3  UNL     1      25.315   7.748  47.237  1.00  0.00    -0.003 A 
HETATM   28  C4  UNL     1      24.055   7.491  46.885  1.00  0.00     0.029 A 
HETATM   29  N6  UNL     1      22.026   6.007  47.413  1.00  0.00    -0.388 N 
HETATM   30  C22 UNL     1      21.660   5.203  48.585  1.00  0.00     0.132 C 
HETATM   31  H24 UNL     1      21.356   6.172  46.620  1.00  0.00     0.159 HD
BRANCH  24  32
HETATM   32  O1  UNL     1      25.851   5.376  49.926  1.00  0.00    -0.283 OA
HETATM   33  C1  UNL     1      26.597   4.315  49.443  1.00  0.00     0.238 C 
ENDBRANCH  24  32
ENDBRANCH  21  22
ENDBRANCH   1  21
TORSDOF 7
ENDMDL
MODEL 5
REMARK VINA RESULT:      -7.8      3.365      6.923
REMARK  7 active torsions:
REMARK  status: ('A' for Active; 'I' for Inactive)
REMARK    1  A    between atoms: O1_2  and  N1_3 
REMARK    2  A    between atoms: C7_9  and  C8_10 
REMARK    3  A    between atoms: C8_10  and  N2_11 
REMARK    4  A    between atoms: C15_20  and  N5_21 
REMARK    5  A    between atoms: N5_21  and  C16_22 
REMARK    6  A    between atoms: C16_22  and  C17_23 
REMARK    7  A    between atoms: C18_24  and  C19_26 
ROOT
HETATM    1  N2  UNL     1      20.598   0.785  52.129  1.00  0.00    -0.288 NA
HETATM    2  C9  UNL     1      21.508   1.680  52.271  1.00  0.00     0.061 C 
HETATM    3  C10 UNL     1      21.196   3.102  52.204  1.00  0.00     0.065 C 
HETATM    4  C11 UNL     1      21.885   4.175  51.943  1.00  0.00     0.087 C 
HETATM    5  N3  UNL     1      22.912   4.168  51.201  1.00  0.00    -0.257 NA
HETATM    6  C12 UNL     1      24.260   3.682  51.380  1.00  0.00     0.142 C 
HETATM    7  C13 UNL     1      24.759   2.517  51.832  1.00  0.00     0.089 C 
HETATM    8  C14 UNL     1      26.181   2.432  51.854  1.00  0.00     0.103 C 
HETATM    9  N4  UNL     1      27.339   2.380  51.861  1.00  0.00    -0.191 NA
HETATM   10  C15 UNL     1      24.078   1.294  52.317  1.00  0.00     0.059 C 
HETATM   11  C20 UNL     1      22.787   0.961  52.491  1.00  0.00    -0.006 C 
HETATM   12  C21 UNL     1      22.665  -0.420  53.014  1.00  0.00     0.053 C 
ENDROOT
BRANCH  10  13
HETATM   13  N5  UNL     1      25.001   0.268  52.666  1.00  0.00    -0.385 N 
HETATM   14  H13 UNL     1      25.050  -0.044  51.660  1.00  0.00     0.160 HD
BRANCH  13  15
HETATM   15  C16 UNL     1      25.691  -0.283  53.783  1.00  0.00     0.148 C 
BRANCH  15  16
HETATM   16  C17 UNL     1      26.916  -0.954  53.266  1.00  0.00     0.014 C 
HETATM   17  C18 UNL     1      28.119  -0.717  53.726  1.00  0.00     0.038 C 
HETATM   18 CL1  UNL     1      28.381   0.437  55.020  1.00  0.00    -0.087 Cl
BRANCH  17  19
HETATM   19  C19 UNL     1      29.285  -1.421  53.162  1.00  0.00     0.273 C 
HETATM   20  F1  UNL     1      30.481  -0.880  53.511  1.00  0.00    -0.250 F 
ENDBRANCH  17  19
ENDBRANCH  15  16
ENDBRANCH  13  15
ENDBRANCH  10  13
BRANCH   1  21
HETATM   21  C8  UNL     1      19.218   1.144  51.894  1.00  0.00     0.162 C 
BRANCH  21  22
HETATM   22  C7  UNL     1      18.291  -0.049  51.805  1.00  0.00     0.077 C 
HETATM   23  C6  UNL     1      16.854   0.332  51.805  1.00  0.00     0.069 A 
HETATM   24  N1  UNL     1      16.146   1.316  51.059  1.00  0.00    -0.257 N 
HETATM   25  C5  UNL     1      16.150  -0.394  52.659  1.00  0.00     0.053 A 
HETATM   26  C2  UNL     1      14.734   1.613  51.130  1.00  0.00     0.183 A 
HETATM   27  C3  UNL     1      14.107   0.714  52.128  1.00  0.00    -0.003 A 
HETATM   28  C4  UNL     1      14.716  -0.223  52.854  1.00  0.00     0.029 A 
HETATM   29  N6  UNL     1      16.992  -1.320  53.318  1.00  0.00    -0.388 N 
HETATM   30  C22 UNL     1      18.372  -0.893  53.062  1.00  0.00     0.132 C 
HETATM   31  H24 UNL     1      16.770  -2.170  53.895  1.00  0.00     0.159 HD
BRANCH  24  32
HETATM   32  O1  UNL     1      16.849   2.068  50.181  1.00  0.00    -0.283 OA
HETATM   33  C1  UNL     1      16.626   3.420  50.368  1.00  0.00     0.238 C 
ENDBRANCH  24  32
ENDBRANCH  21  22
ENDBRANCH   1  21
TORSDOF 7
ENDMDL
MODEL 6
REMARK VINA RESULT:      -7.7      1.838      2.402
REMARK  7 active torsions:
REMARK  status: ('A' for Active; 'I' for Inactive)
REMARK    1  A    between atoms: O1_2  and  N1_3 
REMARK    2  A    between atoms: C7_9  and  C8_10 
REMARK    3  A    between atoms: C8_10  and  N2_11 
REMARK    4  A    between atoms: C15_20  and  N5_21 
REMARK    5  A    between atoms: N5_21  and  C16_22 
REMARK    6  A    between atoms: C16_22  and  C17_23 
REMARK    7  A    between atoms: C18_24  and  C19_26 
ROOT
HETATM    1  N2  UNL     1      24.081   3.329  50.671  1.00  0.00    -0.288 NA
HETATM    2  C9  UNL     1      23.411   2.240  50.793  1.00  0.00     0.061 C 
HETATM    3  C10 UNL     1      22.402   1.852  49.816  1.00  0.00     0.065 C 
HETATM    4  C11 UNL     1      21.360   1.073  49.841  1.00  0.00     0.087 C 
HETATM    5  N3  UNL     1      20.702   0.841  50.899  1.00  0.00    -0.257 NA
HETATM    6  C12 UNL     1      20.973   0.056  52.081  1.00  0.00     0.142 C 
HETATM    7  C13 UNL     1      22.037  -0.027  52.900  1.00  0.00     0.089 C 
HETATM    8  C14 UNL     1      21.904  -0.945  53.980  1.00  0.00     0.103 C 
HETATM    9  N4  UNL     1      21.776  -1.694  54.855  1.00  0.00    -0.191 NA
HETATM   10  C15 UNL     1      23.338   0.680  52.871  1.00  0.00     0.059 C 
HETATM   11  C20 UNL     1      23.885   1.581  52.034  1.00  0.00    -0.006 C 
HETATM   12  C21 UNL     1      25.243   1.964  52.487  1.00  0.00     0.053 C 
ENDROOT
BRANCH  10  13
HETATM   13  N5  UNL     1      24.171   0.316  53.967  1.00  0.00    -0.385 N 
HETATM   14  H13 UNL     1      23.996   1.250  54.423  1.00  0.00     0.160 HD
BRANCH  13  15
HETATM   15  C16 UNL     1      24.978  -0.752  54.453  1.00  0.00     0.148 C 
BRANCH  15  16
HETATM   16  C17 UNL     1      26.260  -0.164  54.930  1.00  0.00     0.014 C 
HETATM   17  C18 UNL     1      27.372  -0.197  54.240  1.00  0.00     0.038 C 
HETATM   18 CL1  UNL     1      27.433  -0.957  52.659  1.00  0.00    -0.087 Cl
BRANCH  17  19
HETATM   19  C19 UNL     1      28.603   0.406  54.779  1.00  0.00     0.273 C 
HETATM   20  F1  UNL     1      29.747  -0.178  54.338  1.00  0.00    -0.250 F 
ENDBRANCH  17  19
ENDBRANCH  15  16
ENDBRANCH  13  15
ENDBRANCH  10  13
BRANCH   1  21
HETATM   21  C8  UNL     1      23.867   4.225  49.558  1.00  0.00     0.162 C 
BRANCH  21  22
HETATM   22  C7  UNL     1      24.362   5.632  49.813  1.00  0.00     0.077 C 
HETATM   23  C6  UNL     1      23.278   6.648  49.756  1.00  0.00     0.069 A 
HETATM   24  N1  UNL     1      21.986   6.673  50.355  1.00  0.00    -0.257 N 
HETATM   25  C5  UNL     1      23.614   7.689  49.013  1.00  0.00     0.053 A 
HETATM   26  C2  UNL     1      20.994   7.717  50.240  1.00  0.00     0.183 A 
HETATM   27  C3  UNL     1      21.533   8.796  49.378  1.00  0.00    -0.003 A 
HETATM   28  C4  UNL     1      22.731   8.828  48.793  1.00  0.00     0.029 A 
HETATM   29  N6  UNL     1      24.917   7.514  48.493  1.00  0.00    -0.388 N 
HETATM   30  C22 UNL     1      25.264   6.102  48.688  1.00  0.00     0.132 C 
HETATM   31  H24 UNL     1      25.581   8.193  48.040  1.00  0.00     0.159 HD
BRANCH  24  32
HETATM   32  O1  UNL     1      21.625   5.617  51.119  1.00  0.00    -0.283 OA
HETATM   33  C1  UNL     1      20.484   5.000  50.637  1.00  0.00     0.238 C 
ENDBRANCH  24  32
ENDBRANCH  21  22
ENDBRANCH   1  21
TORSDOF 7
ENDMDL
MODEL 7
REMARK VINA RESULT:      -7.7      3.805      6.113
REMARK  7 active torsions:
REMARK  status: ('A' for Active; 'I' for Inactive)
REMARK    1  A    between atoms: O1_2  and  N1_3 
REMARK    2  A    between atoms: C7_9  and  C8_10 
REMARK    3  A    between atoms: C8_10  and  N2_11 
REMARK    4  A    between atoms: C15_20  and  N5_21 
REMARK    5  A    between atoms: N5_21  and  C16_22 
REMARK    6  A    between atoms: C16_22  and  C17_23 
REMARK    7  A    between atoms: C18_24  and  C19_26 
ROOT
HETATM    1  N2  UNL     1      27.623   5.319  48.690  1.00  0.00    -0.288 NA
HETATM    2  C9  UNL     1      26.380   5.585  48.873  1.00  0.00     0.061 C 
HETATM    3  C10 UNL     1      25.756   6.760  48.278  1.00  0.00     0.065 C 
HETATM    4  C11 UNL     1      24.702   7.470  48.555  1.00  0.00     0.087 C 
HETATM    5  N3  UNL     1      24.235   7.578  49.728  1.00  0.00    -0.257 NA
HETATM    6  C12 UNL     1      23.512   6.675  50.592  1.00  0.00     0.142 C 
HETATM    7  C13 UNL     1      23.711   5.393  50.947  1.00  0.00     0.089 C 
HETATM    8  C14 UNL     1      22.745   4.852  51.843  1.00  0.00     0.103 C 
HETATM    9  N4  UNL     1      21.951   4.430  52.575  1.00  0.00    -0.191 NA
HETATM   10  C15 UNL     1      24.773   4.435  50.562  1.00  0.00     0.059 C 
HETATM   11  C20 UNL     1      25.834   4.510  49.738  1.00  0.00    -0.006 C 
HETATM   12  C21 UNL     1      26.582   3.231  49.724  1.00  0.00     0.053 C 
ENDROOT
BRANCH  10  13
HETATM   13  N5  UNL     1      24.622   3.176  51.210  1.00  0.00    -0.385 N 
HETATM   14  H13 UNL     1      25.210   3.511  52.019  1.00  0.00     0.160 HD
BRANCH  13  15
HETATM   15  C16 UNL     1      24.011   1.900  51.048  1.00  0.00     0.148 C 
BRANCH  15  16
HETATM   16  C17 UNL     1      24.073   1.204  52.362  1.00  0.00     0.014 C 
HETATM   17  C18 UNL     1      25.090   0.476  52.748  1.00  0.00     0.038 C 
HETATM   18 CL1  UNL     1      26.493   0.264  51.717  1.00  0.00    -0.087 Cl
BRANCH  17  19
HETATM   19  C19 UNL     1      25.078  -0.184  54.066  1.00  0.00     0.273 C 
HETATM   20  F1  UNL     1      23.866  -0.678  54.428  1.00  0.00    -0.250 F 
ENDBRANCH  17  19
ENDBRANCH  15  16
ENDBRANCH  13  15
ENDBRANCH  10  13
BRANCH   1  21
HETATM   21  C8  UNL     1      28.466   6.174  47.887  1.00  0.00     0.162 C 
BRANCH  21  22
HETATM   22  C7  UNL     1      29.851   6.372  48.466  1.00  0.00     0.077 C 
HETATM   23  C6  UNL     1      30.273   7.797  48.487  1.00  0.00     0.069 A 
HETATM   24  N1  UNL     1      29.595   8.968  48.928  1.00  0.00    -0.257 N 
HETATM   25  C5  UNL     1      31.494   7.958  48.004  1.00  0.00     0.053 A 
HETATM   26  C2  UNL     1      30.095  10.323  48.908  1.00  0.00     0.183 A 
HETATM   27  C3  UNL     1      31.464  10.318  48.340  1.00  0.00    -0.003 A 
HETATM   28  C4  UNL     1      32.148   9.257  47.911  1.00  0.00     0.029 A 
HETATM   29  N6  UNL     1      32.029   6.709  47.610  1.00  0.00    -0.388 N 
HETATM   30  C22 UNL     1      30.908   5.765  47.564  1.00  0.00     0.132 C 
HETATM   31  H24 UNL     1      33.012   6.418  47.377  1.00  0.00     0.159 HD
BRANCH  24  32
HETATM   32  O1  UNL     1      28.345   8.823  49.426  1.00  0.00    -0.283 OA
HETATM   33  C1  UNL     1      27.543   9.909  49.124  1.00  0.00     0.238 C 
ENDBRANCH  24  32
ENDBRANCH  21  22
ENDBRANCH   1  21
TORSDOF 7
ENDMDL
MODEL 8
REMARK VINA RESULT:      -7.6      5.662      8.786
REMARK  7 active torsions:
REMARK  status: ('A' for Active; 'I' for Inactive)
REMARK    1  A    between atoms: O1_2  and  N1_3 
REMARK    2  A    between atoms: C7_9  and  C8_10 
REMARK    3  A    between atoms: C8_10  and  N2_11 
REMARK    4  A    between atoms: C15_20  and  N5_21 
REMARK    5  A    between atoms: N5_21  and  C16_22 
REMARK    6  A    between atoms: C16_22  and  C17_23 
REMARK    7  A    between atoms: C18_24  and  C19_26 
ROOT
HETATM    1  N2  UNL     1      29.651   6.525  47.659  1.00  0.00    -0.288 NA
HETATM    2  C9  UNL     1      28.555   7.185  47.768  1.00  0.00     0.061 C 
HETATM    3  C10 UNL     1      28.391   8.498  47.159  1.00  0.00     0.065 C 
HETATM    4  C11 UNL     1      27.612   9.516  47.383  1.00  0.00     0.087 C 
HETATM    5  N3  UNL     1      27.130   9.773  48.526  1.00  0.00    -0.257 NA
HETATM    6  C12 UNL     1      26.095   9.159  49.325  1.00  0.00     0.142 C 
HETATM    7  C13 UNL     1      25.839   7.883  49.666  1.00  0.00     0.089 C 
HETATM    8  C14 UNL     1      24.692   7.692  50.488  1.00  0.00     0.103 C 
HETATM    9  N4  UNL     1      23.758   7.555  51.160  1.00  0.00    -0.191 NA
HETATM   10  C15 UNL     1      26.552   6.629  49.329  1.00  0.00     0.059 C 
HETATM   11  C20 UNL     1      27.631   6.351  48.576  1.00  0.00    -0.006 C 
HETATM   12  C21 UNL     1      27.917   4.897  48.583  1.00  0.00     0.053 C 
ENDROOT
BRANCH  10  13
HETATM   13  N5  UNL     1      25.954   5.491  49.942  1.00  0.00    -0.385 N 
HETATM   14  H13 UNL     1      26.516   5.656  50.819  1.00  0.00     0.160 HD
BRANCH  13  15
HETATM   15  C16 UNL     1      25.013   4.453  49.694  1.00  0.00     0.148 C 
BRANCH  15  16
HETATM   16  C17 UNL     1      24.519   3.972  51.014  1.00  0.00     0.014 C 
HETATM   17  C18 UNL     1      25.089   3.007  51.692  1.00  0.00     0.038 C 
HETATM   18 CL1  UNL     1      26.515   2.191  51.078  1.00  0.00    -0.087 Cl
BRANCH  17  19
HETATM   19  C19 UNL     1      24.541   2.585  52.993  1.00  0.00     0.273 C 
HETATM   20  F1  UNL     1      25.475   2.127  53.866  1.00  0.00    -0.250 F 
ENDBRANCH  17  19
ENDBRANCH  15  16
ENDBRANCH  13  15
ENDBRANCH  10  13
BRANCH   1  21
HETATM   21  C8  UNL     1      30.779   7.054  46.927  1.00  0.00     0.162 C 
BRANCH  21  22
HETATM   22  C7  UNL     1      32.096   6.904  47.658  1.00  0.00     0.077 C 
HETATM   23  C6  UNL     1      32.938   5.805  47.117  1.00  0.00     0.069 A 
HETATM   24  N1  UNL     1      33.298   5.472  45.780  1.00  0.00    -0.257 N 
HETATM   25  C5  UNL     1      33.412   5.028  48.077  1.00  0.00     0.053 A 
HETATM   26  C2  UNL     1      34.131   4.372  45.352  1.00  0.00     0.183 A 
HETATM   27  C3  UNL     1      34.571   3.612  46.546  1.00  0.00    -0.003 A 
HETATM   28  C4  UNL     1      34.267   3.875  47.817  1.00  0.00     0.029 A 
HETATM   29  N6  UNL     1      32.967   5.486  49.338  1.00  0.00    -0.388 N 
HETATM   30  C22 UNL     1      31.876   6.433  49.082  1.00  0.00     0.132 C 
HETATM   31  H24 UNL     1      33.287   5.257  50.312  1.00  0.00     0.159 HD
BRANCH  24  32
HETATM   32  O1  UNL     1      32.823   6.256  44.785  1.00  0.00    -0.283 OA
HETATM   33  C1  UNL     1      33.820   7.033  44.222  1.00  0.00     0.238 C 
ENDBRANCH  24  32
ENDBRANCH  21  22
ENDBRANCH   1  21
TORSDOF 7
ENDMDL
MODEL 9
REMARK VINA RESULT:      -7.6      3.929      6.594
REMARK  7 active torsions:
REMARK  status: ('A' for Active; 'I' for Inactive)
REMARK    1  A    between atoms: O1_2  and  N1_3 
REMARK    2  A    between atoms: C7_9  and  C8_10 
REMARK    3  A    between atoms: C8_10  and  N2_11 
REMARK    4  A    between atoms: C15_20  and  N5_21 
REMARK    5  A    between atoms: N5_21  and  C16_22 
REMARK    6  A    between atoms: C16_22  and  C17_23 
REMARK    7  A    between atoms: C18_24  and  C19_26 
ROOT
HETATM    1  N2  UNL     1      27.503   7.385  47.902  1.00  0.00    -0.288 NA
HETATM    2  C9  UNL     1      26.291   7.277  48.314  1.00  0.00     0.061 C 
HETATM    3  C10 UNL     1      25.272   8.252  47.947  1.00  0.00     0.065 C 
HETATM    4  C11 UNL     1      24.135   8.619  48.462  1.00  0.00     0.087 C 
HETATM    5  N3  UNL     1      23.883   8.536  49.701  1.00  0.00    -0.257 NA
HETATM    6  C12 UNL     1      23.607   7.426  50.582  1.00  0.00     0.142 C 
HETATM    7  C13 UNL     1      24.209   6.238  50.773  1.00  0.00     0.089 C 
HETATM    8  C14 UNL     1      23.610   5.404  51.761  1.00  0.00     0.103 C 
HETATM    9  N4  UNL     1      23.112   4.741  52.570  1.00  0.00    -0.191 NA
HETATM   10  C15 UNL     1      25.400   5.641  50.127  1.00  0.00     0.059 C 
HETATM   11  C20 UNL     1      26.228   6.053  49.150  1.00  0.00    -0.006 C 
HETATM   12  C21 UNL     1      27.279   5.042  48.888  1.00  0.00     0.053 C 
ENDROOT
BRANCH  10  13
HETATM   13  N5  UNL     1      25.721   4.363  50.667  1.00  0.00    -0.385 N 
HETATM   14  H13 UNL     1      26.340   4.814  51.392  1.00  0.00     0.160 HD
BRANCH  13  15
HETATM   15  C16 UNL     1      25.457   2.975  50.489  1.00  0.00     0.148 C 
BRANCH  15  16
HETATM   16  C17 UNL     1      26.571   2.222  51.127  1.00  0.00     0.014 C 
HETATM   17  C18 UNL     1      26.582   1.880  52.391  1.00  0.00     0.038 C 
HETATM   18 CL1  UNL     1      25.248   2.295  53.452  1.00  0.00    -0.087 Cl
BRANCH  17  19
HETATM   19  C19 UNL     1      27.723   1.135  52.953  1.00  0.00     0.273 C 
HETATM   20  F1  UNL     1      28.844   1.882  53.124  1.00  0.00    -0.250 F 
ENDBRANCH  17  19
ENDBRANCH  15  16
ENDBRANCH  13  15
ENDBRANCH  10  13
BRANCH   1  21
HETATM   21  C8  UNL     1      27.917   8.480  47.056  1.00  0.00     0.162 C 
BRANCH  21  22
HETATM   22  C7  UNL     1      28.988   9.351  47.678  1.00  0.00     0.077 C 
HETATM   23  C6  UNL     1      30.256   8.619  47.930  1.00  0.00     0.069 A 
HETATM   24  N1  UNL     1      31.022   7.756  47.096  1.00  0.00    -0.257 N 
HETATM   25  C5  UNL     1      30.719   8.837  49.151  1.00  0.00     0.053 A 
HETATM   26  C2  UNL     1      32.256   7.085  47.435  1.00  0.00     0.183 A 
HETATM   27  C3  UNL     1      32.623   7.438  48.827  1.00  0.00    -0.003 A 
HETATM   28  C4  UNL     1      31.949   8.238  49.653  1.00  0.00     0.029 A 
HETATM   29  N6  UNL     1      29.852   9.708  49.849  1.00  0.00    -0.388 N 
HETATM   30  C22 UNL     1      28.602   9.764  49.085  1.00  0.00     0.132 C 
HETATM   31  H24 UNL     1      29.985  10.252  50.740  1.00  0.00     0.159 HD
BRANCH  24  32
HETATM   32  O1  UNL     1      30.565   7.522  45.844  1.00  0.00    -0.283 OA
HETATM   33  C1  UNL     1      31.561   7.676  44.896  1.00  0.00     0.238 C 
ENDBRANCH  24  32
ENDBRANCH  21  22
ENDBRANCH   1  21
TORSDOF 7
ENDMDL
