MODEL 1
REMARK VINA RESULT:      -8.5      0.000      0.000
REMARK  2 active torsions:
REMARK  status: ('A' for Active; 'I' for Inactive)
REMARK    1  A    between atoms: C5_6  and  N1_7 
REMARK    2  A    between atoms: N1_7  and  C6_8 
ROOT
HETATM    1  C6  UNL     1      25.496   0.450  52.854  1.00  0.00     0.133 C 
HETATM    2  N2  UNL     1      26.492   1.218  52.728  1.00  0.00    -0.232 N 
HETATM    3  C7  UNL     1      26.527   2.458  52.134  1.00  0.00     0.228 A 
HETATM    4  N3  UNL     1      27.454   2.096  52.844  1.00  0.00    -0.275 N 
HETATM    5  C8  UNL     1      28.675   2.657  53.266  1.00  0.00     0.177 C 
HETATM    6  C9  UNL     1      29.234   1.817  54.430  1.00  0.00     0.199 C 
HETATM    7  O1  UNL     1      29.394   0.459  53.969  1.00  0.00    -0.332 OA
HETATM    8  C10 UNL     1      28.240  -0.340  53.907  1.00  0.00     0.183 C 
HETATM    9  N4  UNL     1      27.551  -0.454  55.023  1.00  0.00    -0.153 NA
HETATM   10  N5  UNL     1      26.134  -0.551  54.905  1.00  0.00    -0.296 N 
HETATM   11  C11 UNL     1      25.590  -0.862  53.562  1.00  0.00     0.194 C 
HETATM   12  C12 UNL     1      26.588  -1.748  52.892  1.00  0.00     0.012 C 
HETATM   13  C13 UNL     1      27.702  -1.065  52.726  1.00  0.00     0.058 C 
HETATM   14  H10 UNL     1      25.541  -0.401  55.750  1.00  0.00     0.183 HD
ENDROOT
BRANCH   1  15
HETATM   15  N1  UNL     1      24.239   0.813  52.365  1.00  0.00    -0.342 N 
HETATM   16  H4  UNL     1      24.065   1.441  51.542  1.00  0.00     0.167 HD
BRANCH  15  17
HETATM   17  C5  UNL     1      22.971   0.425  52.854  1.00  0.00     0.035 A 
HETATM   18  C4  UNL     1      22.530  -0.056  54.088  1.00  0.00     0.029 A 
HETATM   19  C3  UNL     1      21.213  -0.376  54.322  1.00  0.00     0.004 A 
HETATM   20  C2  UNL     1      20.260  -0.229  53.325  1.00  0.00     0.024 A 
HETATM   21  C1  UNL     1      20.687   0.245  52.103  1.00  0.00     0.036 A 
HETATM   22 CL1  UNL     1      19.409   0.404  50.895  1.00  0.00    -0.084 Cl
HETATM   23  C14 UNL     1      22.015   0.572  51.852  1.00  0.00     0.053 A 
ENDBRANCH  15  17
ENDBRANCH   1  15
TORSDOF 2
ENDMDL
MODEL 2
REMARK VINA RESULT:      -7.8      1.282      2.600
REMARK  2 active torsions:
REMARK  status: ('A' for Active; 'I' for Inactive)
REMARK    1  A    between atoms: C5_6  and  N1_7 
REMARK    2  A    between atoms: N1_7  and  C6_8 
ROOT
HETATM    1  C6  UNL     1      25.103   0.314  52.937  1.00  0.00     0.133 C 
HETATM    2  N2  UNL     1      26.008   0.195  53.813  1.00  0.00    -0.232 N 
HETATM    3  C7  UNL     1      26.191  -0.844  54.695  1.00  0.00     0.228 A 
HETATM    4  N3  UNL     1      27.086  -0.031  54.516  1.00  0.00    -0.275 N 
HETATM    5  C8  UNL     1      28.390   0.154  55.015  1.00  0.00     0.177 C 
HETATM    6  C9  UNL     1      29.121   1.182  54.131  1.00  0.00     0.199 C 
HETATM    7  O1  UNL     1      28.360   2.407  54.141  1.00  0.00    -0.332 OA
HETATM    8  C10 UNL     1      27.222   2.464  53.318  1.00  0.00     0.183 C 
HETATM    9  N4  UNL     1      27.414   2.211  52.041  1.00  0.00    -0.153 NA
HETATM   10  N5  UNL     1      26.369   1.533  51.348  1.00  0.00    -0.296 N 
HETATM   11  C11 UNL     1      25.044   1.484  52.011  1.00  0.00     0.194 C 
HETATM   12  C12 UNL     1      24.905   2.755  52.783  1.00  0.00     0.012 C 
HETATM   13  C13 UNL     1      25.825   2.771  53.725  1.00  0.00     0.058 C 
HETATM   14  H10 UNL     1      26.568   1.104  50.419  1.00  0.00     0.183 HD
ENDROOT
BRANCH   1  15
HETATM   15  N1  UNL     1      24.128  -0.672  52.768  1.00  0.00    -0.342 N 
HETATM   16  H4  UNL     1      24.268  -1.586  52.269  1.00  0.00     0.167 HD
BRANCH  15  17
HETATM   17  C5  UNL     1      22.790  -0.657  53.218  1.00  0.00     0.035 A 
HETATM   18  C4  UNL     1      22.182  -1.032  54.417  1.00  0.00     0.029 A 
HETATM   19  C3  UNL     1      20.825  -0.924  54.616  1.00  0.00     0.004 A 
HETATM   20  C2  UNL     1      19.999  -0.431  53.618  1.00  0.00     0.024 A 
HETATM   21  C1  UNL     1      20.591  -0.059  52.430  1.00  0.00     0.036 A 
HETATM   22 CL1  UNL     1      19.467   0.560  51.217  1.00  0.00    -0.084 Cl
HETATM   23  C14 UNL     1      21.961  -0.162  52.214  1.00  0.00     0.053 A 
ENDBRANCH  15  17
ENDBRANCH   1  15
TORSDOF 2
ENDMDL
MODEL 3
REMARK VINA RESULT:      -7.7      4.788      6.627
REMARK  2 active torsions:
REMARK  status: ('A' for Active; 'I' for Inactive)
REMARK    1  A    between atoms: C5_6  and  N1_7 
REMARK    2  A    between atoms: N1_7  and  C6_8 
ROOT
HETATM    1  C6  UNL     1      24.329   4.018  51.693  1.00  0.00     0.133 C 
HETATM    2  N2  UNL     1      23.260   4.661  51.486  1.00  0.00    -0.232 N 
HETATM    3  C7  UNL     1      22.220   4.867  52.363  1.00  0.00     0.228 A 
HETATM    4  N3  UNL     1      22.301   5.539  51.345  1.00  0.00    -0.275 N 
HETATM    5  C8  UNL     1      21.545   6.574  50.762  1.00  0.00     0.177 C 
HETATM    6  C9  UNL     1      22.373   7.223  49.637  1.00  0.00     0.199 C 
HETATM    7  O1  UNL     1      22.715   6.199  48.680  1.00  0.00    -0.332 OA
HETATM    8  C10 UNL     1      23.778   5.340  49.008  1.00  0.00     0.183 C 
HETATM    9  N4  UNL     1      24.926   5.918  49.290  1.00  0.00    -0.153 NA
HETATM   10  N5  UNL     1      25.738   5.299  50.285  1.00  0.00    -0.296 N 
HETATM   11  C11 UNL     1      25.400   3.906  50.659  1.00  0.00     0.194 C 
HETATM   12  C12 UNL     1      24.871   3.249  49.426  1.00  0.00     0.012 C 
HETATM   13  C13 UNL     1      23.754   3.855  49.082  1.00  0.00     0.058 C 
HETATM   14  H10 UNL     1      26.525   5.838  50.707  1.00  0.00     0.183 HD
ENDROOT
BRANCH   1  15
HETATM   15  N1  UNL     1      24.577   3.407  52.925  1.00  0.00    -0.342 N 
HETATM   16  H4  UNL     1      24.663   3.908  53.845  1.00  0.00     0.167 HD
BRANCH  15  17
HETATM   17  C5  UNL     1      24.756   2.032  53.193  1.00  0.00     0.035 A 
HETATM   18  C4  UNL     1      23.956   0.908  52.985  1.00  0.00     0.029 A 
HETATM   19  C3  UNL     1      24.361  -0.357  53.346  1.00  0.00     0.004 A 
HETATM   20  C2  UNL     1      25.598  -0.563  53.937  1.00  0.00     0.024 A 
HETATM   21  C1  UNL     1      26.394   0.542  54.147  1.00  0.00     0.036 A 
HETATM   22 CL1  UNL     1      27.951   0.189  54.900  1.00  0.00    -0.084 Cl
HETATM   23  C14 UNL     1      25.998   1.826  53.787  1.00  0.00     0.053 A 
ENDBRANCH  15  17
ENDBRANCH   1  15
TORSDOF 2
ENDMDL
MODEL 4
REMARK VINA RESULT:      -7.7      3.561      6.560
REMARK  2 active torsions:
REMARK  status: ('A' for Active; 'I' for Inactive)
REMARK    1  A    between atoms: C5_6  and  N1_7 
REMARK    2  A    between atoms: N1_7  and  C6_8 
ROOT
HETATM    1  C6  UNL     1      24.439   1.534  52.974  1.00  0.00     0.133 C 
HETATM    2  N2  UNL     1      23.206   1.268  52.887  1.00  0.00    -0.232 N 
HETATM    3  C7  UNL     1      22.524   0.236  53.488  1.00  0.00     0.228 A 
HETATM    4  N3  UNL     1      21.907   1.170  52.998  1.00  0.00    -0.275 N 
HETATM    5  C8  UNL     1      20.548   1.517  52.865  1.00  0.00     0.177 C 
HETATM    6  C9  UNL     1      20.450   2.994  52.441  1.00  0.00     0.199 C 
HETATM    7  O1  UNL     1      21.172   3.156  51.203  1.00  0.00    -0.332 OA
HETATM    8  C10 UNL     1      22.573   3.240  51.281  1.00  0.00     0.183 C 
HETATM    9  N4  UNL     1      23.057   4.180  52.065  1.00  0.00    -0.153 NA
HETATM   10  N5  UNL     1      24.264   3.888  52.764  1.00  0.00    -0.296 N 
HETATM   11  C11 UNL     1      25.045   2.719  52.296  1.00  0.00     0.194 C 
HETATM   12  C12 UNL     1      24.844   2.634  50.818  1.00  0.00     0.012 C 
HETATM   13  C13 UNL     1      23.572   2.386  50.586  1.00  0.00     0.058 C 
HETATM   14  H10 UNL     1      24.549   4.492  53.564  1.00  0.00     0.183 HD
ENDROOT
BRANCH   1  15
HETATM   15  N1  UNL     1      25.294   0.746  53.748  1.00  0.00    -0.342 N 
HETATM   16  H4  UNL     1      24.989   0.059  54.483  1.00  0.00     0.167 HD
BRANCH  15  17
HETATM   17  C5  UNL     1      26.705   0.700  53.711  1.00  0.00     0.035 A 
HETATM   18  C4  UNL     1      27.695   1.675  53.844  1.00  0.00     0.029 A 
HETATM   19  C3  UNL     1      29.035   1.375  53.764  1.00  0.00     0.004 A 
HETATM   20  C2  UNL     1      29.458   0.073  53.544  1.00  0.00     0.024 A 
HETATM   21  C1  UNL     1      28.487  -0.896  53.411  1.00  0.00     0.036 A 
HETATM   22 CL1  UNL     1      29.113  -2.525  53.138  1.00  0.00    -0.084 Cl
HETATM   23  C14 UNL     1      27.129  -0.607  53.490  1.00  0.00     0.053 A 
ENDBRANCH  15  17
ENDBRANCH   1  15
TORSDOF 2
ENDMDL
MODEL 5
REMARK VINA RESULT:      -7.6      3.851      6.418
REMARK  2 active torsions:
REMARK  status: ('A' for Active; 'I' for Inactive)
REMARK    1  A    between atoms: C5_6  and  N1_7 
REMARK    2  A    between atoms: N1_7  and  C6_8 
ROOT
HETATM    1  C6  UNL     1      25.122   3.127  51.653  1.00  0.00     0.133 C 
HETATM    2  N2  UNL     1      24.489   3.389  50.590  1.00  0.00    -0.232 N 
HETATM    3  C7  UNL     1      24.993   3.479  49.313  1.00  0.00     0.228 A 
HETATM    4  N3  UNL     1      23.786   3.397  49.488  1.00  0.00    -0.275 N 
HETATM    5  C8  UNL     1      22.651   3.364  48.655  1.00  0.00     0.177 C 
HETATM    6  C9  UNL     1      21.436   2.908  49.486  1.00  0.00     0.199 C 
HETATM    7  O1  UNL     1      21.273   3.827  50.586  1.00  0.00    -0.332 OA
HETATM    8  C10 UNL     1      22.127   3.667  51.691  1.00  0.00     0.183 C 
HETATM    9  N4  UNL     1      22.129   2.478  52.257  1.00  0.00    -0.153 NA
HETATM   10  N5  UNL     1      23.366   2.014  52.790  1.00  0.00    -0.296 N 
HETATM   11  C11 UNL     1      24.438   3.020  52.977  1.00  0.00     0.194 C 
HETATM   12  C12 UNL     1      23.762   4.306  53.321  1.00  0.00     0.012 C 
HETATM   13  C13 UNL     1      23.035   4.681  52.290  1.00  0.00     0.058 C 
HETATM   14  H10 UNL     1      23.473   1.004  53.025  1.00  0.00     0.183 HD
ENDROOT
BRANCH   1  15
HETATM   15  N1  UNL     1      26.497   2.884  51.633  1.00  0.00    -0.342 N 
HETATM   16  H4  UNL     1      27.188   3.351  50.993  1.00  0.00     0.167 HD
BRANCH  15  17
HETATM   17  C5  UNL     1      27.234   1.992  52.443  1.00  0.00     0.035 A 
HETATM   18  C4  UNL     1      28.218   2.178  53.416  1.00  0.00     0.029 A 
HETATM   19  C3  UNL     1      28.802   1.122  54.078  1.00  0.00     0.004 A 
HETATM   20  C2  UNL     1      28.428  -0.184  53.800  1.00  0.00     0.024 A 
HETATM   21  C1  UNL     1      27.458  -0.375  52.840  1.00  0.00     0.036 A 
HETATM   22 CL1  UNL     1      27.040  -2.067  52.552  1.00  0.00    -0.084 Cl
HETATM   23  C14 UNL     1      26.858   0.681  52.163  1.00  0.00     0.053 A 
ENDBRANCH  15  17
ENDBRANCH   1  15
TORSDOF 2
ENDMDL
MODEL 6
REMARK VINA RESULT:      -7.5      1.771      2.867
REMARK  2 active torsions:
REMARK  status: ('A' for Active; 'I' for Inactive)
REMARK    1  A    between atoms: C5_6  and  N1_7 
REMARK    2  A    between atoms: N1_7  and  C6_8 
ROOT
HETATM    1  C6  UNL     1      26.034   0.465  52.729  1.00  0.00     0.133 C 
HETATM    2  N2  UNL     1      26.665  -0.627  52.823  1.00  0.00    -0.232 N 
HETATM    3  C7  UNL     1      26.388  -1.815  52.187  1.00  0.00     0.228 A 
HETATM    4  N3  UNL     1      27.472  -1.651  52.727  1.00  0.00    -0.275 N 
HETATM    5  C8  UNL     1      28.638  -2.423  52.893  1.00  0.00     0.177 C 
HETATM    6  C9  UNL     1      29.777  -1.508  53.382  1.00  0.00     0.199 C 
HETATM    7  O1  UNL     1      29.358  -0.888  54.615  1.00  0.00    -0.332 OA
HETATM    8  C10 UNL     1      28.480   0.205  54.521  1.00  0.00     0.183 C 
HETATM    9  N4  UNL     1      28.880   1.210  53.771  1.00  0.00    -0.153 NA
HETATM   10  N5  UNL     1      27.880   1.917  53.043  1.00  0.00    -0.296 N 
HETATM   11  C11 UNL     1      26.471   1.698  53.449  1.00  0.00     0.194 C 
HETATM   12  C12 UNL     1      26.484   1.466  54.925  1.00  0.00     0.012 C 
HETATM   13  C13 UNL     1      27.147   0.355  55.163  1.00  0.00     0.058 C 
HETATM   14  H10 UNL     1      28.167   2.550  52.265  1.00  0.00     0.183 HD
ENDROOT
BRANCH   1  15
HETATM   15  N1  UNL     1      24.908   0.580  51.910  1.00  0.00    -0.342 N 
HETATM   16  H4  UNL     1      24.909   0.505  50.862  1.00  0.00     0.167 HD
BRANCH  15  17
HETATM   17  C5  UNL     1      23.571   0.811  52.299  1.00  0.00     0.035 A 
HETATM   18  C4  UNL     1      22.675   1.855  52.061  1.00  0.00     0.029 A 
HETATM   19  C3  UNL     1      21.394   1.852  52.565  1.00  0.00     0.004 A 
HETATM   20  C2  UNL     1      20.940   0.795  53.340  1.00  0.00     0.024 A 
HETATM   21  C1  UNL     1      21.819  -0.239  53.580  1.00  0.00     0.036 A 
HETATM   22 CL1  UNL     1      21.158  -1.543  54.571  1.00  0.00    -0.084 Cl
HETATM   23  C14 UNL     1      23.115  -0.250  53.077  1.00  0.00     0.053 A 
ENDBRANCH  15  17
ENDBRANCH   1  15
TORSDOF 2
ENDMDL
MODEL 7
REMARK VINA RESULT:      -7.4      3.840      6.162
REMARK  2 active torsions:
REMARK  status: ('A' for Active; 'I' for Inactive)
REMARK    1  A    between atoms: C5_6  and  N1_7 
REMARK    2  A    between atoms: N1_7  and  C6_8 
ROOT
HETATM    1  C6  UNL     1      25.465   2.165  51.012  1.00  0.00     0.133 C 
HETATM    2  N2  UNL     1      24.343   1.806  51.470  1.00  0.00    -0.232 N 
HETATM    3  C7  UNL     1      23.099   2.067  50.945  1.00  0.00     0.228 A 
HETATM    4  N3  UNL     1      23.229   1.209  51.806  1.00  0.00    -0.275 N 
HETATM    5  C8  UNL     1      22.367   0.322  52.479  1.00  0.00     0.177 C 
HETATM    6  C9  UNL     1      23.213  -0.737  53.211  1.00  0.00     0.199 C 
HETATM    7  O1  UNL     1      24.101  -0.054  54.119  1.00  0.00    -0.332 OA
HETATM    8  C10 UNL     1      25.255   0.534  53.572  1.00  0.00     0.183 C 
HETATM    9  N4  UNL     1      26.044  -0.264  52.884  1.00  0.00    -0.153 NA
HETATM   10  N5  UNL     1      26.716   0.297  51.760  1.00  0.00    -0.296 N 
HETATM   11  C11 UNL     1      26.750   1.775  51.666  1.00  0.00     0.194 C 
HETATM   12  C12 UNL     1      26.802   2.292  53.066  1.00  0.00     0.012 C 
HETATM   13  C13 UNL     1      25.684   1.954  53.674  1.00  0.00     0.058 C 
HETATM   14  H10 UNL     1      27.151  -0.339  51.057  1.00  0.00     0.183 HD
ENDROOT
BRANCH   1  15
HETATM   15  N1  UNL     1      25.559   2.918  49.839  1.00  0.00    -0.342 N 
HETATM   16  H4  UNL     1      25.467   2.538  48.863  1.00  0.00     0.167 HD
BRANCH  15  17
HETATM   17  C5  UNL     1      25.786   4.306  49.713  1.00  0.00     0.035 A 
HETATM   18  C4  UNL     1      25.095   5.431  50.167  1.00  0.00     0.029 A 
HETATM   19  C3  UNL     1      25.526   6.711  49.904  1.00  0.00     0.004 A 
HETATM   20  C2  UNL     1      26.681   6.934  49.170  1.00  0.00     0.024 A 
HETATM   21  C1  UNL     1      27.369   5.828  48.718  1.00  0.00     0.036 A 
HETATM   22 CL1  UNL     1      28.828   6.202  47.795  1.00  0.00    -0.084 Cl
HETATM   23  C14 UNL     1      26.946   4.529  48.975  1.00  0.00     0.053 A 
ENDBRANCH  15  17
ENDBRANCH   1  15
TORSDOF 2
ENDMDL
MODEL 8
REMARK VINA RESULT:      -7.4      3.726      6.380
REMARK  2 active torsions:
REMARK  status: ('A' for Active; 'I' for Inactive)
REMARK    1  A    between atoms: C5_6  and  N1_7 
REMARK    2  A    between atoms: N1_7  and  C6_8 
ROOT
HETATM    1  C6  UNL     1      23.340   1.200  52.084  1.00  0.00     0.133 C 
HETATM    2  N2  UNL     1      22.893   2.378  52.187  1.00  0.00    -0.232 N 
HETATM    3  C7  UNL     1      23.596   3.555  52.079  1.00  0.00     0.228 A 
HETATM    4  N3  UNL     1      22.374   3.568  52.034  1.00  0.00    -0.275 N 
HETATM    5  C8  UNL     1      21.385   4.560  51.884  1.00  0.00     0.177 C 
HETATM    6  C9  UNL     1      20.040   3.878  51.570  1.00  0.00     0.199 C 
HETATM    7  O1  UNL     1      19.734   2.967  52.646  1.00  0.00    -0.332 OA
HETATM    8  C10 UNL     1      20.396   1.727  52.648  1.00  0.00     0.183 C 
HETATM    9  N4  UNL     1      20.270   0.999  51.559  1.00  0.00    -0.153 NA
HETATM   10  N5  UNL     1      21.391   0.209  51.171  1.00  0.00    -0.296 N 
HETATM   11  C11 UNL     1      22.452   0.003  52.185  1.00  0.00     0.194 C 
HETATM   12  C12 UNL     1      21.771  -0.033  53.514  1.00  0.00     0.012 C 
HETATM   13  C13 UNL     1      21.229   1.146  53.734  1.00  0.00     0.058 C 
HETATM   14  H10 UNL     1      21.426  -0.187  50.207  1.00  0.00     0.183 HD
ENDROOT
BRANCH   1  15
HETATM   15  N1  UNL     1      24.692   0.960  51.831  1.00  0.00    -0.342 N 
HETATM   16  H4  UNL     1      25.139   0.943  50.880  1.00  0.00     0.167 HD
BRANCH  15  17
HETATM   17  C5  UNL     1      25.719   0.701  52.765  1.00  0.00     0.035 A 
HETATM   18  C4  UNL     1      26.158   1.368  53.910  1.00  0.00     0.029 A 
HETATM   19  C3  UNL     1      27.208   0.907  54.670  1.00  0.00     0.004 A 
HETATM   20  C2  UNL     1      27.880  -0.255  54.321  1.00  0.00     0.024 A 
HETATM   21  C1  UNL     1      27.453  -0.919  53.191  1.00  0.00     0.036 A 
HETATM   22 CL1  UNL     1      28.360  -2.389  52.822  1.00  0.00    -0.084 Cl
HETATM   23  C14 UNL     1      26.393  -0.466  52.414  1.00  0.00     0.053 A 
ENDBRANCH  15  17
ENDBRANCH   1  15
TORSDOF 2
ENDMDL
MODEL 9
REMARK VINA RESULT:      -7.3      3.836      7.062
REMARK  2 active torsions:
REMARK  status: ('A' for Active; 'I' for Inactive)
REMARK    1  A    between atoms: C5_6  and  N1_7 
REMARK    2  A    between atoms: N1_7  and  C6_8 
ROOT
HETATM    1  C6  UNL     1      22.626   1.545  52.328  1.00  0.00     0.133 C 
HETATM    2  N2  UNL     1      21.745   0.684  52.614  1.00  0.00    -0.232 N 
HETATM    3  C7  UNL     1      21.731  -0.179  53.686  1.00  0.00     0.228 A 
HETATM    4  N3  UNL     1      20.713  -0.002  53.032  1.00  0.00    -0.275 N 
HETATM    5  C8  UNL     1      19.392  -0.487  53.080  1.00  0.00     0.177 C 
HETATM    6  C9  UNL     1      18.507   0.389  52.174  1.00  0.00     0.199 C 
HETATM    7  O1  UNL     1      19.050   0.349  50.838  1.00  0.00    -0.332 OA
HETATM    8  C10 UNL     1      20.170   1.155  50.574  1.00  0.00     0.183 C 
HETATM    9  N4  UNL     1      20.036   2.439  50.832  1.00  0.00    -0.153 NA
HETATM   10  N5  UNL     1      21.188   3.130  51.310  1.00  0.00    -0.296 N 
HETATM   11  C11 UNL     1      22.495   2.451  51.148  1.00  0.00     0.194 C 
HETATM   12  C12 UNL     1      22.409   1.656  49.886  1.00  0.00     0.012 C 
HETATM   13  C13 UNL     1      21.491   0.726  50.044  1.00  0.00     0.058 C 
HETATM   14  H10 UNL     1      21.073   4.068  51.750  1.00  0.00     0.183 HD
ENDROOT
BRANCH   1  15
HETATM   15  N1  UNL     1      23.754   1.718  53.132  1.00  0.00    -0.342 N 
HETATM   16  H4  UNL     1      23.822   2.372  53.953  1.00  0.00     0.167 HD
BRANCH  15  17
HETATM   17  C5  UNL     1      25.006   1.073  53.024  1.00  0.00     0.035 A 
HETATM   18  C4  UNL     1      25.383  -0.226  52.680  1.00  0.00     0.029 A 
HETATM   19  C3  UNL     1      26.700  -0.624  52.651  1.00  0.00     0.004 A 
HETATM   20  C2  UNL     1      27.716   0.266  52.965  1.00  0.00     0.024 A 
HETATM   21  C1  UNL     1      27.352   1.550  53.306  1.00  0.00     0.036 A 
HETATM   22 CL1  UNL     1      28.708   2.616  53.688  1.00  0.00    -0.084 Cl
HETATM   23  C14 UNL     1      26.026   1.967  53.340  1.00  0.00     0.053 A 
ENDBRANCH  15  17
ENDBRANCH   1  15
TORSDOF 2
ENDMDL
