MODEL 1
REMARK VINA RESULT:      -7.1      0.000      0.000
REMARK  4 active torsions:
REMARK  status: ('A' for Active; 'I' for Inactive)
REMARK    1  A    between atoms: O1_2  and  C2_3 
REMARK    2  A    between atoms: C2_3  and  C3_4 
REMARK    3  A    between atoms: C4_5  and  C5_6 
REMARK       I    between atoms: C5_6  and  N1_8 
REMARK    4  A    between atoms: N1_8  and  C6_9 
ROOT
HETATM    1  C6  UNL     1      23.942   4.510  50.193  1.00  0.00     0.114 A 
HETATM    2  C7  UNL     1      23.850   3.514  49.266  1.00  0.00     0.028 A 
HETATM    3  C8  UNL     1      22.931   2.887  50.017  1.00  0.00     0.021 A 
HETATM    4  C9  UNL     1      22.296   1.977  49.138  1.00  0.00     0.069 A 
HETATM    5  C10 UNL     1      21.372   1.006  48.853  1.00  0.00     0.052 A 
HETATM    6  C11 UNL     1      20.636   0.742  50.020  1.00  0.00     0.119 A 
HETATM    7  N2  UNL     1      21.054   1.537  51.070  1.00  0.00    -0.260 NA
HETATM    8  C12 UNL     1      22.037   2.391  50.876  1.00  0.00     0.069 A 
HETATM    9  C13 UNL     1      22.292   3.487  51.668  1.00  0.00     0.043 A 
HETATM   10  C14 UNL     1      23.157   4.491  51.387  1.00  0.00    -0.011 A 
HETATM   11  O3  UNL     1      23.975   5.521  51.204  1.00  0.00     0.000 OA
HETATM   12  C15 UNL     1      23.552   6.803  50.739  1.00  0.00     0.056 C 
HETATM   13  C16 UNL     1      22.676   6.668  49.506  1.00  0.00     0.036 C 
HETATM   14  C17 UNL     1      22.468   8.126  49.227  1.00  0.00     0.096 C 
HETATM   15  N3  UNL     1      22.288   9.280  48.993  1.00  0.00    -0.192 NA
HETATM   16  C18 UNL     1      21.941   6.059  48.474  1.00  0.00     0.010 C 
HETATM   17 BR1  UNL     1      21.026   7.097  47.102  1.00  0.00    -0.054 Br
HETATM   18  C19 UNL     1      21.441   4.668  48.319  1.00  0.00     0.094 C 
HETATM   19  C20 UNL     1      22.144   3.702  47.506  1.00  0.00     0.095 C 
HETATM   20  N4  UNL     1      22.588   2.449  47.757  1.00  0.00    -0.264 NA
ENDROOT
BRANCH   1  21
HETATM   21  N1  UNL     1      24.976   5.111  49.351  1.00  0.00    -0.330 N 
HETATM   22  C5  UNL     1      26.270   4.531  49.605  1.00  0.00     0.297 C 
HETATM   23  O2  UNL     1      26.424   3.614  50.458  1.00  0.00    -0.258 OA
HETATM   24  H6  UNL     1      25.050   5.814  48.641  1.00  0.00     0.165 HD
BRANCH  22  25
HETATM   25  C4  UNL     1      27.501   4.924  48.934  1.00  0.00    -0.003 C 
HETATM   26  C3  UNL     1      28.522   5.254  48.401  1.00  0.00    -0.070 C 
BRANCH  26  27
HETATM   27  C2  UNL     1      29.775   5.645  47.768  1.00  0.00     0.261 C 
BRANCH  27  28
HETATM   28  O1  UNL     1      30.810   5.161  48.560  1.00  0.00    -0.384 OA
HETATM   29  C1  UNL     1      31.493   6.192  49.199  1.00  0.00     0.202 C 
ENDBRANCH  27  28
ENDBRANCH  26  27
ENDBRANCH  22  25
ENDBRANCH   1  21
TORSDOF 4
ENDMDL
MODEL 2
REMARK VINA RESULT:      -6.9      5.725     11.081
REMARK  4 active torsions:
REMARK  status: ('A' for Active; 'I' for Inactive)
REMARK    1  A    between atoms: O1_2  and  C2_3 
REMARK    2  A    between atoms: C2_3  and  C3_4 
REMARK    3  A    between atoms: C4_5  and  C5_6 
REMARK       I    between atoms: C5_6  and  N1_8 
REMARK    4  A    between atoms: N1_8  and  C6_9 
ROOT
HETATM    1  C6  UNL     1      32.112   7.540  47.347  1.00  0.00     0.114 A 
HETATM    2  C7  UNL     1      31.524   7.715  46.129  1.00  0.00     0.028 A 
HETATM    3  C8  UNL     1      32.313   8.775  45.890  1.00  0.00     0.021 A 
HETATM    4  C9  UNL     1      32.245   8.976  44.490  1.00  0.00     0.069 A 
HETATM    5  C10 UNL     1      32.587   9.635  43.338  1.00  0.00     0.052 A 
HETATM    6  C11 UNL     1      33.484  10.664  43.670  1.00  0.00     0.119 A 
HETATM    7  N2  UNL     1      33.749  10.684  45.026  1.00  0.00    -0.260 NA
HETATM    8  C12 UNL     1      33.163   9.800  45.807  1.00  0.00     0.069 A 
HETATM    9  C13 UNL     1      33.607   9.445  47.060  1.00  0.00     0.043 A 
HETATM   10  C14 UNL     1      33.155   8.405  47.801  1.00  0.00    -0.011 A 
HETATM   11  O3  UNL     1      32.784   7.413  48.603  1.00  0.00     0.000 OA
HETATM   12  C15 UNL     1      33.503   6.187  48.741  1.00  0.00     0.056 C 
HETATM   13  C16 UNL     1      33.835   5.600  47.381  1.00  0.00     0.036 C 
HETATM   14  C17 UNL     1      34.492   4.335  47.847  1.00  0.00     0.096 C 
HETATM   15  N3  UNL     1      35.021   3.327  48.198  1.00  0.00    -0.192 NA
HETATM   16  C18 UNL     1      33.922   5.485  45.983  1.00  0.00     0.010 C 
HETATM   17 BR1  UNL     1      34.698   3.920  45.119  1.00  0.00    -0.054 Br
HETATM   18  C19 UNL     1      33.774   6.500  44.907  1.00  0.00     0.094 C 
HETATM   19  C20 UNL     1      32.541   6.636  44.167  1.00  0.00     0.095 C 
HETATM   20  N4  UNL     1      31.748   7.701  43.903  1.00  0.00    -0.264 NA
ENDROOT
BRANCH   1  21
HETATM   21  N1  UNL     1      31.186   6.429  47.563  1.00  0.00    -0.330 N 
HETATM   22  C5  UNL     1      29.909   6.890  48.045  1.00  0.00     0.297 C 
HETATM   23  O2  UNL     1      29.679   8.117  48.229  1.00  0.00    -0.258 OA
HETATM   24  H6  UNL     1      31.177   5.431  47.473  1.00  0.00     0.165 HD
BRANCH  22  25
HETATM   25  C4  UNL     1      28.781   6.026  48.364  1.00  0.00    -0.003 C 
HETATM   26  C3  UNL     1      27.844   5.332  48.636  1.00  0.00    -0.070 C 
BRANCH  26  27
HETATM   27  C2  UNL     1      26.690   4.502  48.957  1.00  0.00     0.261 C 
BRANCH  27  28
HETATM   28  O1  UNL     1      27.168   3.327  49.527  1.00  0.00    -0.384 OA
HETATM   29  C1  UNL     1      26.412   2.948  50.633  1.00  0.00     0.202 C 
ENDBRANCH  27  28
ENDBRANCH  26  27
ENDBRANCH  22  25
ENDBRANCH   1  21
TORSDOF 4
ENDMDL
MODEL 3
REMARK VINA RESULT:      -6.8      3.156      3.631
REMARK  4 active torsions:
REMARK  status: ('A' for Active; 'I' for Inactive)
REMARK    1  A    between atoms: O1_2  and  C2_3 
REMARK    2  A    between atoms: C2_3  and  C3_4 
REMARK    3  A    between atoms: C4_5  and  C5_6 
REMARK       I    between atoms: C5_6  and  N1_8 
REMARK    4  A    between atoms: N1_8  and  C6_9 
ROOT
HETATM    1  C6  UNL     1      23.221   3.665  51.872  1.00  0.00     0.114 A 
HETATM    2  C7  UNL     1      23.189   2.639  50.975  1.00  0.00     0.028 A 
HETATM    3  C8  UNL     1      21.848   2.691  50.947  1.00  0.00     0.021 A 
HETATM    4  C9  UNL     1      21.476   1.998  49.769  1.00  0.00     0.069 A 
HETATM    5  C10 UNL     1      20.549   1.520  48.882  1.00  0.00     0.052 A 
HETATM    6  C11 UNL     1      19.273   1.897  49.333  1.00  0.00     0.119 A 
HETATM    7  N2  UNL     1      19.348   2.630  50.502  1.00  0.00    -0.260 NA
HETATM    8  C12 UNL     1      20.528   2.871  51.034  1.00  0.00     0.069 A 
HETATM    9  C13 UNL     1      20.792   3.877  51.933  1.00  0.00     0.043 A 
HETATM   10  C14 UNL     1      22.019   4.281  52.341  1.00  0.00    -0.011 A 
HETATM   11  O3  UNL     1      23.173   4.751  52.802  1.00  0.00     0.000 OA
HETATM   12  C15 UNL     1      23.800   5.940  52.319  1.00  0.00     0.056 C 
HETATM   13  C16 UNL     1      23.859   5.941  50.802  1.00  0.00     0.036 C 
HETATM   14  C17 UNL     1      24.609   7.226  50.616  1.00  0.00     0.096 C 
HETATM   15  N3  UNL     1      25.200   8.246  50.448  1.00  0.00    -0.192 NA
HETATM   16  C18 UNL     1      23.659   5.517  49.477  1.00  0.00     0.010 C 
HETATM   17 BR1  UNL     1      24.356   6.513  47.954  1.00  0.00    -0.054 Br
HETATM   18  C19 UNL     1      22.725   4.514  48.901  1.00  0.00     0.094 C 
HETATM   19  C20 UNL     1      23.165   3.177  48.576  1.00  0.00     0.095 C 
HETATM   20  N4  UNL     1      22.687   1.954  48.905  1.00  0.00    -0.264 NA
ENDROOT
BRANCH   1  21
HETATM   21  N1  UNL     1      24.675   3.517  51.894  1.00  0.00    -0.330 N 
HETATM   22  C5  UNL     1      25.089   2.482  52.807  1.00  0.00     0.297 C 
HETATM   23  O2  UNL     1      24.247   1.816  53.471  1.00  0.00    -0.258 OA
HETATM   24  H6  UNL     1      25.478   3.926  51.456  1.00  0.00     0.165 HD
BRANCH  22  25
HETATM   25  C4  UNL     1      26.472   2.103  53.060  1.00  0.00    -0.003 C 
HETATM   26  C3  UNL     1      27.613   1.794  53.248  1.00  0.00    -0.070 C 
BRANCH  26  27
HETATM   27  C2  UNL     1      29.009   1.437  53.466  1.00  0.00     0.261 C 
BRANCH  27  28
HETATM   28  O1  UNL     1      29.035   0.408  54.401  1.00  0.00    -0.384 OA
HETATM   29  C1  UNL     1      29.448  -0.793  53.832  1.00  0.00     0.202 C 
ENDBRANCH  27  28
ENDBRANCH  26  27
ENDBRANCH  22  25
ENDBRANCH   1  21
TORSDOF 4
ENDMDL
MODEL 4
REMARK VINA RESULT:      -6.4      7.933     10.775
REMARK  4 active torsions:
REMARK  status: ('A' for Active; 'I' for Inactive)
REMARK    1  A    between atoms: O1_2  and  C2_3 
REMARK    2  A    between atoms: C2_3  and  C3_4 
REMARK    3  A    between atoms: C4_5  and  C5_6 
REMARK       I    between atoms: C5_6  and  N1_8 
REMARK    4  A    between atoms: N1_8  and  C6_9 
ROOT
HETATM    1  C6  UNL     1      32.937   7.306  45.609  1.00  0.00     0.114 A 
HETATM    2  C7  UNL     1      33.360   6.024  45.802  1.00  0.00     0.028 A 
HETATM    3  C8  UNL     1      34.135   6.424  46.823  1.00  0.00     0.021 A 
HETATM    4  C9  UNL     1      34.432   5.242  47.545  1.00  0.00     0.069 A 
HETATM    5  C10 UNL     1      35.022   4.566  48.580  1.00  0.00     0.052 A 
HETATM    6  C11 UNL     1      35.699   5.497  49.385  1.00  0.00     0.119 A 
HETATM    7  N2  UNL     1      35.553   6.783  48.900  1.00  0.00    -0.260 NA
HETATM    8  C12 UNL     1      34.849   6.980  47.804  1.00  0.00     0.069 A 
HETATM    9  C13 UNL     1      34.298   8.184  47.432  1.00  0.00     0.043 A 
HETATM   10  C14 UNL     1      33.406   8.377  46.431  1.00  0.00    -0.011 A 
HETATM   11  O3  UNL     1      32.531   8.671  45.476  1.00  0.00     0.000 OA
HETATM   12  C15 UNL     1      31.137   8.875  45.706  1.00  0.00     0.056 C 
HETATM   13  C16 UNL     1      30.560   7.751  46.549  1.00  0.00     0.036 C 
HETATM   14  C17 UNL     1      29.127   8.195  46.548  1.00  0.00     0.096 C 
HETATM   15  N3  UNL     1      27.986   8.535  46.563  1.00  0.00    -0.192 NA
HETATM   16  C18 UNL     1      30.509   6.579  47.322  1.00  0.00     0.010 C 
HETATM   17 BR1  UNL     1      28.836   5.885  48.042  1.00  0.00    -0.054 Br
HETATM   18  C19 UNL     1      31.584   5.807  48.000  1.00  0.00     0.094 C 
HETATM   19  C20 UNL     1      32.141   4.614  47.406  1.00  0.00     0.095 C 
HETATM   20  N4  UNL     1      33.413   4.234  47.144  1.00  0.00    -0.264 NA
ENDROOT
BRANCH   1  21
HETATM   21  N1  UNL     1      32.157   6.810  44.476  1.00  0.00    -0.330 N 
HETATM   22  C5  UNL     1      32.965   6.691  43.288  1.00  0.00     0.297 C 
HETATM   23  O2  UNL     1      34.191   6.988  43.295  1.00  0.00    -0.258 OA
HETATM   24  H6  UNL     1      31.217   6.524  44.279  1.00  0.00     0.165 HD
BRANCH  22  25
HETATM   25  C4  UNL     1      32.476   6.236  41.994  1.00  0.00    -0.003 C 
HETATM   26  C3  UNL     1      32.089   5.874  40.921  1.00  0.00    -0.070 C 
BRANCH  26  27
HETATM   27  C2  UNL     1      31.638   5.429  39.609  1.00  0.00     0.261 C 
BRANCH  27  28
HETATM   28  O1  UNL     1      30.871   4.284  39.797  1.00  0.00    -0.384 OA
HETATM   29  C1  UNL     1      31.661   3.139  39.843  1.00  0.00     0.202 C 
ENDBRANCH  27  28
ENDBRANCH  26  27
ENDBRANCH  22  25
ENDBRANCH   1  21
TORSDOF 4
ENDMDL
MODEL 5
REMARK VINA RESULT:      -6.3      3.140      7.306
REMARK  4 active torsions:
REMARK  status: ('A' for Active; 'I' for Inactive)
REMARK    1  A    between atoms: O1_2  and  C2_3 
REMARK    2  A    between atoms: C2_3  and  C3_4 
REMARK    3  A    between atoms: C4_5  and  C5_6 
REMARK       I    between atoms: C5_6  and  N1_8 
REMARK    4  A    between atoms: N1_8  and  C6_9 
ROOT
HETATM    1  C6  UNL     1      22.497   4.602  49.206  1.00  0.00     0.114 A 
HETATM    2  C7  UNL     1      22.371   5.867  49.700  1.00  0.00     0.028 A 
HETATM    3  C8  UNL     1      23.706   5.977  49.786  1.00  0.00     0.021 A 
HETATM    4  C9  UNL     1      23.955   7.366  49.894  1.00  0.00     0.069 A 
HETATM    5  C10 UNL     1      24.790   8.447  50.008  1.00  0.00     0.052 A 
HETATM    6  C11 UNL     1      26.115   7.979  50.022  1.00  0.00     0.119 A 
HETATM    7  N2  UNL     1      26.165   6.603  49.907  1.00  0.00    -0.260 NA
HETATM    8  C12 UNL     1      25.040   5.926  49.812  1.00  0.00     0.069 A 
HETATM    9  C13 UNL     1      24.933   4.649  49.311  1.00  0.00     0.043 A 
HETATM   10  C14 UNL     1      23.780   4.004  49.010  1.00  0.00    -0.011 A 
HETATM   11  O3  UNL     1      22.711   3.288  48.683  1.00  0.00     0.000 OA
HETATM   12  C15 UNL     1      22.238   3.125  47.345  1.00  0.00     0.056 C 
HETATM   13  C16 UNL     1      22.146   4.466  46.639  1.00  0.00     0.036 C 
HETATM   14  C17 UNL     1      21.571   3.987  45.340  1.00  0.00     0.096 C 
HETATM   15  N3  UNL     1      21.118   3.624  44.299  1.00  0.00    -0.192 NA
HETATM   16  C18 UNL     1      22.257   5.850  46.423  1.00  0.00     0.010 C 
HETATM   17 BR1  UNL     1      21.666   6.692  44.768  1.00  0.00    -0.054 Br
HETATM   18  C19 UNL     1      23.036   6.893  47.143  1.00  0.00     0.094 C 
HETATM   19  C20 UNL     1      22.413   7.753  48.123  1.00  0.00     0.095 C 
HETATM   20  N4  UNL     1      22.730   8.055  49.404  1.00  0.00    -0.264 NA
ENDROOT
BRANCH   1  21
HETATM   21  N1  UNL     1      21.037   4.531  49.188  1.00  0.00    -0.330 N 
HETATM   22  C5  UNL     1      20.505   4.224  50.492  1.00  0.00     0.297 C 
HETATM   23  O2  UNL     1      21.262   4.056  51.488  1.00  0.00    -0.258 OA
HETATM   24  H6  UNL     1      20.288   4.636  48.530  1.00  0.00     0.165 HD
BRANCH  22  25
HETATM   25  C4  UNL     1      19.089   4.076  50.797  1.00  0.00    -0.003 C 
HETATM   26  C3  UNL     1      17.930   3.943  51.066  1.00  0.00    -0.070 C 
BRANCH  26  27
HETATM   27  C2  UNL     1      16.523   3.790  51.413  1.00  0.00     0.261 C 
BRANCH  27  28
HETATM   28  O1  UNL     1      16.318   4.448  52.621  1.00  0.00    -0.384 OA
HETATM   29  C1  UNL     1      15.096   4.105  53.192  1.00  0.00     0.202 C 
ENDBRANCH  27  28
ENDBRANCH  26  27
ENDBRANCH  22  25
ENDBRANCH   1  21
TORSDOF 4
ENDMDL
MODEL 6
REMARK VINA RESULT:      -6.3      2.008      2.580
REMARK  4 active torsions:
REMARK  status: ('A' for Active; 'I' for Inactive)
REMARK    1  A    between atoms: O1_2  and  C2_3 
REMARK    2  A    between atoms: C2_3  and  C3_4 
REMARK    3  A    between atoms: C4_5  and  C5_6 
REMARK       I    between atoms: C5_6  and  N1_8 
REMARK    4  A    between atoms: N1_8  and  C6_9 
ROOT
HETATM    1  C6  UNL     1      23.625   6.070  49.292  1.00  0.00     0.114 A 
HETATM    2  C7  UNL     1      23.956   4.808  49.690  1.00  0.00     0.028 A 
HETATM    3  C8  UNL     1      22.911   4.789  50.533  1.00  0.00     0.021 A 
HETATM    4  C9  UNL     1      22.708   3.421  50.837  1.00  0.00     0.069 A 
HETATM    5  C10 UNL     1      22.043   2.401  51.466  1.00  0.00     0.052 A 
HETATM    6  C11 UNL     1      20.991   2.956  52.213  1.00  0.00     0.119 A 
HETATM    7  N2  UNL     1      20.945   4.331  52.076  1.00  0.00    -0.260 NA
HETATM    8  C12 UNL     1      21.839   4.930  51.316  1.00  0.00     0.069 A 
HETATM    9  C13 UNL     1      21.695   6.187  50.778  1.00  0.00     0.043 A 
HETATM   10  C14 UNL     1      22.491   6.749  49.837  1.00  0.00    -0.011 A 
HETATM   11  O3  UNL     1      23.208   7.386  48.918  1.00  0.00     0.000 OA
HETATM   12  C15 UNL     1      22.831   7.493  47.545  1.00  0.00     0.056 C 
HETATM   13  C16 UNL     1      22.439   6.137  46.985  1.00  0.00     0.036 C 
HETATM   14  C17 UNL     1      22.182   6.554  45.568  1.00  0.00     0.096 C 
HETATM   15  N3  UNL     1      21.968   6.868  44.439  1.00  0.00    -0.192 NA
HETATM   16  C18 UNL     1      22.162   4.760  46.946  1.00  0.00     0.010 C 
HETATM   17 BR1  UNL     1      21.654   3.852  45.298  1.00  0.00    -0.054 Br
HETATM   18  C19 UNL     1      21.894   3.784  48.036  1.00  0.00     0.094 C 
HETATM   19  C20 UNL     1      22.928   2.901  48.525  1.00  0.00     0.095 C 
HETATM   20  N4  UNL     1      23.394   2.643  49.769  1.00  0.00    -0.264 NA
ENDROOT
BRANCH   1  21
HETATM   21  N1  UNL     1      24.810   6.042  48.436  1.00  0.00    -0.330 N 
HETATM   22  C5  UNL     1      25.976   6.529  49.129  1.00  0.00     0.297 C 
HETATM   23  O2  UNL     1      25.915   6.910  50.330  1.00  0.00    -0.258 OA
HETATM   24  H6  UNL     1      25.054   5.780  47.500  1.00  0.00     0.165 HD
BRANCH  22  25
HETATM   25  C4  UNL     1      27.305   6.635  48.544  1.00  0.00    -0.003 C 
HETATM   26  C3  UNL     1      28.394   6.704  48.052  1.00  0.00    -0.070 C 
BRANCH  26  27
HETATM   27  C2  UNL     1      29.711   6.785  47.434  1.00  0.00     0.261 C 
BRANCH  27  28
HETATM   28  O1  UNL     1      30.443   5.684  47.865  1.00  0.00    -0.384 OA
HETATM   29  C1  UNL     1      31.226   5.990  48.974  1.00  0.00     0.202 C 
ENDBRANCH  27  28
ENDBRANCH  26  27
ENDBRANCH  22  25
ENDBRANCH   1  21
TORSDOF 4
ENDMDL
MODEL 7
REMARK VINA RESULT:      -6.3      4.484      9.007
REMARK  4 active torsions:
REMARK  status: ('A' for Active; 'I' for Inactive)
REMARK    1  A    between atoms: O1_2  and  C2_3 
REMARK    2  A    between atoms: C2_3  and  C3_4 
REMARK    3  A    between atoms: C4_5  and  C5_6 
REMARK       I    between atoms: C5_6  and  N1_8 
REMARK    4  A    between atoms: N1_8  and  C6_9 
ROOT
HETATM    1  C6  UNL     1      28.900   8.018  47.382  1.00  0.00     0.114 A 
HETATM    2  C7  UNL     1      29.711   7.632  48.408  1.00  0.00     0.028 A 
HETATM    3  C8  UNL     1      30.720   7.427  47.546  1.00  0.00     0.021 A 
HETATM    4  C9  UNL     1      31.887   7.397  48.346  1.00  0.00     0.069 A 
HETATM    5  C10 UNL     1      33.242   7.284  48.516  1.00  0.00     0.052 A 
HETATM    6  C11 UNL     1      33.831   7.110  47.253  1.00  0.00     0.119 A 
HETATM    7  N2  UNL     1      32.882   7.120  46.248  1.00  0.00    -0.260 NA
HETATM    8  C12 UNL     1      31.613   7.272  46.567  1.00  0.00     0.069 A 
HETATM    9  C13 UNL     1      30.631   7.687  45.697  1.00  0.00     0.043 A 
HETATM   10  C14 UNL     1      29.369   8.048  46.032  1.00  0.00    -0.011 A 
HETATM   11  O3  UNL     1      28.115   8.422  46.257  1.00  0.00     0.000 OA
HETATM   12  C15 UNL     1      27.687   9.783  46.322  1.00  0.00     0.056 C 
HETATM   13  C16 UNL     1      28.594  10.591  47.234  1.00  0.00     0.036 C 
HETATM   14  C17 UNL     1      27.868  11.900  47.156  1.00  0.00     0.096 C 
HETATM   15  N3  UNL     1      27.307  12.949  47.103  1.00  0.00    -0.192 NA
HETATM   16  C18 UNL     1      29.666  10.894  48.090  1.00  0.00     0.010 C 
HETATM   17 BR1  UNL     1      29.880  12.654  48.898  1.00  0.00    -0.054 Br
HETATM   18  C19 UNL     1      30.946  10.182  48.345  1.00  0.00     0.094 C 
HETATM   19  C20 UNL     1      31.114   9.329  49.500  1.00  0.00     0.095 C 
HETATM   20  N4  UNL     1      31.533   8.050  49.636  1.00  0.00    -0.264 NA
ENDROOT
BRANCH   1  21
HETATM   21  N1  UNL     1      27.831   8.169  48.369  1.00  0.00    -0.330 N 
HETATM   22  C5  UNL     1      27.195   6.908  48.658  1.00  0.00     0.297 C 
HETATM   23  O2  UNL     1      27.569   5.840  48.099  1.00  0.00    -0.258 OA
HETATM   24  H6  UNL     1      27.406   8.897  48.910  1.00  0.00     0.165 HD
BRANCH  22  25
HETATM   25  C4  UNL     1      26.090   6.730  49.589  1.00  0.00    -0.003 C 
HETATM   26  C3  UNL     1      25.174   6.603  50.349  1.00  0.00    -0.070 C 
BRANCH  26  27
HETATM   27  C2  UNL     1      24.045   6.453  51.258  1.00  0.00     0.261 C 
BRANCH  27  28
HETATM   28  O1  UNL     1      23.782   5.093  51.375  1.00  0.00    -0.384 OA
HETATM   29  C1  UNL     1      23.393   4.753  52.668  1.00  0.00     0.202 C 
ENDBRANCH  27  28
ENDBRANCH  26  27
ENDBRANCH  22  25
ENDBRANCH   1  21
TORSDOF 4
ENDMDL
MODEL 8
REMARK VINA RESULT:      -6.3      1.807      2.303
REMARK  4 active torsions:
REMARK  status: ('A' for Active; 'I' for Inactive)
REMARK    1  A    between atoms: O1_2  and  C2_3 
REMARK    2  A    between atoms: C2_3  and  C3_4 
REMARK    3  A    between atoms: C4_5  and  C5_6 
REMARK       I    between atoms: C5_6  and  N1_8 
REMARK    4  A    between atoms: N1_8  and  C6_9 
ROOT
HETATM    1  C6  UNL     1      22.420   4.484  50.010  1.00  0.00     0.114 A 
HETATM    2  C7  UNL     1      22.651   3.141  49.944  1.00  0.00     0.028 A 
HETATM    3  C8  UNL     1      21.633   2.914  50.790  1.00  0.00     0.021 A 
HETATM    4  C9  UNL     1      21.321   1.542  50.630  1.00  0.00     0.069 A 
HETATM    5  C10 UNL     1      20.589   0.421  50.919  1.00  0.00     0.052 A 
HETATM    6  C11 UNL     1      19.611   0.765  51.867  1.00  0.00     0.119 A 
HETATM    7  N2  UNL     1      19.682   2.105  52.200  1.00  0.00    -0.260 NA
HETATM    8  C12 UNL     1      20.602   2.859  51.634  1.00  0.00     0.069 A 
HETATM    9  C13 UNL     1      20.552   4.231  51.557  1.00  0.00     0.043 A 
HETATM   10  C14 UNL     1      21.366   5.019  50.813  1.00  0.00    -0.011 A 
HETATM   11  O3  UNL     1      22.108   5.875  50.121  1.00  0.00     0.000 OA
HETATM   12  C15 UNL     1      21.702   6.466  48.887  1.00  0.00     0.056 C 
HETATM   13  C16 UNL     1      21.177   5.411  47.930  1.00  0.00     0.036 C 
HETATM   14  C17 UNL     1      20.916   6.300  46.750  1.00  0.00     0.096 C 
HETATM   15  N3  UNL     1      20.698   6.991  45.805  1.00  0.00    -0.192 NA
HETATM   16  C18 UNL     1      20.781   4.152  47.448  1.00  0.00     0.010 C 
HETATM   17 BR1  UNL     1      20.148   3.893  45.623  1.00  0.00    -0.054 Br
HETATM   18  C19 UNL     1      20.461   2.888  48.162  1.00  0.00     0.094 C 
HETATM   19  C20 UNL     1      21.429   1.819  48.269  1.00  0.00     0.095 C 
HETATM   20  N4  UNL     1      21.906   1.123  49.327  1.00  0.00    -0.264 NA
ENDROOT
BRANCH   1  21
HETATM   21  N1  UNL     1      23.572   4.661  49.128  1.00  0.00    -0.330 N 
HETATM   22  C5  UNL     1      24.806   4.708  49.871  1.00  0.00     0.297 C 
HETATM   23  O2  UNL     1      24.821   4.596  51.128  1.00  0.00    -0.258 OA
HETATM   24  H6  UNL     1      23.760   4.760  48.149  1.00  0.00     0.165 HD
BRANCH  22  25
HETATM   25  C4  UNL     1      26.125   4.887  49.280  1.00  0.00    -0.003 C 
HETATM   26  C3  UNL     1      27.212   5.051  48.808  1.00  0.00    -0.070 C 
BRANCH  26  27
HETATM   27  C2  UNL     1      28.545   5.249  48.253  1.00  0.00     0.261 C 
BRANCH  27  28
HETATM   28  O1  UNL     1      28.872   6.590  48.423  1.00  0.00    -0.384 OA
HETATM   29  C1  UNL     1      28.402   7.371  47.371  1.00  0.00     0.202 C 
ENDBRANCH  27  28
ENDBRANCH  26  27
ENDBRANCH  22  25
ENDBRANCH   1  21
TORSDOF 4
ENDMDL
MODEL 9
REMARK VINA RESULT:      -6.1     24.321     26.384
REMARK  4 active torsions:
REMARK  status: ('A' for Active; 'I' for Inactive)
REMARK    1  A    between atoms: O1_2  and  C2_3 
REMARK    2  A    between atoms: C2_3  and  C3_4 
REMARK    3  A    between atoms: C4_5  and  C5_6 
REMARK       I    between atoms: C5_6  and  N1_8 
REMARK    4  A    between atoms: N1_8  and  C6_9 
ROOT
HETATM    1  C6  UNL     1      41.392  -1.091  69.302  1.00  0.00     0.114 A 
HETATM    2  C7  UNL     1      40.801  -1.050  68.074  1.00  0.00     0.028 A 
HETATM    3  C8  UNL     1      40.483  -2.351  68.172  1.00  0.00     0.021 A 
HETATM    4  C9  UNL     1      39.471  -2.557  67.203  1.00  0.00     0.069 A 
HETATM    5  C10 UNL     1      38.563  -3.341  66.541  1.00  0.00     0.052 A 
HETATM    6  C11 UNL     1      38.627  -4.637  67.078  1.00  0.00     0.119 A 
HETATM    7  N2  UNL     1      39.560  -4.716  68.096  1.00  0.00    -0.260 NA
HETATM    8  C12 UNL     1      40.245  -3.640  68.423  1.00  0.00     0.069 A 
HETATM    9  C13 UNL     1      40.891  -3.456  69.623  1.00  0.00     0.043 A 
HETATM   10  C14 UNL     1      41.428  -2.296  70.071  1.00  0.00    -0.011 A 
HETATM   11  O3  UNL     1      41.982  -1.211  70.600  1.00  0.00     0.000 OA
HETATM   12  C15 UNL     1      41.352  -0.394  71.587  1.00  0.00     0.056 C 
HETATM   13  C16 UNL     1      39.931  -0.049  71.176  1.00  0.00     0.036 C 
HETATM   14  C17 UNL     1      39.582   0.841  72.331  1.00  0.00     0.096 C 
HETATM   15  N3  UNL     1      39.286   1.547  73.243  1.00  0.00    -0.192 NA
HETATM   16  C18 UNL     1      38.748  -0.034  70.418  1.00  0.00     0.010 C 
HETATM   17 BR1  UNL     1      37.199   1.030  70.937  1.00  0.00    -0.054 Br
HETATM   18  C19 UNL     1      38.267  -0.933  69.337  1.00  0.00     0.094 C 
HETATM   19  C20 UNL     1      38.393  -0.569  67.944  1.00  0.00     0.095 C 
HETATM   20  N4  UNL     1      38.918  -1.214  66.877  1.00  0.00    -0.264 NA
ENDROOT
BRANCH   1  21
HETATM   21  N1  UNL     1      41.752   0.312  69.105  1.00  0.00    -0.330 N 
HETATM   22  C5  UNL     1      43.023   0.444  68.439  1.00  0.00     0.297 C 
HETATM   23  O2  UNL     1      43.690  -0.568  68.087  1.00  0.00    -0.258 OA
HETATM   24  H6  UNL     1      41.372   1.219  69.298  1.00  0.00     0.165 HD
BRANCH  22  25
HETATM   25  C4  UNL     1      43.660   1.712  68.111  1.00  0.00    -0.003 C 
HETATM   26  C3  UNL     1      44.170   2.757  67.825  1.00  0.00    -0.070 C 
BRANCH  26  27
HETATM   27  C2  UNL     1      44.770   4.038  67.477  1.00  0.00     0.261 C 
BRANCH  27  28
HETATM   28  O1  UNL     1      44.433   4.312  66.157  1.00  0.00    -0.384 OA
HETATM   29  C1  UNL     1      45.133   5.410  65.664  1.00  0.00     0.202 C 
ENDBRANCH  27  28
ENDBRANCH  26  27
ENDBRANCH  22  25
ENDBRANCH   1  21
TORSDOF 4
ENDMDL
