MODEL 1
REMARK VINA RESULT:      -8.6      0.000      0.000
REMARK  2 active torsions:
REMARK  status: ('A' for Active; 'I' for Inactive)
REMARK       I    between atoms: C1_2  and  N1_3 
REMARK       I    between atoms: C1_2  and  N2_10 
REMARK    1  A    between atoms: N1_3  and  C2_4 
REMARK    2  A    between atoms: C12_15  and  O2_16 
ROOT
HETATM    1  O1  UNL     1      23.788   3.528  49.040  1.00  0.00    -0.247 OA
HETATM    2  C1  UNL     1      24.486   3.447  50.057  1.00  0.00     0.322 C 
HETATM    3  N1  UNL     1      25.626   4.165  50.496  1.00  0.00    -0.309 N 
HETATM    4  N2  UNL     1      23.951   2.406  50.871  1.00  0.00    -0.334 N 
HETATM    5  C8  UNL     1      22.794   1.628  50.495  1.00  0.00     0.127 C 
HETATM    6  C9  UNL     1      21.476   2.185  50.855  1.00  0.00     0.020 C 
HETATM    7  C10 UNL     1      21.007   2.419  52.205  1.00  0.00     0.008 C 
HETATM    8  C11 UNL     1      20.613   1.373  53.161  1.00  0.00     0.066 C 
HETATM    9  C12 UNL     1      21.546   0.427  53.726  1.00  0.00     0.061 C 
HETATM   10  C13 UNL     1      22.592  -0.349  54.097  1.00  0.00     0.047 C 
HETATM   11 CL1  UNL     1      22.458  -1.643  55.334  1.00  0.00    -0.086 Cl
HETATM   12  C14 UNL     1      23.875  -0.066  53.372  1.00  0.00     0.120 C 
HETATM   13  C15 UNL     1      25.175  -0.250  53.087  1.00  0.00     0.034 C 
HETATM   14 CL2  UNL     1      26.692  -1.126  53.392  1.00  0.00    -0.124 Cl
HETATM   15  C16 UNL     1      25.330   0.722  51.995  1.00  0.00     0.041 C 
HETATM   16  C17 UNL     1      24.366   1.864  52.109  1.00  0.00     0.129 C 
HETATM   17  H1  UNL     1      26.083   3.944  51.404  1.00  0.00     0.170 HD
ENDROOT
BRANCH   3  18
HETATM   18  C2  UNL     1      26.167   5.213  49.685  1.00  0.00     0.036 A 
HETATM   19  C3  UNL     1      25.610   6.471  49.591  1.00  0.00     0.029 A 
HETATM   20  C4  UNL     1      26.228   7.376  48.781  1.00  0.00     0.002 A 
HETATM   21  C5  UNL     1      27.366   7.026  48.091  1.00  0.00     0.000 A 
HETATM   22  C6  UNL     1      27.926   5.765  48.183  1.00  0.00     0.002 A 
HETATM   23  C7  UNL     1      27.310   4.838  49.001  1.00  0.00     0.029 A 
ENDBRANCH   3  18
BRANCH   9  24
HETATM   24  O2  UNL     1      20.624  -0.213  54.613  1.00  0.00    -0.364 OA
HETATM   25  H15 UNL     1      20.898  -1.002  55.163  1.00  0.00     0.217 HD
ENDBRANCH   9  24
TORSDOF 2
ENDMDL
MODEL 2
REMARK VINA RESULT:      -8.5      4.697      6.161
REMARK  2 active torsions:
REMARK  status: ('A' for Active; 'I' for Inactive)
REMARK       I    between atoms: C1_2  and  N1_3 
REMARK       I    between atoms: C1_2  and  N2_10 
REMARK    1  A    between atoms: N1_3  and  C2_4 
REMARK    2  A    between atoms: C12_15  and  O2_16 
ROOT
HETATM    1  O1  UNL     1      25.108  -0.950  55.109  1.00  0.00    -0.247 OA
HETATM    2  C1  UNL     1      25.019  -0.555  53.941  1.00  0.00     0.322 C 
HETATM    3  N1  UNL     1      25.950  -0.500  52.874  1.00  0.00    -0.309 N 
HETATM    4  N2  UNL     1      23.687  -0.087  53.740  1.00  0.00    -0.334 N 
HETATM    5  C8  UNL     1      22.680  -0.107  54.775  1.00  0.00     0.127 C 
HETATM    6  C9  UNL     1      21.908  -1.355  54.923  1.00  0.00     0.020 C 
HETATM    7  C10 UNL     1      21.031  -1.920  53.918  1.00  0.00     0.008 C 
HETATM    8  C11 UNL     1      19.719  -1.378  53.533  1.00  0.00     0.066 C 
HETATM    9  C12 UNL     1      19.554  -0.111  52.861  1.00  0.00     0.061 C 
HETATM   10  C13 UNL     1      19.656   1.099  52.262  1.00  0.00     0.047 C 
HETATM   11 CL1  UNL     1      18.244   1.972  51.579  1.00  0.00    -0.086 Cl
HETATM   12  C14 UNL     1      21.041   1.675  52.236  1.00  0.00     0.120 C 
HETATM   13  C15 UNL     1      21.964   2.606  51.939  1.00  0.00     0.034 C 
HETATM   14 CL2  UNL     1      22.363   4.178  51.210  1.00  0.00    -0.124 Cl
HETATM   15  C16 UNL     1      23.144   1.994  52.569  1.00  0.00     0.041 C 
HETATM   16  C17 UNL     1      23.048   0.499  52.623  1.00  0.00     0.129 C 
HETATM   17  H1  UNL     1      25.678  -0.123  51.943  1.00  0.00     0.170 HD
ENDROOT
BRANCH   3  18
HETATM   18  C2  UNL     1      27.288  -0.969  53.068  1.00  0.00     0.036 A 
HETATM   19  C3  UNL     1      27.677  -2.276  52.864  1.00  0.00     0.029 A 
HETATM   20  C4  UNL     1      28.985  -2.589  53.086  1.00  0.00     0.002 A 
HETATM   21  C5  UNL     1      29.869  -1.618  53.499  1.00  0.00     0.000 A 
HETATM   22  C6  UNL     1      29.481  -0.306  53.706  1.00  0.00     0.002 A 
HETATM   23  C7  UNL     1      28.159   0.023  53.483  1.00  0.00     0.029 A 
ENDBRANCH   3  18
BRANCH   9  24
HETATM   24  O2  UNL     1      18.139  -0.201  52.672  1.00  0.00    -0.364 OA
HETATM   25  H15 UNL     1      17.645   0.481  52.131  1.00  0.00     0.217 HD
ENDBRANCH   9  24
TORSDOF 2
ENDMDL
MODEL 3
REMARK VINA RESULT:      -8.2      3.991      6.083
REMARK  2 active torsions:
REMARK  status: ('A' for Active; 'I' for Inactive)
REMARK       I    between atoms: C1_2  and  N1_3 
REMARK       I    between atoms: C1_2  and  N2_10 
REMARK    1  A    between atoms: N1_3  and  C2_4 
REMARK    2  A    between atoms: C12_15  and  O2_16 
ROOT
HETATM    1  O1  UNL     1      24.662  -0.499  53.947  1.00  0.00    -0.247 OA
HETATM    2  C1  UNL     1      25.032   0.246  53.032  1.00  0.00     0.322 C 
HETATM    3  N1  UNL     1      26.274   0.406  52.371  1.00  0.00    -0.309 N 
HETATM    4  N2  UNL     1      23.919   1.050  52.649  1.00  0.00    -0.334 N 
HETATM    5  C8  UNL     1      22.621   0.949  53.274  1.00  0.00     0.127 C 
HETATM    6  C9  UNL     1      21.700  -0.066  52.727  1.00  0.00     0.020 C 
HETATM    7  C10 UNL     1      21.166  -0.073  51.382  1.00  0.00     0.008 C 
HETATM    8  C11 UNL     1      20.144   0.852  50.868  1.00  0.00     0.066 C 
HETATM    9  C12 UNL     1      20.377   2.266  50.692  1.00  0.00     0.061 C 
HETATM   10  C13 UNL     1      20.824   3.543  50.634  1.00  0.00     0.047 C 
HETATM   11 CL1  UNL     1      19.853   4.889  49.950  1.00  0.00    -0.086 Cl
HETATM   12  C14 UNL     1      22.191   3.758  51.215  1.00  0.00     0.120 C 
HETATM   13  C15 UNL     1      23.265   4.492  51.556  1.00  0.00     0.034 C 
HETATM   14 CL2  UNL     1      24.078   6.072  51.600  1.00  0.00    -0.124 Cl
HETATM   15  C16 UNL     1      24.070   3.457  52.222  1.00  0.00     0.041 C 
HETATM   16  C17 UNL     1      23.782   2.084  51.694  1.00  0.00     0.129 C 
HETATM   17  H1  UNL     1      26.390   1.104  51.607  1.00  0.00     0.170 HD
ENDROOT
BRANCH   3  18
HETATM   18  C2  UNL     1      27.395  -0.399  52.749  1.00  0.00     0.036 A 
HETATM   19  C3  UNL     1      27.442  -1.767  52.589  1.00  0.00     0.029 A 
HETATM   20  C4  UNL     1      28.572  -2.413  52.992  1.00  0.00     0.002 A 
HETATM   21  C5  UNL     1      29.618  -1.704  53.538  1.00  0.00     0.000 A 
HETATM   22  C6  UNL     1      29.574  -0.331  53.701  1.00  0.00     0.002 A 
HETATM   23  C7  UNL     1      28.434   0.335  53.295  1.00  0.00     0.029 A 
ENDBRANCH   3  18
BRANCH   9  24
HETATM   24  O2  UNL     1      19.115   2.573  50.091  1.00  0.00    -0.364 OA
HETATM   25  H15 UNL     1      18.575   3.359  50.394  1.00  0.00     0.217 HD
ENDBRANCH   9  24
TORSDOF 2
ENDMDL
MODEL 4
REMARK VINA RESULT:      -8.1      3.802      6.863
REMARK  2 active torsions:
REMARK  status: ('A' for Active; 'I' for Inactive)
REMARK       I    between atoms: C1_2  and  N1_3 
REMARK       I    between atoms: C1_2  and  N2_10 
REMARK    1  A    between atoms: N1_3  and  C2_4 
REMARK    2  A    between atoms: C12_15  and  O2_16 
ROOT
HETATM    1  O1  UNL     1      26.905   2.772  50.138  1.00  0.00    -0.247 OA
HETATM    2  C1  UNL     1      26.179   2.996  51.113  1.00  0.00     0.322 C 
HETATM    3  N1  UNL     1      26.180   2.502  52.441  1.00  0.00    -0.309 N 
HETATM    4  N2  UNL     1      25.191   3.942  50.713  1.00  0.00    -0.334 N 
HETATM    5  C8  UNL     1      25.121   4.491  49.379  1.00  0.00     0.127 C 
HETATM    6  C9  UNL     1      25.949   5.682  49.109  1.00  0.00     0.020 C 
HETATM    7  C10 UNL     1      25.800   6.968  49.756  1.00  0.00     0.008 C 
HETATM    8  C11 UNL     1      24.700   7.917  49.521  1.00  0.00     0.066 C 
HETATM    9  C12 UNL     1      23.333   7.649  49.899  1.00  0.00     0.061 C 
HETATM   10  C13 UNL     1      22.141   7.166  50.322  1.00  0.00     0.047 C 
HETATM   11 CL1  UNL     1      20.625   8.126  50.274  1.00  0.00    -0.086 Cl
HETATM   12  C14 UNL     1      22.174   5.747  50.810  1.00  0.00     0.120 C 
HETATM   13  C15 UNL     1      21.636   4.624  51.317  1.00  0.00     0.034 C 
HETATM   14 CL2  UNL     1      20.207   3.760  51.927  1.00  0.00    -0.124 Cl
HETATM   15  C16 UNL     1      22.818   3.749  51.288  1.00  0.00     0.041 C 
HETATM   16  C17 UNL     1      24.099   4.519  51.400  1.00  0.00     0.129 C 
HETATM   17  H1  UNL     1      25.469   2.819  53.132  1.00  0.00     0.170 HD
ENDROOT
BRANCH   3  18
HETATM   18  C2  UNL     1      27.170   1.553  52.851  1.00  0.00     0.036 A 
HETATM   19  C3  UNL     1      28.366   1.903  53.440  1.00  0.00     0.029 A 
HETATM   20  C4  UNL     1      29.221   0.898  53.782  1.00  0.00     0.002 A 
HETATM   21  C5  UNL     1      28.881  -0.413  53.539  1.00  0.00     0.000 A 
HETATM   22  C6  UNL     1      27.681  -0.767  52.948  1.00  0.00     0.002 A 
HETATM   23  C7  UNL     1      26.806   0.242  52.597  1.00  0.00     0.029 A 
ENDBRANCH   3  18
BRANCH   9  24
HETATM   24  O2  UNL     1      22.801   8.924  49.529  1.00  0.00    -0.364 OA
HETATM   25  H15 UNL     1      22.741   9.201  48.569  1.00  0.00     0.217 HD
ENDBRANCH   9  24
TORSDOF 2
ENDMDL
MODEL 5
REMARK VINA RESULT:      -7.7      3.082      7.287
REMARK  2 active torsions:
REMARK  status: ('A' for Active; 'I' for Inactive)
REMARK       I    between atoms: C1_2  and  N1_3 
REMARK       I    between atoms: C1_2  and  N2_10 
REMARK    1  A    between atoms: N1_3  and  C2_4 
REMARK    2  A    between atoms: C12_15  and  O2_16 
ROOT
HETATM    1  O1  UNL     1      19.655   2.550  51.869  1.00  0.00    -0.247 OA
HETATM    2  C1  UNL     1      20.280   1.485  51.798  1.00  0.00     0.322 C 
HETATM    3  N1  UNL     1      19.873   0.150  51.556  1.00  0.00    -0.309 N 
HETATM    4  N2  UNL     1      21.658   1.774  52.015  1.00  0.00    -0.334 N 
HETATM    5  C8  UNL     1      22.154   3.107  52.268  1.00  0.00     0.127 C 
HETATM    6  C9  UNL     1      22.469   3.932  51.086  1.00  0.00     0.020 C 
HETATM    7  C10 UNL     1      23.488   3.631  50.104  1.00  0.00     0.008 C 
HETATM    8  C11 UNL     1      24.939   3.734  50.324  1.00  0.00     0.066 C 
HETATM    9  C12 UNL     1      25.663   2.876  51.232  1.00  0.00     0.061 C 
HETATM   10  C13 UNL     1      26.107   1.977  52.142  1.00  0.00     0.047 C 
HETATM   11 CL1  UNL     1      27.844   1.777  52.550  1.00  0.00    -0.086 Cl
HETATM   12  C14 UNL     1      25.031   1.174  52.813  1.00  0.00     0.120 C 
HETATM   13  C15 UNL     1      24.559   0.246  53.663  1.00  0.00     0.034 C 
HETATM   14 CL2  UNL     1      24.880  -0.999  54.891  1.00  0.00    -0.124 Cl
HETATM   15  C16 UNL     1      23.115   0.429  53.452  1.00  0.00     0.041 C 
HETATM   16  C17 UNL     1      22.801   0.945  52.080  1.00  0.00     0.129 C 
HETATM   17  H1  UNL     1      20.565  -0.627  51.535  1.00  0.00     0.170 HD
ENDROOT
BRANCH   3  18
HETATM   18  C2  UNL     1      18.490  -0.148  51.336  1.00  0.00     0.036 A 
HETATM   19  C3  UNL     1      17.820   0.156  50.170  1.00  0.00     0.029 A 
HETATM   20  C4  UNL     1      16.502  -0.184  50.091  1.00  0.00     0.002 A 
HETATM   21  C5  UNL     1      15.883  -0.806  51.151  1.00  0.00     0.000 A 
HETATM   22  C6  UNL     1      16.553  -1.112  52.322  1.00  0.00     0.002 A 
HETATM   23  C7  UNL     1      17.889  -0.774  52.414  1.00  0.00     0.029 A 
ENDBRANCH   3  18
BRANCH   9  24
HETATM   24  O2  UNL     1      26.970   3.371  50.930  1.00  0.00    -0.364 OA
HETATM   25  H15 UNL     1      27.254   4.288  51.214  1.00  0.00     0.217 HD
ENDBRANCH   9  24
TORSDOF 2
ENDMDL
MODEL 6
REMARK VINA RESULT:      -7.5      3.791      7.818
REMARK  2 active torsions:
REMARK  status: ('A' for Active; 'I' for Inactive)
REMARK       I    between atoms: C1_2  and  N1_3 
REMARK       I    between atoms: C1_2  and  N2_10 
REMARK    1  A    between atoms: N1_3  and  C2_4 
REMARK    2  A    between atoms: C12_15  and  O2_16 
ROOT
HETATM    1  O1  UNL     1      23.307   4.214  52.598  1.00  0.00    -0.247 OA
HETATM    2  C1  UNL     1      23.814   3.777  51.559  1.00  0.00     0.322 C 
HETATM    3  N1  UNL     1      24.014   2.463  51.069  1.00  0.00    -0.309 N 
HETATM    4  N2  UNL     1      24.243   4.893  50.782  1.00  0.00    -0.334 N 
HETATM    5  C8  UNL     1      24.077   6.262  51.210  1.00  0.00     0.127 C 
HETATM    6  C9  UNL     1      22.789   6.905  50.887  1.00  0.00     0.020 C 
HETATM    7  C10 UNL     1      22.292   7.156  49.550  1.00  0.00     0.008 C 
HETATM    8  C11 UNL     1      22.814   8.175  48.626  1.00  0.00     0.066 C 
HETATM    9  C12 UNL     1      24.134   8.111  48.045  1.00  0.00     0.061 C 
HETATM   10  C13 UNL     1      25.402   7.843  47.651  1.00  0.00     0.047 C 
HETATM   11 CL1  UNL     1      26.279   8.837  46.441  1.00  0.00    -0.086 Cl
HETATM   12  C14 UNL     1      26.035   6.662  48.327  1.00  0.00     0.120 C 
HETATM   13  C15 UNL     1      27.029   5.790  48.569  1.00  0.00     0.034 C 
HETATM   14 CL2  UNL     1      28.681   5.230  48.227  1.00  0.00    -0.124 Cl
HETATM   15  C16 UNL     1      26.407   4.997  49.639  1.00  0.00     0.041 C 
HETATM   16  C17 UNL     1      24.911   4.980  49.539  1.00  0.00     0.129 C 
HETATM   17  H1  UNL     1      24.472   2.296  50.149  1.00  0.00     0.170 HD
ENDROOT
BRANCH   3  18
HETATM   18  C2  UNL     1      23.585   1.338  51.843  1.00  0.00     0.036 A 
HETATM   19  C3  UNL     1      24.390   0.683  52.751  1.00  0.00     0.029 A 
HETATM   20  C4  UNL     1      23.855  -0.375  53.421  1.00  0.00     0.002 A 
HETATM   21  C5  UNL     1      22.555  -0.761  53.185  1.00  0.00     0.000 A 
HETATM   22  C6  UNL     1      21.745  -0.106  52.274  1.00  0.00     0.002 A 
HETATM   23  C7  UNL     1      22.275   0.969  51.588  1.00  0.00     0.029 A 
ENDBRANCH   3  18
BRANCH   9  24
HETATM   24  O2  UNL     1      24.005   9.258  47.201  1.00  0.00    -0.364 OA
HETATM   25  H15 UNL     1      23.678   9.173  46.259  1.00  0.00     0.217 HD
ENDBRANCH   9  24
TORSDOF 2
ENDMDL
MODEL 7
REMARK VINA RESULT:      -7.4      3.469      5.402
REMARK  2 active torsions:
REMARK  status: ('A' for Active; 'I' for Inactive)
REMARK       I    between atoms: C1_2  and  N1_3 
REMARK       I    between atoms: C1_2  and  N2_10 
REMARK    1  A    between atoms: N1_3  and  C2_4 
REMARK    2  A    between atoms: C12_15  and  O2_16 
ROOT
HETATM    1  O1  UNL     1      25.727   1.923  51.055  1.00  0.00    -0.247 OA
HETATM    2  C1  UNL     1      25.060   1.795  52.088  1.00  0.00     0.322 C 
HETATM    3  N1  UNL     1      25.416   1.502  53.428  1.00  0.00    -0.309 N 
HETATM    4  N2  UNL     1      23.691   2.001  51.750  1.00  0.00    -0.334 N 
HETATM    5  C8  UNL     1      23.246   2.301  50.410  1.00  0.00     0.127 C 
HETATM    6  C9  UNL     1      23.254   3.723  50.013  1.00  0.00     0.020 C 
HETATM    7  C10 UNL     1      22.454   4.765  50.621  1.00  0.00     0.008 C 
HETATM    8  C11 UNL     1      21.000   4.925  50.459  1.00  0.00     0.066 C 
HETATM    9  C12 UNL     1      20.039   3.983  50.980  1.00  0.00     0.061 C 
HETATM   10  C13 UNL     1      19.346   2.962  51.538  1.00  0.00     0.047 C 
HETATM   11 CL1  UNL     1      17.552   2.919  51.603  1.00  0.00    -0.086 Cl
HETATM   12  C14 UNL     1      20.192   1.845  52.075  1.00  0.00     0.120 C 
HETATM   13  C15 UNL     1      20.402   0.661  52.676  1.00  0.00     0.034 C 
HETATM   14 CL2  UNL     1      19.736  -0.790  53.458  1.00  0.00    -0.124 Cl
HETATM   15  C16 UNL     1      21.867   0.584  52.564  1.00  0.00     0.041 C 
HETATM   16  C17 UNL     1      22.506   1.939  52.520  1.00  0.00     0.129 C 
HETATM   17  H1  UNL     1      24.693   1.434  54.173  1.00  0.00     0.170 HD
ENDROOT
BRANCH   3  18
HETATM   18  C2  UNL     1      26.789   1.296  53.775  1.00  0.00     0.036 A 
HETATM   19  C3  UNL     1      27.277   0.116  54.295  1.00  0.00     0.029 A 
HETATM   20  C4  UNL     1      28.607   0.053  54.582  1.00  0.00     0.002 A 
HETATM   21  C5  UNL     1      29.417   1.142  54.354  1.00  0.00     0.000 A 
HETATM   22  C6  UNL     1      28.931   2.328  53.832  1.00  0.00     0.002 A 
HETATM   23  C7  UNL     1      27.584   2.403  53.536  1.00  0.00     0.029 A 
ENDBRANCH   3  18
BRANCH   9  24
HETATM   24  O2  UNL     1      18.866   4.716  50.615  1.00  0.00    -0.364 OA
HETATM   25  H15 UNL     1      18.103   4.271  50.145  1.00  0.00     0.217 HD
ENDBRANCH   9  24
TORSDOF 2
ENDMDL
MODEL 8
REMARK VINA RESULT:      -7.3      3.054      4.942
REMARK  2 active torsions:
REMARK  status: ('A' for Active; 'I' for Inactive)
REMARK       I    between atoms: C1_2  and  N1_3 
REMARK       I    between atoms: C1_2  and  N2_10 
REMARK    1  A    between atoms: N1_3  and  C2_4 
REMARK    2  A    between atoms: C12_15  and  O2_16 
ROOT
HETATM    1  O1  UNL     1      23.514   4.060  49.333  1.00  0.00    -0.247 OA
HETATM    2  C1  UNL     1      22.927   2.982  49.478  1.00  0.00     0.322 C 
HETATM    3  N1  UNL     1      21.950   2.310  48.702  1.00  0.00    -0.309 N 
HETATM    4  N2  UNL     1      23.398   2.389  50.686  1.00  0.00    -0.334 N 
HETATM    5  C8  UNL     1      24.390   3.009  51.534  1.00  0.00     0.127 C 
HETATM    6  C9  UNL     1      25.803   2.749  51.199  1.00  0.00     0.020 C 
HETATM    7  C10 UNL     1      26.443   1.451  51.227  1.00  0.00     0.008 C 
HETATM    8  C11 UNL     1      26.792   0.701  52.444  1.00  0.00     0.066 C 
HETATM    9  C12 UNL     1      25.805   0.153  53.344  1.00  0.00     0.061 C 
HETATM   10  C13 UNL     1      24.709  -0.241  54.034  1.00  0.00     0.047 C 
HETATM   11 CL1  UNL     1      24.798  -1.267  55.504  1.00  0.00    -0.086 Cl
HETATM   12  C14 UNL     1      23.406   0.271  53.494  1.00  0.00     0.120 C 
HETATM   13  C15 UNL     1      22.069   0.409  53.475  1.00  0.00     0.034 C 
HETATM   14 CL2  UNL     1      20.489   0.034  54.198  1.00  0.00    -0.124 Cl
HETATM   15  C16 UNL     1      21.932   1.334  52.340  1.00  0.00     0.041 C 
HETATM   16  C17 UNL     1      23.050   1.192  51.352  1.00  0.00     0.129 C 
HETATM   17  H1  UNL     1      21.569   1.388  48.999  1.00  0.00     0.170 HD
ENDROOT
BRANCH   3  18
HETATM   18  C2  UNL     1      21.473   2.898  47.487  1.00  0.00     0.036 A 
HETATM   19  C3  UNL     1      22.291   3.237  46.431  1.00  0.00     0.029 A 
HETATM   20  C4  UNL     1      21.706   3.791  45.331  1.00  0.00     0.002 A 
HETATM   21  C5  UNL     1      20.345   3.996  45.299  1.00  0.00     0.000 A 
HETATM   22  C6  UNL     1      19.523   3.657  46.359  1.00  0.00     0.002 A 
HETATM   23  C7  UNL     1      20.103   3.094  47.478  1.00  0.00     0.029 A 
ENDBRANCH   3  18
BRANCH   9  24
HETATM   24  O2  UNL     1      26.722  -0.516  54.214  1.00  0.00    -0.364 OA
HETATM   25  H15 UNL     1      26.461  -0.763  55.149  1.00  0.00     0.217 HD
ENDBRANCH   9  24
TORSDOF 2
ENDMDL
MODEL 9
REMARK VINA RESULT:      -7.3      4.126      6.794
REMARK  2 active torsions:
REMARK  status: ('A' for Active; 'I' for Inactive)
REMARK       I    between atoms: C1_2  and  N1_3 
REMARK       I    between atoms: C1_2  and  N2_10 
REMARK    1  A    between atoms: N1_3  and  C2_4 
REMARK    2  A    between atoms: C12_15  and  O2_16 
ROOT
HETATM    1  O1  UNL     1      24.548   2.452  52.773  1.00  0.00    -0.247 OA
HETATM    2  C1  UNL     1      25.294   2.659  51.810  1.00  0.00     0.322 C 
HETATM    3  N1  UNL     1      26.598   2.204  51.493  1.00  0.00    -0.309 N 
HETATM    4  N2  UNL     1      24.614   3.531  50.911  1.00  0.00    -0.334 N 
HETATM    5  C8  UNL     1      23.286   4.040  51.160  1.00  0.00     0.127 C 
HETATM    6  C9  UNL     1      22.159   3.191  50.726  1.00  0.00     0.020 C 
HETATM    7  C10 UNL     1      21.870   2.822  49.356  1.00  0.00     0.008 C 
HETATM    8  C11 UNL     1      21.337   3.726  48.326  1.00  0.00     0.066 C 
HETATM    9  C12 UNL     1      22.082   4.841  47.792  1.00  0.00     0.061 C 
HETATM   10  C13 UNL     1      22.958   5.821  47.467  1.00  0.00     0.047 C 
HETATM   11 CL1  UNL     1      22.646   7.018  46.165  1.00  0.00    -0.086 Cl
HETATM   12  C14 UNL     1      24.205   5.853  48.301  1.00  0.00     0.120 C 
HETATM   13  C15 UNL     1      25.404   6.332  48.675  1.00  0.00     0.034 C 
HETATM   14 CL2  UNL     1      26.709   7.517  48.448  1.00  0.00    -0.124 Cl
HETATM   15  C16 UNL     1      25.676   5.450  49.820  1.00  0.00     0.041 C 
HETATM   16  C17 UNL     1      25.002   4.118  49.684  1.00  0.00     0.129 C 
HETATM   17  H1  UNL     1      27.071   2.497  50.613  1.00  0.00     0.170 HD
ENDROOT
BRANCH   3  18
HETATM   18  C2  UNL     1      27.287   1.326  52.390  1.00  0.00     0.036 A 
HETATM   19  C3  UNL     1      27.101  -0.039  52.416  1.00  0.00     0.029 A 
HETATM   20  C4  UNL     1      27.822  -0.759  53.322  1.00  0.00     0.002 A 
HETATM   21  C5  UNL     1      28.699  -0.123  54.171  1.00  0.00     0.000 A 
HETATM   22  C6  UNL     1      28.887   1.247  54.148  1.00  0.00     0.002 A 
HETATM   23  C7  UNL     1      28.163   1.987  53.234  1.00  0.00     0.029 A 
ENDBRANCH   3  18
BRANCH   9  24
HETATM   24  O2  UNL     1      21.120   5.233  46.808  1.00  0.00    -0.364 OA
HETATM   25  H15 UNL     1      21.334   5.195  45.831  1.00  0.00     0.217 HD
ENDBRANCH   9  24
TORSDOF 2
ENDMDL
