MODEL 1
REMARK VINA RESULT:      -8.5      0.000      0.000
REMARK  5 active torsions:
REMARK  status: ('A' for Active; 'I' for Inactive)
REMARK    1  A    between atoms: N3_13  and  C20_26 
REMARK    2  A    between atoms: N4_16  and  C12_17 
REMARK    3  A    between atoms: C12_17  and  C13_18 
REMARK    4  A    between atoms: C13_18  and  C14_19 
REMARK    5  A    between atoms: C14_19  and  C15_20 
ROOT
HETATM    1 CL1  UNL     1      19.494  -0.889  53.657  1.00  0.00    -0.087 Cl
HETATM    2  C1  UNL     1      21.254  -0.558  53.895  1.00  0.00     0.042 C 
HETATM    3  C2  UNL     1      22.299  -0.968  54.589  1.00  0.00     0.021 C 
HETATM    4  C3  UNL     1      23.104  -1.722  55.492  1.00  0.00    -0.001 C 
HETATM    5  C4  UNL     1      24.373  -1.310  55.707  1.00  0.00     0.003 C 
HETATM    6  C5  UNL     1      25.312  -0.266  55.347  1.00  0.00     0.299 C 
HETATM    7  N1  UNL     1      26.352  -0.570  54.417  1.00  0.00     0.105 NA
HETATM    8  C6  UNL     1      25.799  -0.666  53.065  1.00  0.00     0.417 C 
HETATM    9  N2  UNL     1      26.769  -0.235  52.081  1.00  0.00    -0.272 NA
HETATM   10  C7  UNL     1      26.642   1.009  51.617  1.00  0.00     0.119 C 
HETATM   11  C8  UNL     1      25.641   2.071  51.949  1.00  0.00     0.008 A 
HETATM   12  C9  UNL     1      24.509   1.627  51.116  1.00  0.00     0.299 A 
HETATM   13  N3  UNL     1      23.688   2.532  51.444  1.00  0.00     0.040 N 
HETATM   14  C10 UNL     1      22.368   2.896  51.131  1.00  0.00     0.395 A 
HETATM   15  C11 UNL     1      23.608   2.847  51.632  1.00  0.00     0.367 A 
HETATM   16  N4  UNL     1      22.939   4.309  51.710  1.00  0.00     0.012 N 
HETATM   17  C20 UNL     1      24.772   3.070  52.292  1.00  0.00     0.299 A 
HETATM   18  C21 UNL     1      22.367   1.459  51.097  1.00  0.00     0.372 C 
HETATM   19  N6  UNL     1      21.646   1.344  52.368  1.00  0.00     0.321 N 
HETATM   20  C22 UNL     1      21.627  -0.181  52.521  1.00  0.00     0.366 C 
HETATM   21  H6  UNL     1      27.113   0.144  54.433  1.00  0.00     0.318 HD
HETATM   22  H11 UNL     1      22.122   5.066  51.743  1.00  0.00     0.286 HD
ENDROOT
BRANCH  16  23
HETATM   23  C12 UNL     1      23.873   5.505  52.005  1.00  0.00     0.242 C 
BRANCH  23  24
HETATM   24  C13 UNL     1      23.767   6.360  50.718  1.00  0.00     0.032 C 
BRANCH  24  25
HETATM   25  C14 UNL     1      23.918   5.671  49.426  1.00  0.00     0.042 C 
BRANCH  25  26
HETATM   26  C15 UNL     1      25.425   5.708  49.064  1.00  0.00    -0.041 A 
HETATM   27  C16 UNL     1      25.969   4.475  49.207  1.00  0.00     0.010 A 
HETATM   28  C17 UNL     1      27.319   4.527  48.866  1.00  0.00     0.020 A 
HETATM   29  C18 UNL     1      27.777   5.790  48.475  1.00  0.00     0.116 A 
HETATM   30  N5  UNL     1      27.156   7.013  48.357  1.00  0.00    -0.273 NA
HETATM   31  C19 UNL     1      25.726   6.967  48.710  1.00  0.00     0.123 A 
ENDBRANCH  25  26
ENDBRANCH  24  25
ENDBRANCH  23  24
ENDBRANCH  16  23
TORSDOF 5
ENDMDL
MODEL 2
REMARK VINA RESULT:      -7.9      1.794      2.522
REMARK  5 active torsions:
REMARK  status: ('A' for Active; 'I' for Inactive)
REMARK    1  A    between atoms: N3_13  and  C20_26 
REMARK    2  A    between atoms: N4_16  and  C12_17 
REMARK    3  A    between atoms: C12_17  and  C13_18 
REMARK    4  A    between atoms: C13_18  and  C14_19 
REMARK    5  A    between atoms: C14_19  and  C15_20 
ROOT
HETATM    1 CL1  UNL     1      17.892   0.808  49.519  1.00  0.00    -0.087 Cl
HETATM    2  C1  UNL     1      19.079   0.713  50.877  1.00  0.00     0.042 C 
HETATM    3  C2  UNL     1      19.293   0.093  52.023  1.00  0.00     0.021 C 
HETATM    4  C3  UNL     1      19.122  -0.792  53.128  1.00  0.00    -0.001 C 
HETATM    5  C4  UNL     1      19.987  -0.690  54.162  1.00  0.00     0.003 C 
HETATM    6  C5  UNL     1      21.125   0.077  54.629  1.00  0.00     0.299 C 
HETATM    7  N1  UNL     1      22.423  -0.513  54.563  1.00  0.00     0.105 NA
HETATM    8  C6  UNL     1      22.891  -0.534  53.177  1.00  0.00     0.417 C 
HETATM    9  N2  UNL     1      24.330  -0.396  53.117  1.00  0.00    -0.272 NA
HETATM   10  C7  UNL     1      24.807   0.819  52.842  1.00  0.00     0.119 C 
HETATM   11  C8  UNL     1      24.091   2.106  52.579  1.00  0.00     0.008 A 
HETATM   12  C9  UNL     1      23.724   1.912  51.165  1.00  0.00     0.299 A 
HETATM   13  N3  UNL     1      23.107   3.004  50.995  1.00  0.00     0.040 N 
HETATM   14  C10 UNL     1      22.434   3.662  49.953  1.00  0.00     0.395 A 
HETATM   15  C11 UNL     1      22.992   3.337  51.125  1.00  0.00     0.367 A 
HETATM   16  N4  UNL     1      22.767   4.920  50.936  1.00  0.00     0.012 N 
HETATM   17  C20 UNL     1      23.448   3.301  52.402  1.00  0.00     0.299 A 
HETATM   18  C21 UNL     1      22.151   2.269  49.746  1.00  0.00     0.372 C 
HETATM   19  N6  UNL     1      20.770   2.390  50.222  1.00  0.00     0.321 N 
HETATM   20  C22 UNL     1      20.331   0.924  50.132  1.00  0.00     0.366 C 
HETATM   21  H6  UNL     1      23.115  -0.004  55.157  1.00  0.00     0.318 HD
HETATM   22  H11 UNL     1      22.315   5.852  50.528  1.00  0.00     0.286 HD
ENDROOT
BRANCH  16  23
HETATM   23  C12 UNL     1      23.503   5.865  51.912  1.00  0.00     0.242 C 
BRANCH  23  24
HETATM   24  C13 UNL     1      24.470   6.643  50.986  1.00  0.00     0.032 C 
BRANCH  24  25
HETATM   25  C14 UNL     1      24.413   6.357  49.543  1.00  0.00     0.042 C 
BRANCH  25  26
HETATM   26  C15 UNL     1      25.828   5.889  49.116  1.00  0.00    -0.041 A 
HETATM   27  C16 UNL     1      26.005   4.585  49.441  1.00  0.00     0.010 A 
HETATM   28  C17 UNL     1      27.277   4.181  49.038  1.00  0.00     0.020 A 
HETATM   29  C18 UNL     1      28.041   5.177  48.421  1.00  0.00     0.116 A 
HETATM   30  N5  UNL     1      27.790   6.498  48.126  1.00  0.00    -0.273 NA
HETATM   31  C19 UNL     1      26.445   6.934  48.542  1.00  0.00     0.123 A 
ENDBRANCH  25  26
ENDBRANCH  24  25
ENDBRANCH  23  24
ENDBRANCH  16  23
TORSDOF 5
ENDMDL
MODEL 3
REMARK VINA RESULT:      -7.8      2.819      6.977
REMARK  5 active torsions:
REMARK  status: ('A' for Active; 'I' for Inactive)
REMARK    1  A    between atoms: N3_13  and  C20_26 
REMARK    2  A    between atoms: N4_16  and  C12_17 
REMARK    3  A    between atoms: C12_17  and  C13_18 
REMARK    4  A    between atoms: C13_18  and  C14_19 
REMARK    5  A    between atoms: C14_19  and  C15_20 
ROOT
HETATM    1 CL1  UNL     1      18.575   2.675  51.642  1.00  0.00    -0.087 Cl
HETATM    2  C1  UNL     1      19.723   3.119  50.319  1.00  0.00     0.042 C 
HETATM    3  C2  UNL     1      19.780   3.281  49.010  1.00  0.00     0.021 C 
HETATM    4  C3  UNL     1      19.381   3.356  47.644  1.00  0.00    -0.001 C 
HETATM    5  C4  UNL     1      20.339   3.556  46.713  1.00  0.00     0.003 C 
HETATM    6  C5  UNL     1      21.773   3.713  46.563  1.00  0.00     0.299 C 
HETATM    7  N1  UNL     1      22.296   5.018  46.315  1.00  0.00     0.105 NA
HETATM    8  C6  UNL     1      22.244   5.817  47.540  1.00  0.00     0.417 C 
HETATM    9  N2  UNL     1      23.341   6.759  47.587  1.00  0.00    -0.272 NA
HETATM   10  C7  UNL     1      24.396   6.416  48.329  1.00  0.00     0.119 C 
HETATM   11  C8  UNL     1      24.651   5.187  49.144  1.00  0.00     0.008 A 
HETATM   12  C9  UNL     1      23.885   5.521  50.358  1.00  0.00     0.299 A 
HETATM   13  N3  UNL     1      24.108   4.454  51.002  1.00  0.00     0.040 N 
HETATM   14  C10 UNL     1      23.778   3.911  52.253  1.00  0.00     0.395 A 
HETATM   15  C11 UNL     1      24.278   4.120  51.030  1.00  0.00     0.367 A 
HETATM   16  N4  UNL     1      25.094   3.024  51.881  1.00  0.00     0.012 N 
HETATM   17  C20 UNL     1      24.922   4.041  49.839  1.00  0.00     0.299 A 
HETATM   18  C21 UNL     1      22.616   4.662  51.863  1.00  0.00     0.372 C 
HETATM   19  N6  UNL     1      21.839   3.460  51.546  1.00  0.00     0.321 N 
HETATM   20  C22 UNL     1      20.551   4.109  51.027  1.00  0.00     0.366 C 
HETATM   21  H6  UNL     1      23.278   4.986  45.962  1.00  0.00     0.318 HD
HETATM   22  H11 UNL     1      25.269   2.253  52.665  1.00  0.00     0.286 HD
ENDROOT
BRANCH  16  23
HETATM   23  C12 UNL     1      26.493   2.620  51.365  1.00  0.00     0.242 C 
BRANCH  23  24
HETATM   24  C13 UNL     1      27.037   1.713  52.496  1.00  0.00     0.032 C 
BRANCH  24  25
HETATM   25  C14 UNL     1      26.358   0.427  52.726  1.00  0.00     0.042 C 
BRANCH  25  26
HETATM   26  C15 UNL     1      27.463  -0.640  52.939  1.00  0.00    -0.041 A 
HETATM   27  C16 UNL     1      28.598  -0.051  53.389  1.00  0.00     0.010 A 
HETATM   28  C17 UNL     1      29.574  -1.027  53.585  1.00  0.00     0.020 A 
HETATM   29  C18 UNL     1      29.170  -2.330  53.279  1.00  0.00     0.116 A 
HETATM   30  N5  UNL     1      27.984  -2.856  52.816  1.00  0.00    -0.273 NA
HETATM   31  C19 UNL     1      26.944  -1.833  52.612  1.00  0.00     0.123 A 
ENDBRANCH  25  26
ENDBRANCH  24  25
ENDBRANCH  23  24
ENDBRANCH  16  23
TORSDOF 5
ENDMDL
MODEL 4
REMARK VINA RESULT:      -7.8      3.310      6.944
REMARK  5 active torsions:
REMARK  status: ('A' for Active; 'I' for Inactive)
REMARK    1  A    between atoms: N3_13  and  C20_26 
REMARK    2  A    between atoms: N4_16  and  C12_17 
REMARK    3  A    between atoms: C12_17  and  C13_18 
REMARK    4  A    between atoms: C13_18  and  C14_19 
REMARK    5  A    between atoms: C14_19  and  C15_20 
ROOT
HETATM    1 CL1  UNL     1      22.239   7.493  48.298  1.00  0.00    -0.087 Cl
HETATM    2  C1  UNL     1      21.471   6.145  49.223  1.00  0.00     0.042 C 
HETATM    3  C2  UNL     1      20.293   5.706  49.625  1.00  0.00     0.021 C 
HETATM    4  C3  UNL     1      18.883   5.611  49.810  1.00  0.00    -0.001 C 
HETATM    5  C4  UNL     1      18.414   4.648  50.634  1.00  0.00     0.003 C 
HETATM    6  C5  UNL     1      18.854   3.581  51.512  1.00  0.00     0.299 C 
HETATM    7  N1  UNL     1      18.725   2.231  51.068  1.00  0.00     0.105 NA
HETATM    8  C6  UNL     1      19.741   1.941  50.055  1.00  0.00     0.417 C 
HETATM    9  N2  UNL     1      20.150   0.554  50.119  1.00  0.00    -0.272 NA
HETATM   10  C7  UNL     1      21.288   0.292  50.765  1.00  0.00     0.119 C 
HETATM   11  C8  UNL     1      22.244   1.210  51.459  1.00  0.00     0.008 A 
HETATM   12  C9  UNL     1      22.999   1.718  50.299  1.00  0.00     0.299 A 
HETATM   13  N3  UNL     1      23.772   2.500  50.926  1.00  0.00     0.040 N 
HETATM   14  C10 UNL     1      24.821   3.383  50.623  1.00  0.00     0.395 A 
HETATM   15  C11 UNL     1      23.898   2.644  51.249  1.00  0.00     0.367 A 
HETATM   16  N4  UNL     1      25.106   3.112  52.205  1.00  0.00     0.012 N 
HETATM   17  C20 UNL     1      23.090   2.032  52.151  1.00  0.00     0.299 A 
HETATM   18  C21 UNL     1      23.921   3.489  49.507  1.00  0.00     0.372 C 
HETATM   19  N6  UNL     1      23.423   4.804  49.923  1.00  0.00     0.321 N 
HETATM   20  C22 UNL     1      22.363   5.038  48.841  1.00  0.00     0.366 C 
HETATM   21  H6  UNL     1      18.811   1.550  51.854  1.00  0.00     0.318 HD
HETATM   22  H11 UNL     1      25.959   3.739  52.552  1.00  0.00     0.286 HD
ENDROOT
BRANCH  16  23
HETATM   23  C12 UNL     1      25.250   2.403  53.570  1.00  0.00     0.242 C 
BRANCH  23  24
HETATM   24  C13 UNL     1      26.440   1.439  53.341  1.00  0.00     0.032 C 
BRANCH  24  25
HETATM   25  C14 UNL     1      26.154   0.135  52.722  1.00  0.00     0.042 C 
BRANCH  25  26
HETATM   26  C15 UNL     1      27.395  -0.765  52.961  1.00  0.00    -0.041 A 
HETATM   27  C16 UNL     1      28.417  -0.025  53.456  1.00  0.00     0.010 A 
HETATM   28  C17 UNL     1      29.517  -0.853  53.675  1.00  0.00     0.020 A 
HETATM   29  C18 UNL     1      29.315  -2.197  53.343  1.00  0.00     0.116 A 
HETATM   30  N5  UNL     1      28.234  -2.881  52.835  1.00  0.00    -0.273 NA
HETATM   31  C19 UNL     1      27.064  -2.016  52.605  1.00  0.00     0.123 A 
ENDBRANCH  25  26
ENDBRANCH  24  25
ENDBRANCH  23  24
ENDBRANCH  16  23
TORSDOF 5
ENDMDL
MODEL 5
REMARK VINA RESULT:      -7.6      1.665      2.335
REMARK  5 active torsions:
REMARK  status: ('A' for Active; 'I' for Inactive)
REMARK    1  A    between atoms: N3_13  and  C20_26 
REMARK    2  A    between atoms: N4_16  and  C12_17 
REMARK    3  A    between atoms: C12_17  and  C13_18 
REMARK    4  A    between atoms: C13_18  and  C14_19 
REMARK    5  A    between atoms: C14_19  and  C15_20 
ROOT
HETATM    1 CL1  UNL     1      21.756  -1.641  54.194  1.00  0.00    -0.087 Cl
HETATM    2  C1  UNL     1      23.111  -0.484  53.892  1.00  0.00     0.042 C 
HETATM    3  C2  UNL     1      24.381  -0.278  54.189  1.00  0.00     0.021 C 
HETATM    4  C3  UNL     1      25.685  -0.469  54.730  1.00  0.00    -0.001 C 
HETATM    5  C4  UNL     1      26.591   0.520  54.568  1.00  0.00     0.003 C 
HETATM    6  C5  UNL     1      26.743   1.852  54.015  1.00  0.00     0.299 C 
HETATM    7  N1  UNL     1      27.451   2.006  52.785  1.00  0.00     0.105 NA
HETATM    8  C6  UNL     1      26.624   1.538  51.672  1.00  0.00     0.417 C 
HETATM    9  N2  UNL     1      26.902   2.295  50.470  1.00  0.00    -0.272 NA
HETATM   10  C7  UNL     1      26.052   3.279  50.169  1.00  0.00     0.119 C 
HETATM   11  C8  UNL     1      24.824   3.752  50.881  1.00  0.00     0.008 A 
HETATM   12  C9  UNL     1      23.853   2.747  50.413  1.00  0.00     0.299 A 
HETATM   13  N3  UNL     1      22.845   3.169  51.052  1.00  0.00     0.040 N 
HETATM   14  C10 UNL     1      21.493   2.824  51.200  1.00  0.00     0.395 A 
HETATM   15  C11 UNL     1      22.687   3.422  51.281  1.00  0.00     0.367 A 
HETATM   16  N4  UNL     1      21.458   4.381  51.680  1.00  0.00     0.012 N 
HETATM   17  C20 UNL     1      23.737   4.234  51.557  1.00  0.00     0.299 A 
HETATM   18  C21 UNL     1      22.176   1.568  51.055  1.00  0.00     0.372 C 
HETATM   19  N6  UNL     1      22.038   1.230  52.475  1.00  0.00     0.321 N 
HETATM   20  C22 UNL     1      22.806  -0.096  52.505  1.00  0.00     0.366 C 
HETATM   21  H6  UNL     1      27.734   2.997  52.617  1.00  0.00     0.318 HD
HETATM   22  H11 UNL     1      20.434   4.651  52.027  1.00  0.00     0.286 HD
ENDROOT
BRANCH  16  23
HETATM   23  C12 UNL     1      21.736   5.899  51.760  1.00  0.00     0.242 C 
BRANCH  23  24
HETATM   24  C13 UNL     1      21.335   6.405  50.353  1.00  0.00     0.032 C 
BRANCH  24  25
HETATM   25  C14 UNL     1      21.924   7.672  49.889  1.00  0.00     0.042 C 
BRANCH  25  26
HETATM   26  C15 UNL     1      23.424   7.401  49.606  1.00  0.00    -0.041 A 
HETATM   27  C16 UNL     1      23.553   6.520  48.584  1.00  0.00     0.010 A 
HETATM   28  C17 UNL     1      24.907   6.299  48.337  1.00  0.00     0.020 A 
HETATM   29  C18 UNL     1      25.778   7.008  49.171  1.00  0.00     0.116 A 
HETATM   30  N5  UNL     1      25.569   7.894  50.204  1.00  0.00    -0.273 NA
HETATM   31  C19 UNL     1      24.140   8.139  50.468  1.00  0.00     0.123 A 
ENDBRANCH  25  26
ENDBRANCH  24  25
ENDBRANCH  23  24
ENDBRANCH  16  23
TORSDOF 5
ENDMDL
MODEL 6
REMARK VINA RESULT:      -7.6      3.494      7.801
REMARK  5 active torsions:
REMARK  status: ('A' for Active; 'I' for Inactive)
REMARK    1  A    between atoms: N3_13  and  C20_26 
REMARK    2  A    between atoms: N4_16  and  C12_17 
REMARK    3  A    between atoms: C12_17  and  C13_18 
REMARK    4  A    between atoms: C13_18  and  C14_19 
REMARK    5  A    between atoms: C14_19  and  C15_20 
ROOT
HETATM    1 CL1  UNL     1      26.518   8.862  49.145  1.00  0.00    -0.087 Cl
HETATM    2  C1  UNL     1      24.937   8.015  49.359  1.00  0.00     0.042 C 
HETATM    3  C2  UNL     1      23.635   8.224  49.303  1.00  0.00     0.021 C 
HETATM    4  C3  UNL     1      22.384   8.879  49.111  1.00  0.00    -0.001 C 
HETATM    5  C4  UNL     1      21.258   8.204  49.432  1.00  0.00     0.003 C 
HETATM    6  C5  UNL     1      20.799   6.942  49.980  1.00  0.00     0.299 C 
HETATM    7  N1  UNL     1      20.245   5.971  49.092  1.00  0.00     0.105 NA
HETATM    8  C6  UNL     1      21.312   5.347  48.309  1.00  0.00     0.417 C 
HETATM    9  N2  UNL     1      20.986   3.972  47.999  1.00  0.00    -0.272 NA
HETATM   10  C7  UNL     1      21.544   3.034  48.766  1.00  0.00     0.119 C 
HETATM   11  C8  UNL     1      22.475   3.160  49.931  1.00  0.00     0.008 A 
HETATM   12  C9  UNL     1      23.750   3.360  49.218  1.00  0.00     0.299 A 
HETATM   13  N3  UNL     1      24.497   3.484  50.233  1.00  0.00     0.040 N 
HETATM   14  C10 UNL     1      25.860   3.694  50.496  1.00  0.00     0.395 A 
HETATM   15  C11 UNL     1      24.544   3.482  50.606  1.00  0.00     0.367 A 
HETATM   16  N4  UNL     1      25.376   3.058  51.917  1.00  0.00     0.012 N 
HETATM   17  C20 UNL     1      23.275   3.267  51.035  1.00  0.00     0.299 A 
HETATM   18  C21 UNL     1      25.599   4.452  49.303  1.00  0.00     0.372 C 
HETATM   19  N6  UNL     1      25.641   5.737  50.006  1.00  0.00     0.321 N 
HETATM   20  C22 UNL     1      25.296   6.681  48.849  1.00  0.00     0.366 C 
HETATM   21  H6  UNL     1      19.710   5.234  49.603  1.00  0.00     0.318 HD
HETATM   22  H11 UNL     1      26.221   3.057  52.642  1.00  0.00     0.286 HD
ENDROOT
BRANCH  16  23
HETATM   23  C12 UNL     1      24.658   2.172  52.960  1.00  0.00     0.242 C 
BRANCH  23  24
HETATM   24  C13 UNL     1      25.778   1.215  53.438  1.00  0.00     0.032 C 
BRANCH  24  25
HETATM   25  C14 UNL     1      26.107   0.065  52.580  1.00  0.00     0.042 C 
BRANCH  25  26
HETATM   26  C15 UNL     1      27.529  -0.409  52.979  1.00  0.00    -0.041 A 
HETATM   27  C16 UNL     1      27.643  -1.746  52.791  1.00  0.00     0.010 A 
HETATM   28  C17 UNL     1      28.930  -2.150  53.144  1.00  0.00     0.020 A 
HETATM   29  C18 UNL     1      29.765  -1.121  53.592  1.00  0.00     0.116 A 
HETATM   30  N5  UNL     1      29.573   0.232  53.760  1.00  0.00    -0.273 NA
HETATM   31  C19 UNL     1      28.217   0.669  53.385  1.00  0.00     0.123 A 
ENDBRANCH  25  26
ENDBRANCH  24  25
ENDBRANCH  23  24
ENDBRANCH  16  23
TORSDOF 5
ENDMDL
MODEL 7
REMARK VINA RESULT:      -7.4      3.138      7.771
REMARK  5 active torsions:
REMARK  status: ('A' for Active; 'I' for Inactive)
REMARK    1  A    between atoms: N3_13  and  C20_26 
REMARK    2  A    between atoms: N4_16  and  C12_17 
REMARK    3  A    between atoms: C12_17  and  C13_18 
REMARK    4  A    between atoms: C13_18  and  C14_19 
REMARK    5  A    between atoms: C14_19  and  C15_20 
ROOT
HETATM    1 CL1  UNL     1      26.311   3.160  49.532  1.00  0.00    -0.087 Cl
HETATM    2  C1  UNL     1      24.744   4.016  49.806  1.00  0.00     0.042 C 
HETATM    3  C2  UNL     1      24.252   5.205  50.102  1.00  0.00     0.021 C 
HETATM    4  C3  UNL     1      24.182   6.597  50.401  1.00  0.00    -0.001 C 
HETATM    5  C4  UNL     1      22.978   7.116  50.730  1.00  0.00     0.003 C 
HETATM    6  C5  UNL     1      21.592   6.745  50.939  1.00  0.00     0.299 C 
HETATM    7  N1  UNL     1      20.635   7.077  49.933  1.00  0.00     0.105 NA
HETATM    8  C6  UNL     1      20.794   6.188  48.781  1.00  0.00     0.417 C 
HETATM    9  N2  UNL     1      19.522   5.953  48.133  1.00  0.00    -0.272 NA
HETATM   10  C7  UNL     1      18.900   4.809  48.426  1.00  0.00     0.119 C 
HETATM   11  C8  UNL     1      19.300   3.694  49.340  1.00  0.00     0.008 A 
HETATM   12  C9  UNL     1      20.247   2.975  48.469  1.00  0.00     0.299 A 
HETATM   13  N3  UNL     1      20.573   2.063  49.284  1.00  0.00     0.040 N 
HETATM   14  C10 UNL     1      21.414   0.939  49.298  1.00  0.00     0.395 A 
HETATM   15  C11 UNL     1      20.534   1.895  49.617  1.00  0.00     0.367 A 
HETATM   16  N4  UNL     1      20.397   0.567  50.516  1.00  0.00     0.012 N 
HETATM   17  C20 UNL     1      19.625   2.700  50.221  1.00  0.00     0.299 A 
HETATM   18  C21 UNL     1      22.109   1.904  48.490  1.00  0.00     0.372 C 
HETATM   19  N6  UNL     1      23.093   2.198  49.535  1.00  0.00     0.321 N 
HETATM   20  C22 UNL     1      23.895   3.303  48.837  1.00  0.00     0.366 C 
HETATM   21  H6  UNL     1      19.655   7.015  50.288  1.00  0.00     0.318 HD
HETATM   22  H11 UNL     1      20.716  -0.383  51.003  1.00  0.00     0.286 HD
ENDROOT
BRANCH  16  23
HETATM   23  C12 UNL     1      19.110   0.405  51.356  1.00  0.00     0.242 C 
BRANCH  23  24
HETATM   24  C13 UNL     1      19.650   0.032  52.759  1.00  0.00     0.032 C 
BRANCH  24  25
HETATM   25  C14 UNL     1      20.549   0.990  53.422  1.00  0.00     0.042 C 
BRANCH  25  26
HETATM   26  C15 UNL     1      21.802   0.199  53.877  1.00  0.00    -0.041 A 
HETATM   27  C16 UNL     1      22.868   0.531  53.108  1.00  0.00     0.010 A 
HETATM   28  C17 UNL     1      23.985  -0.181  53.541  1.00  0.00     0.020 A 
HETATM   29  C18 UNL     1      23.752  -1.039  54.620  1.00  0.00     0.116 A 
HETATM   30  N5  UNL     1      22.625  -1.329  55.357  1.00  0.00    -0.273 NA
HETATM   31  C19 UNL     1      21.440  -0.576  54.911  1.00  0.00     0.123 A 
ENDBRANCH  25  26
ENDBRANCH  24  25
ENDBRANCH  23  24
ENDBRANCH  16  23
TORSDOF 5
ENDMDL
MODEL 8
REMARK VINA RESULT:      -7.4      3.333      7.883
REMARK  5 active torsions:
REMARK  status: ('A' for Active; 'I' for Inactive)
REMARK    1  A    between atoms: N3_13  and  C20_26 
REMARK    2  A    between atoms: N4_16  and  C12_17 
REMARK    3  A    between atoms: C12_17  and  C13_18 
REMARK    4  A    between atoms: C13_18  and  C14_19 
REMARK    5  A    between atoms: C14_19  and  C15_20 
ROOT
HETATM    1 CL1  UNL     1      23.319   8.344  49.355  1.00  0.00    -0.087 Cl
HETATM    2  C1  UNL     1      24.045   6.699  49.537  1.00  0.00     0.042 C 
HETATM    3  C2  UNL     1      25.182   6.047  49.378  1.00  0.00     0.021 C 
HETATM    4  C3  UNL     1      26.552   5.780  49.091  1.00  0.00    -0.001 C 
HETATM    5  C4  UNL     1      26.968   4.494  49.120  1.00  0.00     0.003 C 
HETATM    6  C5  UNL     1      26.488   3.142  49.330  1.00  0.00     0.299 C 
HETATM    7  N1  UNL     1      26.786   2.493  50.566  1.00  0.00     0.105 NA
HETATM    8  C6  UNL     1      25.956   3.051  51.634  1.00  0.00     0.417 C 
HETATM    9  N2  UNL     1      25.652   2.044  52.629  1.00  0.00    -0.272 NA
HETATM   10  C7  UNL     1      24.455   1.460  52.546  1.00  0.00     0.119 C 
HETATM   11  C8  UNL     1      23.339   1.669  51.573  1.00  0.00     0.008 A 
HETATM   12  C9  UNL     1      22.726   2.883  52.141  1.00  0.00     0.299 A 
HETATM   13  N3  UNL     1      21.810   3.033  51.281  1.00  0.00     0.040 N 
HETATM   14  C10 UNL     1      20.752   3.923  51.039  1.00  0.00     0.395 A 
HETATM   15  C11 UNL     1      21.627   2.913  50.975  1.00  0.00     0.367 A 
HETATM   16  N4  UNL     1      20.258   2.631  50.176  1.00  0.00     0.012 N 
HETATM   17  C20 UNL     1      22.338   1.805  50.650  1.00  0.00     0.299 A 
HETATM   18  C21 UNL     1      21.795   4.740  51.595  1.00  0.00     0.372 C 
HETATM   19  N6  UNL     1      22.122   5.353  50.304  1.00  0.00     0.321 N 
HETATM   20  C22 UNL     1      23.309   6.229  50.721  1.00  0.00     0.366 C 
HETATM   21  H6  UNL     1      26.638   1.461  50.512  1.00  0.00     0.318 HD
HETATM   22  H11 UNL     1      19.317   2.873  49.632  1.00  0.00     0.286 HD
ENDROOT
BRANCH  16  23
HETATM   23  C12 UNL     1      19.969   1.174  49.750  1.00  0.00     0.242 C 
BRANCH  23  24
HETATM   24  C13 UNL     1      18.745   0.790  50.617  1.00  0.00     0.032 C 
BRANCH  24  25
HETATM   25  C14 UNL     1      18.981   0.499  52.040  1.00  0.00     0.042 C 
BRANCH  25  26
HETATM   26  C15 UNL     1      18.062  -0.691  52.420  1.00  0.00    -0.041 A 
HETATM   27  C16 UNL     1      18.690  -1.500  53.308  1.00  0.00     0.010 A 
HETATM   28  C17 UNL     1      17.844  -2.555  53.645  1.00  0.00     0.020 A 
HETATM   29  C18 UNL     1      16.598  -2.534  53.010  1.00  0.00     0.116 A 
HETATM   30  N5  UNL     1      16.026  -1.669  52.104  1.00  0.00    -0.273 NA
HETATM   31  C19 UNL     1      16.910  -0.546  51.746  1.00  0.00     0.123 A 
ENDBRANCH  25  26
ENDBRANCH  24  25
ENDBRANCH  23  24
ENDBRANCH  16  23
TORSDOF 5
ENDMDL
MODEL 9
REMARK VINA RESULT:      -7.2      6.265     11.790
REMARK  5 active torsions:
REMARK  status: ('A' for Active; 'I' for Inactive)
REMARK    1  A    between atoms: N3_13  and  C20_26 
REMARK    2  A    between atoms: N4_16  and  C12_17 
REMARK    3  A    between atoms: C12_17  and  C13_18 
REMARK    4  A    between atoms: C13_18  and  C14_19 
REMARK    5  A    between atoms: C14_19  and  C15_20 
ROOT
HETATM    1 CL1  UNL     1      29.951  13.124  46.216  1.00  0.00    -0.087 Cl
HETATM    2  C1  UNL     1      31.115  11.748  46.086  1.00  0.00     0.042 C 
HETATM    3  C2  UNL     1      32.206  11.372  45.445  1.00  0.00     0.021 C 
HETATM    4  C3  UNL     1      33.334  11.404  44.574  1.00  0.00    -0.001 C 
HETATM    5  C4  UNL     1      34.065  10.275  44.441  1.00  0.00     0.003 C 
HETATM    6  C5  UNL     1      34.123   8.893  44.876  1.00  0.00     0.299 C 
HETATM    7  N1  UNL     1      35.093   8.524  45.857  1.00  0.00     0.105 NA
HETATM    8  C6  UNL     1      34.682   9.017  47.173  1.00  0.00     0.417 C 
HETATM    9  N2  UNL     1      35.131   8.124  48.220  1.00  0.00    -0.272 NA
HETATM   10  C7  UNL     1      34.233   7.263  48.702  1.00  0.00     0.119 C 
HETATM   11  C8  UNL     1      32.798   7.051  48.336  1.00  0.00     0.008 A 
HETATM   12  C9  UNL     1      32.175   8.152  49.093  1.00  0.00     0.299 A 
HETATM   13  N3  UNL     1      30.977   7.949  48.738  1.00  0.00     0.040 N 
HETATM   14  C10 UNL     1      29.714   8.512  48.981  1.00  0.00     0.395 A 
HETATM   15  C11 UNL     1      30.722   7.745  48.551  1.00  0.00     0.367 A 
HETATM   16  N4  UNL     1      29.284   7.027  48.466  1.00  0.00     0.012 N 
HETATM   17  C20 UNL     1      31.505   6.805  47.964  1.00  0.00     0.299 A 
HETATM   18  C21 UNL     1      30.619   9.629  48.985  1.00  0.00     0.372 C 
HETATM   19  N6  UNL     1      30.173  10.106  47.673  1.00  0.00     0.321 N 
HETATM   20  C22 UNL     1      31.124  11.293  47.487  1.00  0.00     0.366 C 
HETATM   21  H6  UNL     1      35.233   7.490  45.900  1.00  0.00     0.318 HD
HETATM   22  H11 UNL     1      28.175   6.952  48.402  1.00  0.00     0.286 HD
ENDROOT
BRANCH  16  23
HETATM   23  C12 UNL     1      29.263   5.497  48.250  1.00  0.00     0.242 C 
BRANCH  23  24
HETATM   24  C13 UNL     1      27.804   5.113  48.596  1.00  0.00     0.032 C 
BRANCH  24  25
HETATM   25  C14 UNL     1      26.797   6.187  48.601  1.00  0.00     0.042 C 
BRANCH  25  26
HETATM   26  C15 UNL     1      25.725   5.801  49.653  1.00  0.00    -0.041 A 
HETATM   27  C16 UNL     1      25.177   6.919  50.190  1.00  0.00     0.010 A 
HETATM   28  C17 UNL     1      24.208   6.552  51.123  1.00  0.00     0.020 A 
HETATM   29  C18 UNL     1      24.040   5.172  51.281  1.00  0.00     0.116 A 
HETATM   30  N5  UNL     1      24.645   4.084  50.694  1.00  0.00    -0.273 NA
HETATM   31  C19 UNL     1      25.667   4.461  49.702  1.00  0.00     0.123 A 
ENDBRANCH  25  26
ENDBRANCH  24  25
ENDBRANCH  23  24
ENDBRANCH  16  23
TORSDOF 5
ENDMDL
