MODEL 1
REMARK VINA RESULT:      -8.9      0.000      0.000
REMARK  5 active torsions:
REMARK  status: ('A' for Active; 'I' for Inactive)
REMARK    1  A    between atoms: O1_2  and  C2_3 
REMARK    2  A    between atoms: C6_7  and  C7_8 
REMARK    3  A    between atoms: C8_9  and  C9_10 
REMARK       I    between atoms: C9_10  and  N1_12 
REMARK    4  A    between atoms: C15_18  and  N2_19 
REMARK    5  A    between atoms: N2_19  and  C16_20 
ROOT
HETATM    1  C9  UNL     1      25.796   2.400  51.986  1.00  0.00     0.248 C 
HETATM    2  O2  UNL     1      26.581   1.912  51.171  1.00  0.00    -0.268 OA
HETATM    3  N1  UNL     1      24.892   3.073  51.121  1.00  0.00    -0.308 N 
HETATM    4  C10 UNL     1      24.841   3.198  49.704  1.00  0.00     0.104 C 
HETATM    5  C11 UNL     1      23.741   3.770  49.119  1.00  0.00    -0.023 C 
HETATM    6  C12 UNL     1      22.999   5.059  49.491  1.00  0.00     0.008 C 
HETATM    7  C13 UNL     1      23.877   5.116  50.544  1.00  0.00     0.007 C 
HETATM    8  C14 UNL     1      23.695   3.868  51.474  1.00  0.00     0.184 C 
HETATM    9  C15 UNL     1      22.489   3.068  50.964  1.00  0.00     0.126 C 
HETATM   10  N3  UNL     1      21.977   2.452  49.821  1.00  0.00    -0.270 NA
HETATM   11  C23 UNL     1      22.701   2.886  48.469  1.00  0.00     0.191 C 
ENDROOT
BRANCH   1  12
HETATM   12  C8  UNL     1      25.581   2.457  53.415  1.00  0.00     0.072 C 
HETATM   13  C7  UNL     1      25.852   1.482  54.264  1.00  0.00    -0.006 C 
BRANCH  13  14
HETATM   14  C6  UNL     1      26.365   0.112  54.471  1.00  0.00     0.088 A 
HETATM   15  C2  UNL     1      27.834   0.029  54.240  1.00  0.00     0.057 A 
HETATM   16  C3  UNL     1      28.134  -0.855  53.282  1.00  0.00     0.033 A 
HETATM   17  C4  UNL     1      26.863  -1.416  52.816  1.00  0.00    -0.001 A 
HETATM   18  C5  UNL     1      25.854  -0.867  53.492  1.00  0.00    -0.011 A 
BRANCH  15  19
HETATM   19  O1  UNL     1      28.708   0.832  54.999  1.00  0.00    -0.359 OA
HETATM   20  C1  UNL     1      29.410   1.916  54.409  1.00  0.00     0.209 C 
ENDBRANCH  15  19
ENDBRANCH  13  14
ENDBRANCH   1  12
BRANCH   9  21
HETATM   21  N2  UNL     1      21.521   2.843  52.046  1.00  0.00    -0.342 N 
HETATM   22  H14 UNL     1      20.962   3.635  52.438  1.00  0.00     0.167 HD
BRANCH  21  23
HETATM   23  C16 UNL     1      21.301   1.534  52.610  1.00  0.00     0.040 A 
HETATM   24  C17 UNL     1      22.382   0.936  53.190  1.00  0.00     0.030 A 
HETATM   25  C18 UNL     1      22.178  -0.324  53.734  1.00  0.00     0.004 A 
HETATM   26  C19 UNL     1      20.937  -0.951  53.693  1.00  0.00     0.020 A 
HETATM   27  C20 UNL     1      19.888  -0.291  53.092  1.00  0.00     0.019 A 
HETATM   28 BR1  UNL     1      18.139  -1.045  52.974  1.00  0.00    -0.051 Br
HETATM   29  C21 UNL     1      20.040   0.965  52.536  1.00  0.00    -0.018 A 
HETATM   30  C22 UNL     1      18.967   1.752  51.867  1.00  0.00     0.052 C 
ENDBRANCH  21  23
ENDBRANCH   9  21
TORSDOF 5
ENDMDL
MODEL 2
REMARK VINA RESULT:      -8.2      2.809      4.956
REMARK  5 active torsions:
REMARK  status: ('A' for Active; 'I' for Inactive)
REMARK    1  A    between atoms: O1_2  and  C2_3 
REMARK    2  A    between atoms: C6_7  and  C7_8 
REMARK    3  A    between atoms: C8_9  and  C9_10 
REMARK       I    between atoms: C9_10  and  N1_12 
REMARK    4  A    between atoms: C15_18  and  N2_19 
REMARK    5  A    between atoms: N2_19  and  C16_20 
ROOT
HETATM    1  C9  UNL     1      24.486   0.884  52.873  1.00  0.00     0.248 C 
HETATM    2  O2  UNL     1      24.323   1.120  54.071  1.00  0.00    -0.268 OA
HETATM    3  N1  UNL     1      23.184   1.141  52.367  1.00  0.00    -0.308 N 
HETATM    4  C10 UNL     1      21.978   1.554  52.999  1.00  0.00     0.104 C 
HETATM    5  C11 UNL     1      20.897   1.897  52.229  1.00  0.00    -0.023 C 
HETATM    6  C12 UNL     1      20.288   1.170  51.025  1.00  0.00     0.008 C 
HETATM    7  C13 UNL     1      21.338   0.298  51.176  1.00  0.00     0.007 C 
HETATM    8  C14 UNL     1      22.700   1.044  50.971  1.00  0.00     0.184 C 
HETATM    9  C15 UNL     1      22.393   2.481  50.529  1.00  0.00     0.126 C 
HETATM   10  N3  UNL     1      21.677   3.620  50.900  1.00  0.00    -0.270 NA
HETATM   11  C23 UNL     1      20.571   3.359  52.017  1.00  0.00     0.191 C 
ENDROOT
BRANCH   1  12
HETATM   12  C8  UNL     1      25.529   0.468  51.961  1.00  0.00     0.072 C 
HETATM   13  C7  UNL     1      26.618  -0.198  52.305  1.00  0.00    -0.006 C 
BRANCH  13  14
HETATM   14  C6  UNL     1      27.409  -0.828  53.382  1.00  0.00     0.088 A 
HETATM   15  C2  UNL     1      28.523   0.049  53.837  1.00  0.00     0.057 A 
HETATM   16  C3  UNL     1      29.711  -0.549  53.697  1.00  0.00     0.033 A 
HETATM   17  C4  UNL     1      29.449  -1.876  53.134  1.00  0.00    -0.001 A 
HETATM   18  C5  UNL     1      28.137  -2.037  52.954  1.00  0.00    -0.011 A 
BRANCH  15  19
HETATM   19  O1  UNL     1      28.242   1.336  54.336  1.00  0.00    -0.359 OA
HETATM   20  C1  UNL     1      28.722   2.501  53.682  1.00  0.00     0.209 C 
ENDBRANCH  15  19
ENDBRANCH  13  14
ENDBRANCH   1  12
BRANCH   9  21
HETATM   21  N2  UNL     1      23.104   2.803  49.284  1.00  0.00    -0.342 N 
HETATM   22  H14 UNL     1      22.816   2.373  48.376  1.00  0.00     0.167 HD
BRANCH  21  23
HETATM   23  C16 UNL     1      24.218   3.719  49.260  1.00  0.00     0.040 A 
HETATM   24  C17 UNL     1      25.374   3.279  49.838  1.00  0.00     0.030 A 
HETATM   25  C18 UNL     1      26.450   4.155  49.818  1.00  0.00     0.004 A 
HETATM   26  C19 UNL     1      26.362   5.417  49.241  1.00  0.00     0.020 A 
HETATM   27  C20 UNL     1      25.166   5.797  48.675  1.00  0.00     0.019 A 
HETATM   28 BR1  UNL     1      24.920   7.501  47.852  1.00  0.00    -0.051 Br
HETATM   29  C21 UNL     1      24.065   4.962  48.669  1.00  0.00    -0.018 A 
HETATM   30  C22 UNL     1      22.734   5.287  48.083  1.00  0.00     0.052 C 
ENDBRANCH  21  23
ENDBRANCH   9  21
TORSDOF 5
ENDMDL
MODEL 3
REMARK VINA RESULT:      -8.0      4.648      7.236
REMARK  5 active torsions:
REMARK  status: ('A' for Active; 'I' for Inactive)
REMARK    1  A    between atoms: O1_2  and  C2_3 
REMARK    2  A    between atoms: C6_7  and  C7_8 
REMARK    3  A    between atoms: C8_9  and  C9_10 
REMARK       I    between atoms: C9_10  and  N1_12 
REMARK    4  A    between atoms: C15_18  and  N2_19 
REMARK    5  A    between atoms: N2_19  and  C16_20 
ROOT
HETATM    1  C9  UNL     1      24.947   3.209  51.431  1.00  0.00     0.248 C 
HETATM    2  O2  UNL     1      24.193   3.268  52.404  1.00  0.00    -0.268 OA
HETATM    3  N1  UNL     1      24.557   4.371  50.715  1.00  0.00    -0.308 N 
HETATM    4  C10 UNL     1      23.579   5.371  50.977  1.00  0.00     0.104 C 
HETATM    5  C11 UNL     1      23.535   6.493  50.190  1.00  0.00    -0.023 C 
HETATM    6  C12 UNL     1      23.584   6.613  48.662  1.00  0.00     0.008 C 
HETATM    7  C13 UNL     1      23.762   5.252  48.683  1.00  0.00     0.007 C 
HETATM    8  C14 UNL     1      25.089   4.887  49.433  1.00  0.00     0.184 C 
HETATM    9  C15 UNL     1      25.817   6.194  49.773  1.00  0.00     0.126 C 
HETATM   10  N3  UNL     1      25.640   7.422  50.414  1.00  0.00    -0.270 NA
HETATM   11  C23 UNL     1      24.117   7.788  50.709  1.00  0.00     0.191 C 
ENDROOT
BRANCH   1  12
HETATM   12  C8  UNL     1      25.996   2.368  50.898  1.00  0.00     0.072 C 
HETATM   13  C7  UNL     1      26.462   1.275  51.475  1.00  0.00    -0.006 C 
BRANCH  13  14
HETATM   14  C6  UNL     1      26.399   0.343  52.620  1.00  0.00     0.088 A 
HETATM   15  C2  UNL     1      27.559   0.513  53.538  1.00  0.00     0.057 A 
HETATM   16  C3  UNL     1      28.254  -0.622  53.671  1.00  0.00     0.033 A 
HETATM   17  C4  UNL     1      27.585  -1.624  52.838  1.00  0.00    -0.001 A 
HETATM   18  C5  UNL     1      26.527  -1.076  52.238  1.00  0.00    -0.011 A 
BRANCH  15  19
HETATM   19  O1  UNL     1      27.800   1.765  54.137  1.00  0.00    -0.359 OA
HETATM   20  C1  UNL     1      28.999   2.483  53.886  1.00  0.00     0.209 C 
ENDBRANCH  15  19
ENDBRANCH  13  14
ENDBRANCH   1  12
BRANCH   9  21
HETATM   21  N2  UNL     1      27.197   6.164  49.270  1.00  0.00    -0.342 N 
HETATM   22  H14 UNL     1      27.928   5.586  49.743  1.00  0.00     0.167 HD
BRANCH  21  23
HETATM   23  C16 UNL     1      27.600   6.924  48.112  1.00  0.00     0.040 A 
HETATM   24  C17 UNL     1      26.622   7.651  47.496  1.00  0.00     0.030 A 
HETATM   25  C18 UNL     1      27.003   8.384  46.380  1.00  0.00     0.004 A 
HETATM   26  C19 UNL     1      28.311   8.382  45.909  1.00  0.00     0.020 A 
HETATM   27  C20 UNL     1      29.248   7.626  46.578  1.00  0.00     0.019 A 
HETATM   28 BR1  UNL     1      31.074   7.541  46.030  1.00  0.00    -0.051 Br
HETATM   29  C21 UNL     1      28.919   6.879  47.694  1.00  0.00    -0.018 A 
HETATM   30  C22 UNL     1      29.862   6.033  48.478  1.00  0.00     0.052 C 
ENDBRANCH  21  23
ENDBRANCH   9  21
TORSDOF 5
ENDMDL
MODEL 4
REMARK VINA RESULT:      -8.0      3.651      6.055
REMARK  5 active torsions:
REMARK  status: ('A' for Active; 'I' for Inactive)
REMARK    1  A    between atoms: O1_2  and  C2_3 
REMARK    2  A    between atoms: C6_7  and  C7_8 
REMARK    3  A    between atoms: C8_9  and  C9_10 
REMARK       I    between atoms: C9_10  and  N1_12 
REMARK    4  A    between atoms: C15_18  and  N2_19 
REMARK    5  A    between atoms: N2_19  and  C16_20 
ROOT
HETATM    1  C9  UNL     1      19.268   2.832  50.821  1.00  0.00     0.248 C 
HETATM    2  O2  UNL     1      18.189   2.981  50.246  1.00  0.00    -0.268 OA
HETATM    3  N1  UNL     1      20.161   2.796  49.717  1.00  0.00    -0.308 N 
HETATM    4  C10 UNL     1      19.948   2.895  48.313  1.00  0.00     0.104 C 
HETATM    5  C11 UNL     1      21.027   3.004  47.475  1.00  0.00    -0.023 C 
HETATM    6  C12 UNL     1      22.330   2.198  47.453  1.00  0.00     0.008 C 
HETATM    7  C13 UNL     1      21.828   1.589  48.577  1.00  0.00     0.007 C 
HETATM    8  C14 UNL     1      21.633   2.638  49.724  1.00  0.00     0.184 C 
HETATM    9  C15 UNL     1      22.205   3.978  49.245  1.00  0.00     0.126 C 
HETATM   10  N3  UNL     1      22.118   4.906  48.205  1.00  0.00    -0.270 NA
HETATM   11  C23 UNL     1      21.387   4.356  46.900  1.00  0.00     0.191 C 
ENDROOT
BRANCH   1  12
HETATM   12  C8  UNL     1      19.797   2.701  52.162  1.00  0.00     0.072 C 
HETATM   13  C7  UNL     1      20.337   1.604  52.662  1.00  0.00    -0.006 C 
BRANCH  13  14
HETATM   14  C6  UNL     1      20.721   0.193  52.452  1.00  0.00     0.088 A 
HETATM   15  C2  UNL     1      20.104  -0.707  53.466  1.00  0.00     0.057 A 
HETATM   16  C3  UNL     1      21.030  -1.383  54.155  1.00  0.00     0.033 A 
HETATM   17  C4  UNL     1      22.332  -0.965  53.629  1.00  0.00    -0.001 A 
HETATM   18  C5  UNL     1      22.159  -0.067  52.659  1.00  0.00    -0.011 A 
BRANCH  15  19
HETATM   19  O1  UNL     1      18.702  -0.757  53.596  1.00  0.00    -0.359 OA
HETATM   20  C1  UNL     1      17.868  -1.005  52.474  1.00  0.00     0.209 C 
ENDBRANCH  15  19
ENDBRANCH  13  14
ENDBRANCH   1  12
BRANCH   9  21
HETATM   21  N2  UNL     1      23.182   4.500  50.210  1.00  0.00    -0.342 N 
HETATM   22  H14 UNL     1      23.014   5.403  50.709  1.00  0.00     0.167 HD
BRANCH  21  23
HETATM   23  C16 UNL     1      24.404   3.795  50.509  1.00  0.00     0.040 A 
HETATM   24  C17 UNL     1      25.315   3.707  49.495  1.00  0.00     0.030 A 
HETATM   25  C18 UNL     1      26.493   3.030  49.776  1.00  0.00     0.004 A 
HETATM   26  C19 UNL     1      26.741   2.469  51.024  1.00  0.00     0.020 A 
HETATM   27  C20 UNL     1      25.779   2.595  52.002  1.00  0.00     0.019 A 
HETATM   28 BR1  UNL     1      26.001   1.869  53.753  1.00  0.00    -0.051 Br
HETATM   29  C21 UNL     1      24.589   3.259  51.772  1.00  0.00    -0.018 A 
HETATM   30  C22 UNL     1      23.494   3.443  52.766  1.00  0.00     0.052 C 
ENDBRANCH  21  23
ENDBRANCH   9  21
TORSDOF 5
ENDMDL
MODEL 5
REMARK VINA RESULT:      -8.0      1.481      2.072
REMARK  5 active torsions:
REMARK  status: ('A' for Active; 'I' for Inactive)
REMARK    1  A    between atoms: O1_2  and  C2_3 
REMARK    2  A    between atoms: C6_7  and  C7_8 
REMARK    3  A    between atoms: C8_9  and  C9_10 
REMARK       I    between atoms: C9_10  and  N1_12 
REMARK    4  A    between atoms: C15_18  and  N2_19 
REMARK    5  A    between atoms: N2_19  and  C16_20 
ROOT
HETATM    1  C9  UNL     1      26.039   3.620  50.220  1.00  0.00     0.248 C 
HETATM    2  O2  UNL     1      26.420   4.661  49.682  1.00  0.00    -0.268 OA
HETATM    3  N1  UNL     1      24.776   4.025  50.730  1.00  0.00    -0.308 N 
HETATM    4  C10 UNL     1      24.079   5.265  50.678  1.00  0.00     0.104 C 
HETATM    5  C11 UNL     1      22.779   5.324  51.111  1.00  0.00    -0.023 C 
HETATM    6  C12 UNL     1      22.152   4.760  52.390  1.00  0.00     0.008 C 
HETATM    7  C13 UNL     1      23.399   4.237  52.625  1.00  0.00     0.007 C 
HETATM    8  C14 UNL     1      23.790   3.228  51.492  1.00  0.00     0.184 C 
HETATM    9  C15 UNL     1      22.577   3.059  50.568  1.00  0.00     0.126 C 
HETATM   10  N3  UNL     1      21.673   3.784  49.789  1.00  0.00    -0.270 NA
HETATM   11  C23 UNL     1      21.659   5.348  50.095  1.00  0.00     0.191 C 
ENDROOT
BRANCH   1  12
HETATM   12  C8  UNL     1      26.487   2.262  50.439  1.00  0.00     0.072 C 
HETATM   13  C7  UNL     1      26.896   1.774  51.597  1.00  0.00    -0.006 C 
BRANCH  13  14
HETATM   14  C6  UNL     1      27.156   2.013  53.031  1.00  0.00     0.088 A 
HETATM   15  C2  UNL     1      28.059   0.980  53.610  1.00  0.00     0.057 A 
HETATM   16  C3  UNL     1      27.484   0.339  54.634  1.00  0.00     0.033 A 
HETATM   17  C4  UNL     1      26.149   0.921  54.795  1.00  0.00    -0.001 A 
HETATM   18  C5  UNL     1      25.960   1.875  53.883  1.00  0.00    -0.011 A 
BRANCH  15  19
HETATM   19  O1  UNL     1      29.343   0.786  53.064  1.00  0.00    -0.359 OA
HETATM   20  C1  UNL     1      30.168  -0.290  53.485  1.00  0.00     0.209 C 
ENDBRANCH  15  19
ENDBRANCH  13  14
ENDBRANCH   1  12
BRANCH   9  21
HETATM   21  N2  UNL     1      22.230   1.639  50.422  1.00  0.00    -0.342 N 
HETATM   22  H14 UNL     1      22.279   1.167  49.490  1.00  0.00     0.167 HD
BRANCH  21  23
HETATM   23  C16 UNL     1      21.813   0.839  51.548  1.00  0.00     0.040 A 
HETATM   24  C17 UNL     1      22.785   0.508  52.448  1.00  0.00     0.030 A 
HETATM   25  C18 UNL     1      22.391  -0.261  53.533  1.00  0.00     0.004 A 
HETATM   26  C19 UNL     1      21.075  -0.678  53.701  1.00  0.00     0.020 A 
HETATM   27  C20 UNL     1      20.144  -0.310  52.755  1.00  0.00     0.019 A 
HETATM   28 BR1  UNL     1      18.309  -0.818  52.873  1.00  0.00    -0.051 Br
HETATM   29  C21 UNL     1      20.487   0.456  51.656  1.00  0.00    -0.018 A 
HETATM   30  C22 UNL     1      19.551   0.900  50.585  1.00  0.00     0.052 C 
ENDBRANCH  21  23
ENDBRANCH   9  21
TORSDOF 5
ENDMDL
MODEL 6
REMARK VINA RESULT:      -7.9      2.661      4.884
REMARK  5 active torsions:
REMARK  status: ('A' for Active; 'I' for Inactive)
REMARK    1  A    between atoms: O1_2  and  C2_3 
REMARK    2  A    between atoms: C6_7  and  C7_8 
REMARK    3  A    between atoms: C8_9  and  C9_10 
REMARK       I    between atoms: C9_10  and  N1_12 
REMARK    4  A    between atoms: C15_18  and  N2_19 
REMARK    5  A    between atoms: N2_19  and  C16_20 
ROOT
HETATM    1  C9  UNL     1      22.712   0.814  53.181  1.00  0.00     0.248 C 
HETATM    2  O2  UNL     1      22.229  -0.037  53.931  1.00  0.00    -0.268 OA
HETATM    3  N1  UNL     1      21.643   1.007  52.267  1.00  0.00    -0.308 N 
HETATM    4  C10 UNL     1      20.350   0.422  52.172  1.00  0.00     0.104 C 
HETATM    5  C11 UNL     1      19.444   0.931  51.277  1.00  0.00    -0.023 C 
HETATM    6  C12 UNL     1      19.636   1.304  49.803  1.00  0.00     0.008 C 
HETATM    7  C13 UNL     1      20.952   0.977  50.018  1.00  0.00     0.007 C 
HETATM    8  C14 UNL     1      21.578   1.919  51.102  1.00  0.00     0.184 C 
HETATM    9  C15 UNL     1      20.538   2.989  51.459  1.00  0.00     0.126 C 
HETATM   10  N3  UNL     1      19.222   3.146  51.897  1.00  0.00    -0.270 NA
HETATM   11  C23 UNL     1      18.333   1.829  51.774  1.00  0.00     0.191 C 
ENDROOT
BRANCH   1  12
HETATM   12  C8  UNL     1      23.932   1.573  53.014  1.00  0.00     0.072 C 
HETATM   13  C7  UNL     1      25.139   1.156  53.352  1.00  0.00    -0.006 C 
BRANCH  13  14
HETATM   14  C6  UNL     1      25.974   0.080  53.925  1.00  0.00     0.088 A 
HETATM   15  C2  UNL     1      27.427   0.395  53.828  1.00  0.00     0.057 A 
HETATM   16  C3  UNL     1      28.090  -0.541  53.141  1.00  0.00     0.033 A 
HETATM   17  C4  UNL     1      27.101  -1.545  52.738  1.00  0.00    -0.001 A 
HETATM   18  C5  UNL     1      25.895  -1.193  53.184  1.00  0.00    -0.011 A 
BRANCH  15  19
HETATM   19  O1  UNL     1      27.931   1.566  54.427  1.00  0.00    -0.359 OA
HETATM   20  C1  UNL     1      28.809   2.433  53.724  1.00  0.00     0.209 C 
ENDBRANCH  15  19
ENDBRANCH  13  14
ENDBRANCH   1  12
BRANCH   9  21
HETATM   21  N2  UNL     1      21.108   4.335  51.310  1.00  0.00    -0.342 N 
HETATM   22  H14 UNL     1      21.044   5.033  52.085  1.00  0.00     0.167 HD
BRANCH  21  23
HETATM   23  C16 UNL     1      21.775   4.748  50.100  1.00  0.00     0.040 A 
HETATM   24  C17 UNL     1      21.000   4.825  48.978  1.00  0.00     0.030 A 
HETATM   25  C18 UNL     1      21.634   5.221  47.810  1.00  0.00     0.004 A 
HETATM   26  C19 UNL     1      22.990   5.527  47.776  1.00  0.00     0.020 A 
HETATM   27  C20 UNL     1      23.714   5.429  48.944  1.00  0.00     0.019 A 
HETATM   28 BR1  UNL     1      25.580   5.821  49.027  1.00  0.00    -0.051 Br
HETATM   29  C21 UNL     1      23.129   5.038  50.133  1.00  0.00    -0.018 A 
HETATM   30  C22 UNL     1      23.830   4.903  51.441  1.00  0.00     0.052 C 
ENDBRANCH  21  23
ENDBRANCH   9  21
TORSDOF 5
ENDMDL
MODEL 7
REMARK VINA RESULT:      -7.8      2.191      3.424
REMARK  5 active torsions:
REMARK  status: ('A' for Active; 'I' for Inactive)
REMARK    1  A    between atoms: O1_2  and  C2_3 
REMARK    2  A    between atoms: C6_7  and  C7_8 
REMARK    3  A    between atoms: C8_9  and  C9_10 
REMARK       I    between atoms: C9_10  and  N1_12 
REMARK    4  A    between atoms: C15_18  and  N2_19 
REMARK    5  A    between atoms: N2_19  and  C16_20 
ROOT
HETATM    1  C9  UNL     1      26.131   3.604  50.118  1.00  0.00     0.248 C 
HETATM    2  O2  UNL     1      27.111   3.598  49.372  1.00  0.00    -0.268 OA
HETATM    3  N1  UNL     1      25.607   4.900  49.868  1.00  0.00    -0.308 N 
HETATM    4  C10 UNL     1      26.036   5.954  49.013  1.00  0.00     0.104 C 
HETATM    5  C11 UNL     1      25.228   7.048  48.837  1.00  0.00    -0.023 C 
HETATM    6  C12 UNL     1      24.483   7.887  49.881  1.00  0.00     0.008 C 
HETATM    7  C13 UNL     1      24.964   6.970  50.782  1.00  0.00     0.007 C 
HETATM    8  C14 UNL     1      24.410   5.541  50.456  1.00  0.00     0.184 C 
HETATM    9  C15 UNL     1      23.396   5.675  49.312  1.00  0.00     0.126 C 
HETATM   10  N3  UNL     1      23.256   6.168  48.013  1.00  0.00    -0.270 NA
HETATM   11  C23 UNL     1      24.411   7.173  47.570  1.00  0.00     0.191 C 
ENDROOT
BRANCH   1  12
HETATM   12  C8  UNL     1      25.459   2.740  51.064  1.00  0.00     0.072 C 
HETATM   13  C7  UNL     1      26.058   1.868  51.855  1.00  0.00    -0.006 C 
BRANCH  13  14
HETATM   14  C6  UNL     1      27.323   1.252  52.304  1.00  0.00     0.088 A 
HETATM   15  C2  UNL     1      27.092   0.196  53.329  1.00  0.00     0.057 A 
HETATM   16  C3  UNL     1      27.740   0.463  54.468  1.00  0.00     0.033 A 
HETATM   17  C4  UNL     1      28.448   1.729  54.261  1.00  0.00    -0.001 A 
HETATM   18  C5  UNL     1      28.212   2.180  53.028  1.00  0.00    -0.011 A 
BRANCH  15  19
HETATM   19  O1  UNL     1      26.271  -0.908  53.024  1.00  0.00    -0.359 OA
HETATM   20  C1  UNL     1      26.812  -2.095  52.464  1.00  0.00     0.209 C 
ENDBRANCH  15  19
ENDBRANCH  13  14
ENDBRANCH   1  12
BRANCH   9  21
HETATM   21  N2  UNL     1      22.113   5.064  49.683  1.00  0.00    -0.342 N 
HETATM   22  H14 UNL     1      21.265   5.654  49.844  1.00  0.00     0.167 HD
BRANCH  21  23
HETATM   23  C16 UNL     1      21.967   3.638  49.840  1.00  0.00     0.040 A 
HETATM   24  C17 UNL     1      22.115   2.887  48.709  1.00  0.00     0.030 A 
HETATM   25  C18 UNL     1      21.976   1.514  48.852  1.00  0.00     0.004 A 
HETATM   26  C19 UNL     1      21.700   0.926  50.081  1.00  0.00     0.020 A 
HETATM   27  C20 UNL     1      21.562   1.742  51.182  1.00  0.00     0.019 A 
HETATM   28 BR1  UNL     1      21.184   1.056  52.922  1.00  0.00    -0.051 Br
HETATM   29  C21 UNL     1      21.692   3.115  51.092  1.00  0.00    -0.018 A 
HETATM   30  C22 UNL     1      21.559   4.074  52.225  1.00  0.00     0.052 C 
ENDBRANCH  21  23
ENDBRANCH   9  21
TORSDOF 5
ENDMDL
MODEL 8
REMARK VINA RESULT:      -7.7      1.309      2.134
REMARK  5 active torsions:
REMARK  status: ('A' for Active; 'I' for Inactive)
REMARK    1  A    between atoms: O1_2  and  C2_3 
REMARK    2  A    between atoms: C6_7  and  C7_8 
REMARK    3  A    between atoms: C8_9  and  C9_10 
REMARK       I    between atoms: C9_10  and  N1_12 
REMARK    4  A    between atoms: C15_18  and  N2_19 
REMARK    5  A    between atoms: N2_19  and  C16_20 
ROOT
HETATM    1  C9  UNL     1      24.987   2.807  51.522  1.00  0.00     0.248 C 
HETATM    2  O2  UNL     1      25.859   2.644  50.667  1.00  0.00    -0.268 OA
HETATM    3  N1  UNL     1      23.823   2.875  50.712  1.00  0.00    -0.308 N 
HETATM    4  C10 UNL     1      23.632   2.790  49.305  1.00  0.00     0.104 C 
HETATM    5  C11 UNL     1      22.359   2.712  48.801  1.00  0.00    -0.023 C 
HETATM    6  C12 UNL     1      21.121   3.544  49.151  1.00  0.00     0.008 C 
HETATM    7  C13 UNL     1      21.930   4.128  50.093  1.00  0.00     0.007 C 
HETATM    8  C14 UNL     1      22.416   3.061  51.133  1.00  0.00     0.184 C 
HETATM    9  C15 UNL     1      21.703   1.738  50.823  1.00  0.00     0.126 C 
HETATM   10  N3  UNL     1      21.474   0.822  49.794  1.00  0.00    -0.270 NA
HETATM   11  C23 UNL     1      21.823   1.374  48.341  1.00  0.00     0.191 C 
ENDROOT
BRANCH   1  12
HETATM   12  C8  UNL     1      24.859   2.931  52.958  1.00  0.00     0.072 C 
HETATM   13  C7  UNL     1      25.226   2.014  53.835  1.00  0.00    -0.006 C 
BRANCH  13  14
HETATM   14  C6  UNL     1      25.812   0.680  54.077  1.00  0.00     0.088 A 
HETATM   15  C2  UNL     1      27.264   0.645  53.750  1.00  0.00     0.057 A 
HETATM   16  C3  UNL     1      27.539  -0.277  52.821  1.00  0.00     0.033 A 
HETATM   17  C4  UNL     1      26.266  -0.916  52.475  1.00  0.00    -0.001 A 
HETATM   18  C5  UNL     1      25.281  -0.372  53.190  1.00  0.00    -0.011 A 
BRANCH  15  19
HETATM   19  O1  UNL     1      28.151   1.524  54.402  1.00  0.00    -0.359 OA
HETATM   20  C1  UNL     1      28.896   2.491  53.677  1.00  0.00     0.209 C 
ENDBRANCH  15  19
ENDBRANCH  13  14
ENDBRANCH   1  12
BRANCH   9  21
HETATM   21  N2  UNL     1      21.023   1.223  52.019  1.00  0.00    -0.342 N 
HETATM   22  H14 UNL     1      21.485   1.262  52.957  1.00  0.00     0.167 HD
BRANCH  21  23
HETATM   23  C16 UNL     1      19.702   0.648  51.955  1.00  0.00     0.040 A 
HETATM   24  C17 UNL     1      18.811   1.272  51.130  1.00  0.00     0.030 A 
HETATM   25  C18 UNL     1      17.538   0.725  51.064  1.00  0.00     0.004 A 
HETATM   26  C19 UNL     1      17.182  -0.403  51.795  1.00  0.00     0.020 A 
HETATM   27  C20 UNL     1      18.130  -0.984  52.608  1.00  0.00     0.019 A 
HETATM   28 BR1  UNL     1      17.765  -2.533  53.660  1.00  0.00    -0.051 Br
HETATM   29  C21 UNL     1      19.412  -0.477  52.709  1.00  0.00    -0.018 A 
HETATM   30  C22 UNL     1      20.500  -1.036  53.560  1.00  0.00     0.052 C 
ENDBRANCH  21  23
ENDBRANCH   9  21
TORSDOF 5
ENDMDL
MODEL 9
REMARK VINA RESULT:      -7.7      4.361      6.696
REMARK  5 active torsions:
REMARK  status: ('A' for Active; 'I' for Inactive)
REMARK    1  A    between atoms: O1_2  and  C2_3 
REMARK    2  A    between atoms: C6_7  and  C7_8 
REMARK    3  A    between atoms: C8_9  and  C9_10 
REMARK       I    between atoms: C9_10  and  N1_12 
REMARK    4  A    between atoms: C15_18  and  N2_19 
REMARK    5  A    between atoms: N2_19  and  C16_20 
ROOT
HETATM    1  C9  UNL     1      19.678   2.643  51.255  1.00  0.00     0.248 C 
HETATM    2  O2  UNL     1      18.517   2.628  50.843  1.00  0.00    -0.268 OA
HETATM    3  N1  UNL     1      20.400   2.624  50.033  1.00  0.00    -0.308 N 
HETATM    4  C10 UNL     1      19.977   2.593  48.674  1.00  0.00     0.104 C 
HETATM    5  C11 UNL     1      20.903   2.760  47.677  1.00  0.00    -0.023 C 
HETATM    6  C12 UNL     1      22.278   2.104  47.505  1.00  0.00     0.008 C 
HETATM    7  C13 UNL     1      22.021   1.530  48.725  1.00  0.00     0.007 C 
HETATM    8  C14 UNL     1      21.866   2.633  49.826  1.00  0.00     0.184 C 
HETATM    9  C15 UNL     1      22.195   3.990  49.189  1.00  0.00     0.126 C 
HETATM   10  N3  UNL     1      21.848   4.821  48.123  1.00  0.00    -0.270 NA
HETATM   11  C23 UNL     1      21.009   4.096  46.978  1.00  0.00     0.191 C 
ENDROOT
BRANCH   1  12
HETATM   12  C8  UNL     1      20.405   2.674  52.506  1.00  0.00     0.072 C 
HETATM   13  C7  UNL     1      21.061   1.653  53.028  1.00  0.00    -0.006 C 
BRANCH  13  14
HETATM   14  C6  UNL     1      21.472   0.239  52.909  1.00  0.00     0.088 A 
HETATM   15  C2  UNL     1      20.375  -0.692  53.293  1.00  0.00     0.057 A 
HETATM   16  C3  UNL     1      20.739  -1.496  54.298  1.00  0.00     0.033 A 
HETATM   17  C4  UNL     1      22.118  -1.139  54.642  1.00  0.00    -0.001 A 
HETATM   18  C5  UNL     1      22.538  -0.151  53.851  1.00  0.00    -0.011 A 
BRANCH  15  19
HETATM   19  O1  UNL     1      19.143  -0.642  52.611  1.00  0.00    -0.359 OA
HETATM   20  C1  UNL     1      17.938  -1.058  53.236  1.00  0.00     0.209 C 
ENDBRANCH  15  19
ENDBRANCH  13  14
ENDBRANCH   1  12
BRANCH   9  21
HETATM   21  N2  UNL     1      23.230   4.688  49.963  1.00  0.00    -0.342 N 
HETATM   22  H14 UNL     1      22.976   5.278  50.788  1.00  0.00     0.167 HD
BRANCH  21  23
HETATM   23  C16 UNL     1      24.628   4.591  49.623  1.00  0.00     0.040 A 
HETATM   24  C17 UNL     1      25.220   3.379  49.837  1.00  0.00     0.030 A 
HETATM   25  C18 UNL     1      26.566   3.279  49.513  1.00  0.00     0.004 A 
HETATM   26  C19 UNL     1      27.280   4.354  48.995  1.00  0.00     0.020 A 
HETATM   27  C20 UNL     1      26.622   5.548  48.804  1.00  0.00     0.019 A 
HETATM   28 BR1  UNL     1      27.492   7.094  48.101  1.00  0.00    -0.051 Br
HETATM   29  C21 UNL     1      25.283   5.699  49.111  1.00  0.00    -0.018 A 
HETATM   30  C22 UNL     1      24.490   6.949  48.940  1.00  0.00     0.052 C 
ENDBRANCH  21  23
ENDBRANCH   9  21
TORSDOF 5
ENDMDL
