MODEL 1
REMARK VINA RESULT:      -8.7      0.000      0.000
REMARK  1 active torsions:
REMARK  status: ('A' for Active; 'I' for Inactive)
REMARK    1  A    between atoms: O1_2  and  C2_3 
ROOT
HETATM    1  C2  UNL     1      25.370   4.523  49.709  1.00  0.00     0.054 C 
HETATM    2  C3  UNL     1      24.061   4.336  49.777  1.00  0.00     0.081 C 
HETATM    3  C4  UNL     1      22.670   4.689  49.527  1.00  0.00     0.014 C 
HETATM    4  C5  UNL     1      21.950   5.196  50.533  1.00  0.00     0.065 C 
HETATM    5  N1  UNL     1      22.357   4.738  51.680  1.00  0.00    -0.111 NA
HETATM    6  N2  UNL     1      22.546   3.362  51.672  1.00  0.00    -0.251 N 
HETATM    7  S1  UNL     1      23.761   4.204  52.689  1.00  0.00     0.017 SA
HETATM    8  C6  UNL     1      24.858   2.927  53.369  1.00  0.00     0.131 C 
HETATM    9  C7  UNL     1      24.905   1.583  53.266  1.00  0.00     0.151 C 
HETATM   10  N3  UNL     1      23.951   0.526  53.299  1.00  0.00    -0.336 N 
HETATM   11  C8  UNL     1      22.566   0.417  52.992  1.00  0.00     0.045 A 
HETATM   12  C9  UNL     1      22.168  -0.613  53.823  1.00  0.00     0.072 A 
HETATM   13  C10 UNL     1      20.835  -0.978  53.776  1.00  0.00     0.118 A 
HETATM   14  F1  UNL     1      20.444  -1.993  54.594  1.00  0.00    -0.206 F 
HETATM   15  C11 UNL     1      19.965  -0.330  52.930  1.00  0.00     0.043 A 
HETATM   16  C12 UNL     1      20.423   0.673  52.142  1.00  0.00     0.014 A 
HETATM   17  C13 UNL     1      21.752   1.111  52.120  1.00  0.00    -0.007 A 
HETATM   18  C14 UNL     1      21.868   2.223  51.104  1.00  0.00     0.143 C 
HETATM   19  C15 UNL     1      22.336   1.648  49.825  1.00  0.00     0.040 C 
HETATM   20  O2  UNL     1      26.175   1.118  53.087  1.00  0.00    -0.332 OA
HETATM   21  C16 UNL     1      26.692   1.089  51.768  1.00  0.00     0.205 C 
HETATM   22  C17 UNL     1      26.268   2.338  51.021  1.00  0.00     0.002 C 
HETATM   23  C18 UNL     1      26.151   3.472  50.348  1.00  0.00     0.031 C 
HETATM   24  H7  UNL     1      24.432  -0.317  53.626  1.00  0.00     0.168 HD
ENDROOT
BRANCH   1  25
HETATM   25  O1  UNL     1      26.432   5.308  49.283  1.00  0.00    -0.360 OA
HETATM   26  C1  UNL     1      27.577   4.828  48.659  1.00  0.00     0.209 C 
ENDBRANCH   1  25
TORSDOF 1
ENDMDL
MODEL 2
REMARK VINA RESULT:      -8.4      3.119      5.247
REMARK  1 active torsions:
REMARK  status: ('A' for Active; 'I' for Inactive)
REMARK    1  A    between atoms: O1_2  and  C2_3 
ROOT
HETATM    1  C2  UNL     1      20.150   3.613  51.857  1.00  0.00     0.054 C 
HETATM    2  C3  UNL     1      21.394   3.872  51.488  1.00  0.00     0.081 C 
HETATM    3  C4  UNL     1      22.424   4.617  50.775  1.00  0.00     0.014 C 
HETATM    4  C5  UNL     1      22.940   4.084  49.663  1.00  0.00     0.065 C 
HETATM    5  N1  UNL     1      22.931   2.785  49.714  1.00  0.00    -0.111 NA
HETATM    6  N2  UNL     1      23.399   2.292  50.925  1.00  0.00    -0.251 N 
HETATM    7  S1  UNL     1      22.062   1.295  50.264  1.00  0.00     0.017 SA
HETATM    8  C6  UNL     1      21.769  -0.049  51.448  1.00  0.00     0.131 C 
HETATM    9  C7  UNL     1      22.337  -0.405  52.618  1.00  0.00     0.151 C 
HETATM   10  N3  UNL     1      23.668  -0.499  53.117  1.00  0.00    -0.336 N 
HETATM   11  C8  UNL     1      24.900   0.145  52.811  1.00  0.00     0.045 A 
HETATM   12  C9  UNL     1      25.823  -0.820  53.164  1.00  0.00     0.072 A 
HETATM   13  C10 UNL     1      27.158  -0.507  52.981  1.00  0.00     0.118 A 
HETATM   14  F1  UNL     1      28.067  -1.458  53.328  1.00  0.00    -0.206 F 
HETATM   15  C11 UNL     1      27.523   0.717  52.471  1.00  0.00     0.043 A 
HETATM   16  C12 UNL     1      26.564   1.617  52.146  1.00  0.00     0.014 A 
HETATM   17  C13 UNL     1      25.190   1.392  52.296  1.00  0.00    -0.007 A 
HETATM   18  C14 UNL     1      24.454   2.633  51.847  1.00  0.00     0.143 C 
HETATM   19  C15 UNL     1      24.158   3.462  53.034  1.00  0.00     0.040 C 
HETATM   20  O2  UNL     1      21.414  -0.764  53.557  1.00  0.00    -0.332 OA
HETATM   21  C16 UNL     1      20.818   0.264  54.330  1.00  0.00     0.205 C 
HETATM   22  C17 UNL     1      20.525   1.464  53.451  1.00  0.00     0.002 C 
HETATM   23  C18 UNL     1      20.024   2.470  52.752  1.00  0.00     0.031 C 
HETATM   24  H7  UNL     1      23.674  -1.206  53.857  1.00  0.00     0.168 HD
ENDROOT
BRANCH   1  25
HETATM   25  O1  UNL     1      18.802   3.941  51.788  1.00  0.00    -0.360 OA
HETATM   26  C1  UNL     1      17.783   3.056  51.459  1.00  0.00     0.209 C 
ENDBRANCH   1  25
TORSDOF 1
ENDMDL
MODEL 3
REMARK VINA RESULT:      -8.2      1.390      1.728
REMARK  1 active torsions:
REMARK  status: ('A' for Active; 'I' for Inactive)
REMARK    1  A    between atoms: O1_2  and  C2_3 
ROOT
HETATM    1  C2  UNL     1      23.233   4.704  48.924  1.00  0.00     0.054 C 
HETATM    2  C3  UNL     1      22.156   4.069  49.357  1.00  0.00     0.081 C 
HETATM    3  C4  UNL     1      20.721   3.841  49.464  1.00  0.00     0.014 C 
HETATM    4  C5  UNL     1      20.097   4.222  50.584  1.00  0.00     0.065 C 
HETATM    5  N1  UNL     1      20.892   4.153  51.611  1.00  0.00    -0.111 NA
HETATM    6  N2  UNL     1      21.605   2.963  51.660  1.00  0.00    -0.251 N 
HETATM    7  S1  UNL     1      22.576   4.355  52.243  1.00  0.00     0.017 SA
HETATM    8  C6  UNL     1      24.209   3.707  52.699  1.00  0.00     0.131 C 
HETATM    9  C7  UNL     1      24.762   2.476  52.693  1.00  0.00     0.151 C 
HETATM   10  N3  UNL     1      24.339   1.168  53.065  1.00  0.00    -0.336 N 
HETATM   11  C8  UNL     1      23.080   0.510  53.153  1.00  0.00     0.045 A 
HETATM   12  C9  UNL     1      23.316  -0.430  54.138  1.00  0.00     0.072 A 
HETATM   13  C10 UNL     1      22.262  -1.257  54.481  1.00  0.00     0.118 A 
HETATM   14  F1  UNL     1      22.495  -2.182  55.451  1.00  0.00    -0.206 F 
HETATM   15  C11 UNL     1      21.044  -1.130  53.853  1.00  0.00     0.043 A 
HETATM   16  C12 UNL     1      20.883  -0.186  52.895  1.00  0.00     0.014 A 
HETATM   17  C13 UNL     1      21.889   0.695  52.481  1.00  0.00    -0.007 A 
HETATM   18  C14 UNL     1      21.329   1.574  51.387  1.00  0.00     0.143 C 
HETATM   19  C15 UNL     1      21.695   0.992  50.079  1.00  0.00     0.040 C 
HETATM   20  O2  UNL     1      26.040   2.482  52.215  1.00  0.00    -0.332 OA
HETATM   21  C16 UNL     1      26.225   2.410  50.811  1.00  0.00     0.205 C 
HETATM   22  C17 UNL     1      25.188   3.265  50.111  1.00  0.00     0.002 C 
HETATM   23  C18 UNL     1      24.486   4.141  49.409  1.00  0.00     0.031 C 
HETATM   24  H7  UNL     1      25.173   0.630  53.315  1.00  0.00     0.168 HD
ENDROOT
BRANCH   1  25
HETATM   25  O1  UNL     1      23.776   5.734  48.167  1.00  0.00    -0.360 OA
HETATM   26  C1  UNL     1      24.687   6.672  48.636  1.00  0.00     0.209 C 
ENDBRANCH   1  25
TORSDOF 1
ENDMDL
MODEL 4
REMARK VINA RESULT:      -7.7      3.838      6.745
REMARK  1 active torsions:
REMARK  status: ('A' for Active; 'I' for Inactive)
REMARK    1  A    between atoms: O1_2  and  C2_3 
ROOT
HETATM    1  C2  UNL     1      21.507   4.314  51.994  1.00  0.00     0.054 C 
HETATM    2  C3  UNL     1      21.813   5.342  51.219  1.00  0.00     0.081 C 
HETATM    3  C4  UNL     1      21.514   6.554  50.468  1.00  0.00     0.014 C 
HETATM    4  C5  UNL     1      21.415   6.471  49.137  1.00  0.00     0.065 C 
HETATM    5  N1  UNL     1      22.180   5.531  48.667  1.00  0.00    -0.111 NA
HETATM    6  N2  UNL     1      23.460   5.562  49.202  1.00  0.00    -0.251 N 
HETATM    7  S1  UNL     1      22.891   3.885  48.916  1.00  0.00     0.017 SA
HETATM    8  C6  UNL     1      24.222   2.775  49.453  1.00  0.00     0.131 C 
HETATM    9  C7  UNL     1      25.455   2.972  49.964  1.00  0.00     0.151 C 
HETATM   10  N3  UNL     1      26.542   3.850  49.691  1.00  0.00    -0.336 N 
HETATM   11  C8  UNL     1      26.661   5.150  49.125  1.00  0.00     0.045 A 
HETATM   12  C9  UNL     1      27.931   5.112  48.582  1.00  0.00     0.072 A 
HETATM   13  C10 UNL     1      28.370   6.251  47.932  1.00  0.00     0.118 A 
HETATM   14  F1  UNL     1      29.621   6.213  47.399  1.00  0.00    -0.206 F 
HETATM   15  C11 UNL     1      27.560   7.359  47.845  1.00  0.00     0.043 A 
HETATM   16  C12 UNL     1      26.325   7.328  48.400  1.00  0.00     0.014 A 
HETATM   17  C13 UNL     1      25.794   6.223  49.077  1.00  0.00    -0.007 A 
HETATM   18  C14 UNL     1      24.410   6.585  49.564  1.00  0.00     0.143 C 
HETATM   19  C15 UNL     1      24.507   7.038  50.968  1.00  0.00     0.040 C 
HETATM   20  O2  UNL     1      25.732   2.123  50.997  1.00  0.00    -0.332 OA
HETATM   21  C16 UNL     1      25.297   2.491  52.294  1.00  0.00     0.205 C 
HETATM   22  C17 UNL     1      23.914   3.107  52.217  1.00  0.00     0.002 C 
HETATM   23  C18 UNL     1      22.639   3.450  52.304  1.00  0.00     0.031 C 
HETATM   24  H7  UNL     1      27.403   3.383  49.990  1.00  0.00     0.168 HD
ENDROOT
BRANCH   1  25
HETATM   25  O1  UNL     1      20.542   3.615  52.707  1.00  0.00    -0.360 OA
HETATM   26  C1  UNL     1      20.156   2.305  52.450  1.00  0.00     0.209 C 
ENDBRANCH   1  25
TORSDOF 1
ENDMDL
MODEL 5
REMARK VINA RESULT:      -7.7      3.874      7.093
REMARK  1 active torsions:
REMARK  status: ('A' for Active; 'I' for Inactive)
REMARK    1  A    between atoms: O1_2  and  C2_3 
ROOT
HETATM    1  C2  UNL     1      20.444   3.570  51.538  1.00  0.00     0.054 C 
HETATM    2  C3  UNL     1      21.634   2.993  51.486  1.00  0.00     0.081 C 
HETATM    3  C4  UNL     1      22.611   1.965  51.822  1.00  0.00     0.014 C 
HETATM    4  C5  UNL     1      23.560   2.255  52.718  1.00  0.00     0.065 C 
HETATM    5  N1  UNL     1      23.862   3.519  52.690  1.00  0.00    -0.111 NA
HETATM    6  N2  UNL     1      24.045   3.999  51.400  1.00  0.00    -0.251 N 
HETATM    7  S1  UNL     1      23.272   5.216  52.468  1.00  0.00     0.017 SA
HETATM    8  C6  UNL     1      22.978   6.696  51.458  1.00  0.00     0.131 C 
HETATM    9  C7  UNL     1      23.231   7.016  50.173  1.00  0.00     0.151 C 
HETATM   10  N3  UNL     1      24.323   6.842  49.276  1.00  0.00    -0.336 N 
HETATM   11  C8  UNL     1      25.385   5.902  49.162  1.00  0.00     0.045 A 
HETATM   12  C9  UNL     1      26.369   6.652  48.546  1.00  0.00     0.072 A 
HETATM   13  C10 UNL     1      27.571   6.020  48.289  1.00  0.00     0.118 A 
HETATM   14  F1  UNL     1      28.538   6.760  47.682  1.00  0.00    -0.206 F 
HETATM   15  C11 UNL     1      27.755   4.702  48.638  1.00  0.00     0.043 A 
HETATM   16  C12 UNL     1      26.747   4.025  49.240  1.00  0.00     0.014 A 
HETATM   17  C13 UNL     1      25.496   4.579  49.540  1.00  0.00    -0.007 A 
HETATM   18  C14 UNL     1      24.646   3.509  50.184  1.00  0.00     0.143 C 
HETATM   19  C15 UNL     1      23.802   2.887  49.142  1.00  0.00     0.040 C 
HETATM   20  O2  UNL     1      22.186   7.667  49.583  1.00  0.00    -0.332 OA
HETATM   21  C16 UNL     1      21.143   6.884  49.028  1.00  0.00     0.205 C 
HETATM   22  C17 UNL     1      20.842   5.710  49.938  1.00  0.00     0.002 C 
HETATM   23  C18 UNL     1      20.343   4.788  50.746  1.00  0.00     0.031 C 
HETATM   24  H7  UNL     1      24.280   7.594  48.582  1.00  0.00     0.168 HD
ENDROOT
BRANCH   1  25
HETATM   25  O1  UNL     1      19.146   3.561  52.029  1.00  0.00    -0.360 OA
HETATM   26  C1  UNL     1      18.027   3.152  51.315  1.00  0.00     0.209 C 
ENDBRANCH   1  25
TORSDOF 1
ENDMDL
MODEL 6
REMARK VINA RESULT:      -7.6      3.599      6.280
REMARK  1 active torsions:
REMARK  status: ('A' for Active; 'I' for Inactive)
REMARK    1  A    between atoms: O1_2  and  C2_3 
ROOT
HETATM    1  C2  UNL     1      22.797   1.070  52.491  1.00  0.00     0.054 C 
HETATM    2  C3  UNL     1      22.182   2.227  52.309  1.00  0.00     0.081 C 
HETATM    3  C4  UNL     1      21.016   3.099  52.247  1.00  0.00     0.014 C 
HETATM    4  C5  UNL     1      20.548   3.452  51.045  1.00  0.00     0.065 C 
HETATM    5  N1  UNL     1      21.502   3.503  50.164  1.00  0.00    -0.111 NA
HETATM    6  N2  UNL     1      22.624   4.179  50.626  1.00  0.00    -0.251 N 
HETATM    7  S1  UNL     1      23.059   2.794  49.570  1.00  0.00     0.017 SA
HETATM    8  C6  UNL     1      24.871   2.748  49.478  1.00  0.00     0.131 C 
HETATM    9  C7  UNL     1      25.853   3.511  49.999  1.00  0.00     0.151 C 
HETATM   10  N3  UNL     1      26.078   4.907  50.169  1.00  0.00    -0.336 N 
HETATM   11  C8  UNL     1      25.237   6.047  50.305  1.00  0.00     0.045 A 
HETATM   12  C9  UNL     1      26.032   7.053  49.792  1.00  0.00     0.072 A 
HETATM   13  C10 UNL     1      25.495   8.328  49.770  1.00  0.00     0.118 A 
HETATM   14  F1  UNL     1      26.279   9.318  49.264  1.00  0.00    -0.206 F 
HETATM   15  C11 UNL     1      24.225   8.557  50.246  1.00  0.00     0.043 A 
HETATM   16  C12 UNL     1      23.500   7.523  50.736  1.00  0.00     0.014 A 
HETATM   17  C13 UNL     1      23.957   6.201  50.800  1.00  0.00    -0.007 A 
HETATM   18  C14 UNL     1      22.874   5.353  51.424  1.00  0.00     0.143 C 
HETATM   19  C15 UNL     1      23.153   5.218  52.869  1.00  0.00     0.040 C 
HETATM   20  O2  UNL     1      26.889   2.766  50.484  1.00  0.00    -0.332 OA
HETATM   21  C16 UNL     1      26.783   2.260  51.804  1.00  0.00     0.205 C 
HETATM   22  C17 UNL     1      25.368   1.782  52.059  1.00  0.00     0.002 C 
HETATM   23  C18 UNL     1      24.243   1.136  52.323  1.00  0.00     0.031 C 
HETATM   24  H7  UNL     1      27.090   5.060  50.189  1.00  0.00     0.168 HD
ENDROOT
BRANCH   1  25
HETATM   25  O1  UNL     1      22.709  -0.283  52.790  1.00  0.00    -0.360 OA
HETATM   26  C1  UNL     1      23.051  -0.853  54.010  1.00  0.00     0.209 C 
ENDBRANCH   1  25
TORSDOF 1
ENDMDL
MODEL 7
REMARK VINA RESULT:      -7.5      6.877      9.676
REMARK  1 active torsions:
REMARK  status: ('A' for Active; 'I' for Inactive)
REMARK    1  A    between atoms: O1_2  and  C2_3 
ROOT
HETATM    1  C2  UNL     1      32.772   9.903  46.545  1.00  0.00     0.054 C 
HETATM    2  C3  UNL     1      31.582  10.155  47.065  1.00  0.00     0.081 C 
HETATM    3  C4  UNL     1      30.555  11.016  47.638  1.00  0.00     0.014 C 
HETATM    4  C5  UNL     1      30.356  10.977  48.960  1.00  0.00     0.065 C 
HETATM    5  N1  UNL     1      30.627   9.801  49.442  1.00  0.00    -0.111 NA
HETATM    6  N2  UNL     1      30.074   8.772  48.692  1.00  0.00    -0.251 N 
HETATM    7  S1  UNL     1      31.681   8.331  49.357  1.00  0.00     0.017 SA
HETATM    8  C6  UNL     1      32.043   6.645  48.792  1.00  0.00     0.131 C 
HETATM    9  C7  UNL     1      31.372   5.744  48.045  1.00  0.00     0.151 C 
HETATM   10  N3  UNL     1      30.025   5.287  47.967  1.00  0.00    -0.336 N 
HETATM   11  C8  UNL     1      28.756   5.855  48.272  1.00  0.00     0.045 A 
HETATM   12  C9  UNL     1      28.007   4.736  48.580  1.00  0.00     0.072 A 
HETATM   13  C10 UNL     1      26.687   4.942  48.937  1.00  0.00     0.118 A 
HETATM   14  F1  UNL     1      25.951   3.839  49.240  1.00  0.00    -0.206 F 
HETATM   15  C11 UNL     1      26.167   6.215  48.975  1.00  0.00     0.043 A 
HETATM   16  C12 UNL     1      26.959   7.269  48.660  1.00  0.00     0.014 A 
HETATM   17  C13 UNL     1      28.304   7.159  48.287  1.00  0.00    -0.007 A 
HETATM   18  C14 UNL     1      28.830   8.545  47.997  1.00  0.00     0.143 C 
HETATM   19  C15 UNL     1      28.743   8.789  46.542  1.00  0.00     0.040 C 
HETATM   20  O2  UNL     1      32.177   5.114  47.141  1.00  0.00    -0.332 OA
HETATM   21  C16 UNL     1      32.407   5.753  45.897  1.00  0.00     0.205 C 
HETATM   22  C17 UNL     1      32.588   7.243  46.110  1.00  0.00     0.002 C 
HETATM   23  C18 UNL     1      32.979   8.505  46.193  1.00  0.00     0.031 C 
HETATM   24  H7  UNL     1      30.041   4.330  47.606  1.00  0.00     0.168 HD
ENDROOT
BRANCH   1  25
HETATM   25  O1  UNL     1      34.013  10.379  46.144  1.00  0.00    -0.360 OA
HETATM   26  C1  UNL     1      34.923   9.673  45.366  1.00  0.00     0.209 C 
ENDBRANCH   1  25
TORSDOF 1
ENDMDL
MODEL 8
REMARK VINA RESULT:      -7.5      3.563      6.884
REMARK  1 active torsions:
REMARK  status: ('A' for Active; 'I' for Inactive)
REMARK    1  A    between atoms: O1_2  and  C2_3 
ROOT
HETATM    1  C2  UNL     1      22.636   0.713  51.897  1.00  0.00     0.054 C 
HETATM    2  C3  UNL     1      23.658   1.539  52.053  1.00  0.00     0.081 C 
HETATM    3  C4  UNL     1      24.814   2.079  52.757  1.00  0.00     0.014 C 
HETATM    4  C5  UNL     1      24.675   3.233  53.418  1.00  0.00     0.065 C 
HETATM    5  N1  UNL     1      23.786   3.994  52.854  1.00  0.00    -0.111 NA
HETATM    6  N2  UNL     1      23.942   4.072  51.476  1.00  0.00    -0.251 N 
HETATM    7  S1  UNL     1      22.214   4.087  51.960  1.00  0.00     0.017 SA
HETATM    8  C6  UNL     1      21.238   4.191  50.434  1.00  0.00     0.131 C 
HETATM    9  C7  UNL     1      21.554   4.270  49.125  1.00  0.00     0.151 C 
HETATM   10  N3  UNL     1      22.509   4.987  48.349  1.00  0.00    -0.336 N 
HETATM   11  C8  UNL     1      23.794   5.542  48.606  1.00  0.00     0.045 A 
HETATM   12  C9  UNL     1      23.842   6.586  47.701  1.00  0.00     0.072 A 
HETATM   13  C10 UNL     1      24.990   7.357  47.694  1.00  0.00     0.118 A 
HETATM   14  F1  UNL     1      25.036   8.384  46.803  1.00  0.00    -0.206 F 
HETATM   15  C11 UNL     1      26.023   7.077  48.557  1.00  0.00     0.043 A 
HETATM   16  C12 UNL     1      25.909   6.038  49.419  1.00  0.00     0.014 A 
HETATM   17  C13 UNL     1      24.789   5.202  49.500  1.00  0.00    -0.007 A 
HETATM   18  C14 UNL     1      25.052   4.157  50.559  1.00  0.00     0.143 C 
HETATM   19  C15 UNL     1      25.561   2.935  49.902  1.00  0.00     0.040 C 
HETATM   20  O2  UNL     1      20.769   3.466  48.350  1.00  0.00    -0.332 OA
HETATM   21  C16 UNL     1      21.145   2.107  48.208  1.00  0.00     0.205 C 
HETATM   22  C17 UNL     1      21.642   1.569  49.535  1.00  0.00     0.002 C 
HETATM   23  C18 UNL     1      21.881   0.933  50.671  1.00  0.00     0.031 C 
HETATM   24  H7  UNL     1      22.126   5.096  47.406  1.00  0.00     0.168 HD
ENDROOT
BRANCH   1  25
HETATM   25  O1  UNL     1      21.885  -0.347  52.388  1.00  0.00    -0.360 OA
HETATM   26  C1  UNL     1      22.236  -1.133  53.479  1.00  0.00     0.209 C 
ENDBRANCH   1  25
TORSDOF 1
ENDMDL
MODEL 9
REMARK VINA RESULT:      -7.4      3.391      4.898
REMARK  1 active torsions:
REMARK  status: ('A' for Active; 'I' for Inactive)
REMARK    1  A    between atoms: O1_2  and  C2_3 
ROOT
HETATM    1  C2  UNL     1      18.314   3.292  48.324  1.00  0.00     0.054 C 
HETATM    2  C3  UNL     1      17.971   2.822  49.513  1.00  0.00     0.081 C 
HETATM    3  C4  UNL     1      17.062   2.624  50.634  1.00  0.00     0.014 C 
HETATM    4  C5  UNL     1      17.255   3.344  51.745  1.00  0.00     0.065 C 
HETATM    5  N1  UNL     1      18.513   3.625  51.910  1.00  0.00    -0.111 NA
HETATM    6  N2  UNL     1      19.339   2.525  51.720  1.00  0.00    -0.251 N 
HETATM    7  S1  UNL     1      20.090   4.043  51.126  1.00  0.00     0.017 SA
HETATM    8  C6  UNL     1      21.716   3.600  50.452  1.00  0.00     0.131 C 
HETATM    9  C7  UNL     1      22.401   2.442  50.346  1.00  0.00     0.151 C 
HETATM   10  N3  UNL     1      22.647   1.324  51.191  1.00  0.00    -0.336 N 
HETATM   11  C8  UNL     1      21.954   0.716  52.275  1.00  0.00     0.045 A 
HETATM   12  C9  UNL     1      22.988   0.154  52.999  1.00  0.00     0.072 A 
HETATM   13  C10 UNL     1      22.648  -0.528  54.153  1.00  0.00     0.118 A 
HETATM   14  F1  UNL     1      23.668  -1.080  54.865  1.00  0.00    -0.206 F 
HETATM   15  C11 UNL     1      21.333  -0.628  54.541  1.00  0.00     0.043 A 
HETATM   16  C12 UNL     1      20.368  -0.053  53.783  1.00  0.00     0.014 A 
HETATM   17  C13 UNL     1      20.614   0.655  52.601  1.00  0.00    -0.007 A 
HETATM   18  C14 UNL     1      19.290   1.121  52.042  1.00  0.00     0.143 C 
HETATM   19  C15 UNL     1      18.836   0.146  51.028  1.00  0.00     0.040 C 
HETATM   20  O2  UNL     1      23.007   2.306  49.130  1.00  0.00    -0.332 OA
HETATM   21  C16 UNL     1      22.240   1.779  48.060  1.00  0.00     0.205 C 
HETATM   22  C17 UNL     1      20.835   2.346  48.107  1.00  0.00     0.002 C 
HETATM   23  C18 UNL     1      19.665   2.934  47.914  1.00  0.00     0.031 C 
HETATM   24  H7  UNL     1      23.538   0.907  50.906  1.00  0.00     0.168 HD
ENDROOT
BRANCH   1  25
HETATM   25  O1  UNL     1      17.967   4.023  47.196  1.00  0.00    -0.360 OA
HETATM   26  C1  UNL     1      18.765   4.991  46.598  1.00  0.00     0.209 C 
ENDBRANCH   1  25
TORSDOF 1
ENDMDL
