MODEL 1
REMARK VINA RESULT:      -7.5      0.000      0.000
REMARK  4 active torsions:
REMARK  status: ('A' for Active; 'I' for Inactive)
REMARK    1  A    between atoms: C1_2  and  C2_3 
REMARK       I    between atoms: C1_2  and  N1_11 
REMARK    2  A    between atoms: C2_3  and  C3_4 
REMARK    3  A    between atoms: N1_11  and  S1_12 
REMARK    4  A    between atoms: S1_12  and  C9_15 
ROOT
HETATM    1  O1  UNL     1      24.253   2.899  53.181  1.00  0.00    -0.272 OA
HETATM    2  C1  UNL     1      24.230   1.673  52.898  1.00  0.00     0.235 C 
HETATM    3  N1  UNL     1      23.655   1.617  51.574  1.00  0.00    -0.250 N 
HETATM    4  H8  UNL     1      23.491   0.714  51.026  1.00  0.00     0.181 HD
ENDROOT
BRANCH   3   5
HETATM    5  S1  UNL     1      23.203   3.138  50.832  1.00  0.00     0.265 S 
HETATM    6  O3  UNL     1      22.322   2.793  49.664  1.00  0.00    -0.200 OA
HETATM    7  O4  UNL     1      22.522   4.038  51.793  1.00  0.00    -0.200 OA
BRANCH   5   8
HETATM    8  C9  UNL     1      24.651   3.860  50.124  1.00  0.00     0.080 A 
HETATM    9  C10 UNL     1      25.765   3.082  49.916  1.00  0.00     0.027 A 
HETATM   10  C11 UNL     1      26.899   3.674  49.354  1.00  0.00     0.020 A 
HETATM   11  C12 UNL     1      26.945   5.006  49.000  1.00  0.00     0.011 A 
HETATM   12 BR1  UNL     1      28.505   5.799  48.233  1.00  0.00    -0.051 Br
HETATM   13  C13 UNL     1      25.828   5.773  49.213  1.00  0.00     0.020 A 
HETATM   14  C14 UNL     1      24.729   5.188  49.759  1.00  0.00     0.027 A 
ENDBRANCH   5   8
ENDBRANCH   3   5
BRANCH   2  15
HETATM   15  C2  UNL     1      24.564   0.348  53.404  1.00  0.00     0.142 C 
BRANCH  15  16
HETATM   16  C3  UNL     1      25.963   0.020  53.607  1.00  0.00    -0.048 A 
HETATM   17  C4  UNL     1      26.856   0.652  54.310  1.00  0.00     0.009 A 
HETATM   18  C5  UNL     1      28.270   0.464  54.613  1.00  0.00     0.025 A 
HETATM   19  C6  UNL     1      28.983  -0.552  54.155  1.00  0.00     0.141 A 
HETATM   20  O2  UNL     1      28.632  -1.621  53.341  1.00  0.00    -0.335 OA
HETATM   21  C7  UNL     1      27.411  -1.912  52.751  1.00  0.00     0.141 A 
HETATM   22  C8  UNL     1      26.273  -1.223  52.858  1.00  0.00     0.032 A 
ENDBRANCH  15  16
ENDBRANCH   2  15
TORSDOF 4
ENDMDL
MODEL 2
REMARK VINA RESULT:      -7.5      1.237      2.128
REMARK  4 active torsions:
REMARK  status: ('A' for Active; 'I' for Inactive)
REMARK    1  A    between atoms: C1_2  and  C2_3 
REMARK       I    between atoms: C1_2  and  N1_11 
REMARK    2  A    between atoms: C2_3  and  C3_4 
REMARK    3  A    between atoms: N1_11  and  S1_12 
REMARK    4  A    between atoms: S1_12  and  C9_15 
ROOT
HETATM    1  O1  UNL     1      23.921   1.722  52.511  1.00  0.00    -0.272 OA
HETATM    2  C1  UNL     1      25.077   1.825  52.997  1.00  0.00     0.235 C 
HETATM    3  N1  UNL     1      25.686   2.907  52.258  1.00  0.00    -0.250 N 
HETATM    4  H8  UNL     1      26.681   3.263  52.420  1.00  0.00     0.181 HD
ENDROOT
BRANCH   3   5
HETATM    5  S1  UNL     1      24.715   3.677  51.020  1.00  0.00     0.265 S 
HETATM    6  O3  UNL     1      24.222   2.574  50.124  1.00  0.00    -0.200 OA
HETATM    7  O4  UNL     1      23.599   4.458  51.602  1.00  0.00    -0.200 OA
BRANCH   5   8
HETATM    8  C9  UNL     1      25.783   4.654  50.007  1.00  0.00     0.080 A 
HETATM    9  C10 UNL     1      25.518   5.992  49.837  1.00  0.00     0.027 A 
HETATM   10  C11 UNL     1      26.376   6.746  49.032  1.00  0.00     0.020 A 
HETATM   11  C12 UNL     1      27.476   6.202  48.403  1.00  0.00     0.011 A 
HETATM   12 BR1  UNL     1      28.639   7.248  47.305  1.00  0.00    -0.051 Br
HETATM   13  C13 UNL     1      27.730   4.865  48.579  1.00  0.00     0.020 A 
HETATM   14  C14 UNL     1      26.890   4.141  49.365  1.00  0.00     0.027 A 
ENDBRANCH   5   8
ENDBRANCH   3   5
BRANCH   2  15
HETATM   15  C2  UNL     1      25.982   1.270  53.996  1.00  0.00     0.142 C 
BRANCH  15  16
HETATM   16  C3  UNL     1      26.744   0.084  53.651  1.00  0.00    -0.048 A 
HETATM   17  C4  UNL     1      26.376  -0.948  52.951  1.00  0.00     0.009 A 
HETATM   18  C5  UNL     1      27.001  -2.194  52.522  1.00  0.00     0.025 A 
HETATM   19  C6  UNL     1      28.249  -2.520  52.814  1.00  0.00     0.141 A 
HETATM   20  O2  UNL     1      29.224  -1.845  53.536  1.00  0.00    -0.335 OA
HETATM   21  C7  UNL     1      29.148  -0.622  54.186  1.00  0.00     0.141 A 
HETATM   22  C8  UNL     1      28.101   0.203  54.240  1.00  0.00     0.032 A 
ENDBRANCH  15  16
ENDBRANCH   2  15
TORSDOF 4
ENDMDL
MODEL 3
REMARK VINA RESULT:      -7.5      4.016      7.140
REMARK  4 active torsions:
REMARK  status: ('A' for Active; 'I' for Inactive)
REMARK    1  A    between atoms: C1_2  and  C2_3 
REMARK       I    between atoms: C1_2  and  N1_11 
REMARK    2  A    between atoms: C2_3  and  C3_4 
REMARK    3  A    between atoms: N1_11  and  S1_12 
REMARK    4  A    between atoms: S1_12  and  C9_15 
ROOT
HETATM    1  O1  UNL     1      27.257   2.617  51.746  1.00  0.00    -0.272 OA
HETATM    2  C1  UNL     1      26.523   2.747  50.732  1.00  0.00     0.235 C 
HETATM    3  N1  UNL     1      25.257   2.170  51.121  1.00  0.00    -0.250 N 
HETATM    4  H8  UNL     1      24.399   2.117  50.487  1.00  0.00     0.181 HD
ENDROOT
BRANCH   3   5
HETATM    5  S1  UNL     1      25.140   1.521  52.744  1.00  0.00     0.265 S 
HETATM    6  O3  UNL     1      26.080   0.349  52.800  1.00  0.00    -0.200 OA
HETATM    7  O4  UNL     1      25.464   2.541  53.769  1.00  0.00    -0.200 OA
BRANCH   5   8
HETATM    8  C9  UNL     1      23.527   0.831  52.949  1.00  0.00     0.080 A 
HETATM    9  C10 UNL     1      23.376  -0.349  53.637  1.00  0.00     0.027 A 
HETATM   10  C11 UNL     1      22.091  -0.876  53.786  1.00  0.00     0.020 A 
HETATM   11  C12 UNL     1      20.969  -0.260  53.273  1.00  0.00     0.011 A 
HETATM   12 BR1  UNL     1      19.218  -0.996  53.486  1.00  0.00    -0.051 Br
HETATM   13  C13 UNL     1      21.131   0.917  52.587  1.00  0.00     0.020 A 
HETATM   14  C14 UNL     1      22.385   1.422  52.447  1.00  0.00     0.027 A 
ENDBRANCH   5   8
ENDBRANCH   3   5
BRANCH   2  15
HETATM   15  C2  UNL     1      26.495   3.251  49.365  1.00  0.00     0.142 C 
BRANCH  15  16
HETATM   16  C3  UNL     1      26.917   4.619  49.126  1.00  0.00    -0.048 A 
HETATM   17  C4  UNL     1      27.976   5.051  48.507  1.00  0.00     0.009 A 
HETATM   18  C5  UNL     1      28.536   6.359  48.188  1.00  0.00     0.025 A 
HETATM   19  C6  UNL     1      27.956   7.500  48.520  1.00  0.00     0.141 A 
HETATM   20  O2  UNL     1      26.772   7.759  49.196  1.00  0.00    -0.335 OA
HETATM   21  C7  UNL     1      25.859   6.869  49.744  1.00  0.00     0.141 A 
HETATM   22  C8  UNL     1      25.911   5.537  49.719  1.00  0.00     0.032 A 
ENDBRANCH  15  16
ENDBRANCH   2  15
TORSDOF 4
ENDMDL
MODEL 4
REMARK VINA RESULT:      -7.4      3.616      4.816
REMARK  4 active torsions:
REMARK  status: ('A' for Active; 'I' for Inactive)
REMARK    1  A    between atoms: C1_2  and  C2_3 
REMARK       I    between atoms: C1_2  and  N1_11 
REMARK    2  A    between atoms: C2_3  and  C3_4 
REMARK    3  A    between atoms: N1_11  and  S1_12 
REMARK    4  A    between atoms: S1_12  and  C9_15 
ROOT
HETATM    1  O1  UNL     1      25.977   2.200  51.058  1.00  0.00    -0.272 OA
HETATM    2  C1  UNL     1      26.444   2.293  52.223  1.00  0.00     0.235 C 
HETATM    3  N1  UNL     1      25.450   3.044  52.955  1.00  0.00    -0.250 N 
HETATM    4  H8  UNL     1      25.531   3.304  53.988  1.00  0.00     0.181 HD
ENDROOT
BRANCH   3   5
HETATM    5  S1  UNL     1      24.024   3.553  52.074  1.00  0.00     0.265 S 
HETATM    6  O3  UNL     1      23.567   4.834  52.715  1.00  0.00    -0.200 OA
HETATM    7  O4  UNL     1      24.302   3.725  50.629  1.00  0.00    -0.200 OA
BRANCH   5   8
HETATM    8  C9  UNL     1      22.734   2.389  52.392  1.00  0.00     0.080 A 
HETATM    9  C10 UNL     1      21.422   2.794  52.321  1.00  0.00     0.027 A 
HETATM   10  C11 UNL     1      20.418   1.857  52.576  1.00  0.00     0.020 A 
HETATM   11  C12 UNL     1      20.690   0.543  52.894  1.00  0.00     0.011 A 
HETATM   12 BR1  UNL     1      19.303  -0.726  53.240  1.00  0.00    -0.051 Br
HETATM   13  C13 UNL     1      22.002   0.150  52.963  1.00  0.00     0.020 A 
HETATM   14  C14 UNL     1      22.972   1.069  52.713  1.00  0.00     0.027 A 
ENDBRANCH   5   8
ENDBRANCH   3   5
BRANCH   2  15
HETATM   15  C2  UNL     1      27.579   1.928  53.062  1.00  0.00     0.142 C 
BRANCH  15  16
HETATM   16  C3  UNL     1      27.984   0.535  53.105  1.00  0.00    -0.048 A 
HETATM   17  C4  UNL     1      29.137   0.030  53.430  1.00  0.00     0.009 A 
HETATM   18  C5  UNL     1      29.699  -1.313  53.524  1.00  0.00     0.025 A 
HETATM   19  C6  UNL     1      29.008  -2.410  53.262  1.00  0.00     0.141 A 
HETATM   20  O2  UNL     1      27.690  -2.586  52.865  1.00  0.00    -0.335 OA
HETATM   21  C7  UNL     1      26.715  -1.634  52.604  1.00  0.00     0.141 A 
HETATM   22  C8  UNL     1      26.830  -0.308  52.704  1.00  0.00     0.032 A 
ENDBRANCH  15  16
ENDBRANCH   2  15
TORSDOF 4
ENDMDL
MODEL 5
REMARK VINA RESULT:      -7.4      1.552      2.290
REMARK  4 active torsions:
REMARK  status: ('A' for Active; 'I' for Inactive)
REMARK    1  A    between atoms: C1_2  and  C2_3 
REMARK       I    between atoms: C1_2  and  N1_11 
REMARK    2  A    between atoms: C2_3  and  C3_4 
REMARK    3  A    between atoms: N1_11  and  S1_12 
REMARK    4  A    between atoms: S1_12  and  C9_15 
ROOT
HETATM    1  O1  UNL     1      23.619   4.339  52.195  1.00  0.00    -0.272 OA
HETATM    2  C1  UNL     1      23.322   3.153  51.897  1.00  0.00     0.235 C 
HETATM    3  N1  UNL     1      23.020   3.198  50.484  1.00  0.00    -0.250 N 
HETATM    4  H8  UNL     1      22.729   2.350  49.903  1.00  0.00     0.181 HD
ENDROOT
BRANCH   3   5
HETATM    5  S1  UNL     1      23.147   4.753  49.688  1.00  0.00     0.265 S 
HETATM    6  O3  UNL     1      22.430   4.615  48.374  1.00  0.00    -0.200 OA
HETATM    7  O4  UNL     1      22.579   5.843  50.516  1.00  0.00    -0.200 OA
BRANCH   5   8
HETATM    8  C9  UNL     1      24.841   5.022  49.266  1.00  0.00     0.080 A 
HETATM    9  C10 UNL     1      25.228   6.239  48.756  1.00  0.00     0.027 A 
HETATM   10  C11 UNL     1      26.573   6.429  48.429  1.00  0.00     0.020 A 
HETATM   11  C12 UNL     1      27.526   5.447  48.599  1.00  0.00     0.011 A 
HETATM   12 BR1  UNL     1      29.362   5.725  48.146  1.00  0.00    -0.051 Br
HETATM   13  C13 UNL     1      27.128   4.237  49.108  1.00  0.00     0.020 A 
HETATM   14  C14 UNL     1      25.818   4.062  49.423  1.00  0.00     0.027 A 
ENDBRANCH   5   8
ENDBRANCH   3   5
BRANCH   2  15
HETATM   15  C2  UNL     1      23.183   1.809  52.442  1.00  0.00     0.142 C 
BRANCH  15  16
HETATM   16  C3  UNL     1      24.381   1.010  52.620  1.00  0.00    -0.048 A 
HETATM   17  C4  UNL     1      25.485   1.029  51.933  1.00  0.00     0.009 A 
HETATM   18  C5  UNL     1      26.753   0.310  51.977  1.00  0.00     0.025 A 
HETATM   19  C6  UNL     1      27.032  -0.618  52.877  1.00  0.00     0.141 A 
HETATM   20  O2  UNL     1      26.281  -1.126  53.929  1.00  0.00    -0.335 OA
HETATM   21  C7  UNL     1      24.990  -0.806  54.322  1.00  0.00     0.141 A 
HETATM   22  C8  UNL     1      24.176   0.098  53.774  1.00  0.00     0.032 A 
ENDBRANCH  15  16
ENDBRANCH   2  15
TORSDOF 4
ENDMDL
MODEL 6
REMARK VINA RESULT:      -7.4      1.094      1.912
REMARK  4 active torsions:
REMARK  status: ('A' for Active; 'I' for Inactive)
REMARK    1  A    between atoms: C1_2  and  C2_3 
REMARK       I    between atoms: C1_2  and  N1_11 
REMARK    2  A    between atoms: C2_3  and  C3_4 
REMARK    3  A    between atoms: N1_11  and  S1_12 
REMARK    4  A    between atoms: S1_12  and  C9_15 
ROOT
HETATM    1  O1  UNL     1      23.217   3.257  52.385  1.00  0.00    -0.272 OA
HETATM    2  C1  UNL     1      23.526   2.037  52.366  1.00  0.00     0.235 C 
HETATM    3  N1  UNL     1      23.450   1.664  50.972  1.00  0.00    -0.250 N 
HETATM    4  H8  UNL     1      23.656   0.684  50.598  1.00  0.00     0.181 HD
ENDROOT
BRANCH   3   5
HETATM    5  S1  UNL     1      22.991   2.914  49.833  1.00  0.00     0.265 S 
HETATM    6  O3  UNL     1      22.609   2.207  48.562  1.00  0.00    -0.200 OA
HETATM    7  O4  UNL     1      21.887   3.753  50.354  1.00  0.00    -0.200 OA
BRANCH   5   8
HETATM    8  C9  UNL     1      24.433   3.850  49.428  1.00  0.00     0.080 A 
HETATM    9  C10 UNL     1      24.297   5.126  48.935  1.00  0.00     0.027 A 
HETATM   10  C11 UNL     1      25.451   5.848  48.622  1.00  0.00     0.020 A 
HETATM   11  C12 UNL     1      26.720   5.332  48.787  1.00  0.00     0.011 A 
HETATM   12 BR1  UNL     1      28.288   6.334  48.352  1.00  0.00    -0.051 Br
HETATM   13  C13 UNL     1      26.844   4.057  49.279  1.00  0.00     0.020 A 
HETATM   14  C14 UNL     1      25.715   3.363  49.581  1.00  0.00     0.027 A 
ENDBRANCH   5   8
ENDBRANCH   3   5
BRANCH   2  15
HETATM   15  C2  UNL     1      23.917   0.916  53.210  1.00  0.00     0.142 C 
BRANCH  15  16
HETATM   16  C3  UNL     1      25.310   0.508  53.213  1.00  0.00    -0.048 A 
HETATM   17  C4  UNL     1      25.819  -0.662  52.963  1.00  0.00     0.009 A 
HETATM   18  C5  UNL     1      27.162  -1.229  52.923  1.00  0.00     0.025 A 
HETATM   19  C6  UNL     1      28.256  -0.524  53.163  1.00  0.00     0.141 A 
HETATM   20  O2  UNL     1      28.427   0.815  53.486  1.00  0.00    -0.335 OA
HETATM   21  C7  UNL     1      27.472   1.803  53.674  1.00  0.00     0.141 A 
HETATM   22  C8  UNL     1      26.148   1.683  53.560  1.00  0.00     0.032 A 
ENDBRANCH  15  16
ENDBRANCH   2  15
TORSDOF 4
ENDMDL
MODEL 7
REMARK VINA RESULT:      -7.2      3.657      6.979
REMARK  4 active torsions:
REMARK  status: ('A' for Active; 'I' for Inactive)
REMARK    1  A    between atoms: C1_2  and  C2_3 
REMARK       I    between atoms: C1_2  and  N1_11 
REMARK    2  A    between atoms: C2_3  and  C3_4 
REMARK    3  A    between atoms: N1_11  and  S1_12 
REMARK    4  A    between atoms: S1_12  and  C9_15 
ROOT
HETATM    1  O1  UNL     1      25.741   2.362  53.458  1.00  0.00    -0.272 OA
HETATM    2  C1  UNL     1      26.230   2.098  52.329  1.00  0.00     0.235 C 
HETATM    3  N1  UNL     1      26.324   0.656  52.303  1.00  0.00    -0.250 N 
HETATM    4  H8  UNL     1      26.702   0.092  51.477  1.00  0.00     0.181 HD
ENDROOT
BRANCH   3   5
HETATM    5  S1  UNL     1      25.778  -0.208  53.725  1.00  0.00     0.265 S 
HETATM    6  O3  UNL     1      26.305  -1.610  53.596  1.00  0.00    -0.200 OA
HETATM    7  O4  UNL     1      26.237   0.443  54.974  1.00  0.00    -0.200 OA
BRANCH   5   8
HETATM    8  C9  UNL     1      24.021  -0.363  53.637  1.00  0.00     0.080 A 
HETATM    9  C10 UNL     1      23.351   0.123  52.540  1.00  0.00     0.027 A 
HETATM   10  C11 UNL     1      21.961  -0.011  52.493  1.00  0.00     0.020 A 
HETATM   11  C12 UNL     1      21.236  -0.612  53.500  1.00  0.00     0.011 A 
HETATM   12 BR1  UNL     1      19.335  -0.786  53.418  1.00  0.00    -0.051 Br
HETATM   13  C13 UNL     1      21.915  -1.092  54.591  1.00  0.00     0.020 A 
HETATM   14  C14 UNL     1      23.267  -0.958  54.628  1.00  0.00     0.027 A 
ENDBRANCH   5   8
ENDBRANCH   3   5
BRANCH   2  15
HETATM   15  C2  UNL     1      26.712   2.699  51.093  1.00  0.00     0.142 C 
BRANCH  15  16
HETATM   16  C3  UNL     1      25.795   3.517  50.321  1.00  0.00    -0.048 A 
HETATM   17  C4  UNL     1      26.028   4.630  49.690  1.00  0.00     0.009 A 
HETATM   18  C5  UNL     1      25.239   5.558  48.887  1.00  0.00     0.025 A 
HETATM   19  C6  UNL     1      23.956   5.380  48.619  1.00  0.00     0.141 A 
HETATM   20  O2  UNL     1      23.080   4.367  48.983  1.00  0.00    -0.335 OA
HETATM   21  C7  UNL     1      23.308   3.246  49.768  1.00  0.00     0.141 A 
HETATM   22  C8  UNL     1      24.456   2.877  50.339  1.00  0.00     0.032 A 
ENDBRANCH  15  16
ENDBRANCH   2  15
TORSDOF 4
ENDMDL
MODEL 8
REMARK VINA RESULT:      -6.9      3.017      6.513
REMARK  4 active torsions:
REMARK  status: ('A' for Active; 'I' for Inactive)
REMARK    1  A    between atoms: C1_2  and  C2_3 
REMARK       I    between atoms: C1_2  and  N1_11 
REMARK    2  A    between atoms: C2_3  and  C3_4 
REMARK    3  A    between atoms: N1_11  and  S1_12 
REMARK    4  A    between atoms: S1_12  and  C9_15 
ROOT
HETATM    1  O1  UNL     1      24.408   3.068  49.065  1.00  0.00    -0.272 OA
HETATM    2  C1  UNL     1      24.518   4.207  49.588  1.00  0.00     0.235 C 
HETATM    3  N1  UNL     1      24.125   4.015  50.965  1.00  0.00    -0.250 N 
HETATM    4  H8  UNL     1      24.105   4.791  51.700  1.00  0.00     0.181 HD
ENDROOT
BRANCH   3   5
HETATM    5  S1  UNL     1      23.655   2.397  51.444  1.00  0.00     0.265 S 
HETATM    6  O3  UNL     1      22.781   2.553  52.658  1.00  0.00    -0.200 OA
HETATM    7  O4  UNL     1      22.959   1.679  50.350  1.00  0.00    -0.200 OA
BRANCH   5   8
HETATM    8  C9  UNL     1      25.095   1.549  52.015  1.00  0.00     0.080 A 
HETATM    9  C10 UNL     1      26.315   2.180  51.974  1.00  0.00     0.027 A 
HETATM   10  C11 UNL     1      27.440   1.490  52.431  1.00  0.00     0.020 A 
HETATM   11  C12 UNL     1      27.376   0.202  52.921  1.00  0.00     0.011 A 
HETATM   12 BR1  UNL     1      28.926  -0.727  53.541  1.00  0.00    -0.051 Br
HETATM   13  C13 UNL     1      26.153  -0.419  52.956  1.00  0.00     0.020 A 
HETATM   14  C14 UNL     1      25.064   0.261  52.509  1.00  0.00     0.027 A 
ENDBRANCH   5   8
ENDBRANCH   3   5
BRANCH   2  15
HETATM   15  C2  UNL     1      24.886   5.590  49.314  1.00  0.00     0.142 C 
BRANCH  15  16
HETATM   16  C3  UNL     1      26.270   5.884  48.990  1.00  0.00    -0.048 A 
HETATM   17  C4  UNL     1      27.231   5.060  48.692  1.00  0.00     0.009 A 
HETATM   18  C5  UNL     1      28.643   5.185  48.350  1.00  0.00     0.025 A 
HETATM   19  C6  UNL     1      29.271   6.346  48.263  1.00  0.00     0.141 A 
HETATM   20  O2  UNL     1      28.818   7.645  48.450  1.00  0.00    -0.335 OA
HETATM   21  C7  UNL     1      27.556   8.093  48.812  1.00  0.00     0.141 A 
HETATM   22  C8  UNL     1      26.469   7.354  49.043  1.00  0.00     0.032 A 
ENDBRANCH  15  16
ENDBRANCH   2  15
TORSDOF 4
ENDMDL
MODEL 9
REMARK VINA RESULT:      -6.8      2.792      6.611
REMARK  4 active torsions:
REMARK  status: ('A' for Active; 'I' for Inactive)
REMARK    1  A    between atoms: C1_2  and  C2_3 
REMARK       I    between atoms: C1_2  and  N1_11 
REMARK    2  A    between atoms: C2_3  and  C3_4 
REMARK    3  A    between atoms: N1_11  and  S1_12 
REMARK    4  A    between atoms: S1_12  and  C9_15 
ROOT
HETATM    1  O1  UNL     1      23.173   4.175  51.771  1.00  0.00    -0.272 OA
HETATM    2  C1  UNL     1      23.770   3.942  50.688  1.00  0.00     0.235 C 
HETATM    3  N1  UNL     1      24.569   2.770  50.958  1.00  0.00    -0.250 N 
HETATM    4  H8  UNL     1      25.207   2.297  50.242  1.00  0.00     0.181 HD
ENDROOT
BRANCH   3   5
HETATM    5  S1  UNL     1      24.474   2.090  52.569  1.00  0.00     0.265 S 
HETATM    6  O3  UNL     1      24.544   3.251  53.522  1.00  0.00    -0.200 OA
HETATM    7  O4  UNL     1      23.240   1.292  52.758  1.00  0.00    -0.200 OA
BRANCH   5   8
HETATM    8  C9  UNL     1      25.945   1.159  52.865  1.00  0.00     0.080 A 
HETATM    9  C10 UNL     1      27.046   1.781  53.404  1.00  0.00     0.027 A 
HETATM   10  C11 UNL     1      28.198   1.025  53.629  1.00  0.00     0.020 A 
HETATM   11  C12 UNL     1      28.276  -0.320  53.335  1.00  0.00     0.011 A 
HETATM   12 BR1  UNL     1      29.861  -1.339  53.649  1.00  0.00    -0.051 Br
HETATM   13  C13 UNL     1      27.172  -0.931  52.796  1.00  0.00     0.020 A 
HETATM   14  C14 UNL     1      26.055  -0.187  52.581  1.00  0.00     0.027 A 
ENDBRANCH   5   8
ENDBRANCH   3   5
BRANCH   2  15
HETATM   15  C2  UNL     1      23.934   4.411  49.318  1.00  0.00     0.142 C 
BRANCH  15  16
HETATM   16  C3  UNL     1      25.158   5.108  48.969  1.00  0.00    -0.048 A 
HETATM   17  C4  UNL     1      26.381   4.666  48.986  1.00  0.00     0.009 A 
HETATM   18  C5  UNL     1      27.694   5.220  48.675  1.00  0.00     0.025 A 
HETATM   19  C6  UNL     1      27.878   6.458  48.246  1.00  0.00     0.141 A 
HETATM   20  O2  UNL     1      26.975   7.480  47.992  1.00  0.00    -0.335 OA
HETATM   21  C7  UNL     1      25.596   7.493  48.145  1.00  0.00     0.141 A 
HETATM   22  C8  UNL     1      24.817   6.492  48.558  1.00  0.00     0.032 A 
ENDBRANCH  15  16
ENDBRANCH   2  15
TORSDOF 4
ENDMDL
