MODEL 1
REMARK VINA RESULT:      -6.9      0.000      0.000
REMARK  6 active torsions:
REMARK  status: ('A' for Active; 'I' for Inactive)
REMARK    1  A    between atoms: C2_2  and  C3_3 
REMARK    2  A    between atoms: C11_14  and  N4_15 
REMARK    3  A    between atoms: N4_15  and  C13_17 
REMARK    4  A    between atoms: C13_17  and  C14_18 
REMARK    5  A    between atoms: C15_19  and  C16_20 
REMARK    6  A    between atoms: C16_20  and  N5_21 
ROOT
HETATM    1  C3  UNL     1      25.278   2.137  53.311  1.00  0.00     0.007 C 
HETATM    2  C4  UNL     1      24.157   1.523  53.017  1.00  0.00     0.002 C 
HETATM    3  C5  UNL     1      24.178   0.066  53.323  1.00  0.00     0.068 C 
HETATM    4  C6  UNL     1      25.412  -0.624  53.510  1.00  0.00     0.101 C 
HETATM    5  N1  UNL     1      26.409  -1.167  53.645  1.00  0.00    -0.191 NA
HETATM    6  C7  UNL     1      23.128  -0.781  53.482  1.00  0.00     0.111 C 
HETATM    7  N2  UNL     1      21.859  -0.280  53.116  1.00  0.00    -0.365 N 
HETATM    8  C8  UNL     1      20.510  -0.017  53.532  1.00  0.00     0.273 C 
HETATM    9  N3  UNL     1      20.537   1.446  53.173  1.00  0.00    -0.275 NA
HETATM   10  C9  UNL     1      21.730   1.726  52.682  1.00  0.00     0.064 C 
HETATM   11  C10 UNL     1      21.540   0.447  51.850  1.00  0.00     0.181 C 
HETATM   12  C11 UNL     1      23.068   2.423  52.464  1.00  0.00     0.306 C 
ENDROOT
BRANCH   1  13
HETATM   13  C2  UNL     1      26.580   1.971  53.833  1.00  0.00    -0.026 C 
HETATM   14  C1  UNL     1      27.834   2.175  53.476  1.00  0.00     0.031 C 
ENDBRANCH   1  13
BRANCH  12  15
HETATM   15  N4  UNL     1      23.161   2.611  51.045  1.00  0.00     0.102 N 
HETATM   16  C12 UNL     1      22.723   3.960  50.749  1.00  0.00     0.311 C 
BRANCH  15  17
HETATM   17  C13 UNL     1      24.375   2.238  50.421  1.00  0.00     0.300 C 
BRANCH  17  18
HETATM   18  C14 UNL     1      25.010   3.435  49.761  1.00  0.00     0.001 C 
HETATM   19  C15 UNL     1      26.331   3.678  49.637  1.00  0.00    -0.008 C 
BRANCH  19  20
HETATM   20  C16 UNL     1      26.856   4.909  48.957  1.00  0.00     0.169 C 
BRANCH  20  21
HETATM   21  N5  UNL     1      28.210   4.733  48.582  1.00  0.00    -0.325 NA
HETATM   22  C17 UNL     1      28.962   5.671  48.208  1.00  0.00     0.164 C 
ENDBRANCH  20  21
ENDBRANCH  19  20
ENDBRANCH  17  18
ENDBRANCH  15  17
ENDBRANCH  12  15
TORSDOF 6
ENDMDL
MODEL 2
REMARK VINA RESULT:      -6.4      2.275      4.911
REMARK  6 active torsions:
REMARK  status: ('A' for Active; 'I' for Inactive)
REMARK    1  A    between atoms: C2_2  and  C3_3 
REMARK    2  A    between atoms: C11_14  and  N4_15 
REMARK    3  A    between atoms: N4_15  and  C13_17 
REMARK    4  A    between atoms: C13_17  and  C14_18 
REMARK    5  A    between atoms: C15_19  and  C16_20 
REMARK    6  A    between atoms: C16_20  and  N5_21 
ROOT
HETATM    1  C3  UNL     1      22.424   0.543  52.012  1.00  0.00     0.007 C 
HETATM    2  C4  UNL     1      23.615   0.535  52.562  1.00  0.00     0.002 C 
HETATM    3  C5  UNL     1      23.702  -0.319  53.778  1.00  0.00     0.068 C 
HETATM    4  C6  UNL     1      22.524  -0.722  54.475  1.00  0.00     0.101 C 
HETATM    5  N1  UNL     1      21.572  -1.027  55.031  1.00  0.00    -0.191 NA
HETATM    6  C7  UNL     1      24.808  -0.835  54.374  1.00  0.00     0.111 C 
HETATM    7  N2  UNL     1      26.052  -0.343  53.916  1.00  0.00    -0.365 N 
HETATM    8  C8  UNL     1      27.337  -0.666  53.364  1.00  0.00     0.273 C 
HETATM    9  N3  UNL     1      27.205   0.241  52.168  1.00  0.00    -0.275 NA
HETATM   10  C9  UNL     1      26.031   0.842  52.235  1.00  0.00     0.064 C 
HETATM   11  C10 UNL     1      26.397   1.096  53.707  1.00  0.00     0.181 C 
HETATM   12  C11 UNL     1      24.656   1.361  51.832  1.00  0.00     0.306 C 
ENDROOT
BRANCH   1  13
HETATM   13  C2  UNL     1      21.107   0.042  52.106  1.00  0.00    -0.026 C 
HETATM   14  C1  UNL     1      19.893   0.334  51.681  1.00  0.00     0.031 C 
ENDBRANCH   1  13
BRANCH  12  15
HETATM   15  N4  UNL     1      24.653   2.742  52.222  1.00  0.00     0.102 N 
HETATM   16  C12 UNL     1      25.003   3.530  51.057  1.00  0.00     0.311 C 
BRANCH  15  17
HETATM   17  C13 UNL     1      23.521   3.211  52.929  1.00  0.00     0.300 C 
BRANCH  17  18
HETATM   18  C14 UNL     1      22.770   4.220  52.099  1.00  0.00     0.001 C 
HETATM   19  C15 UNL     1      21.475   4.149  51.725  1.00  0.00    -0.008 C 
BRANCH  19  20
HETATM   20  C16 UNL     1      20.825   5.215  50.893  1.00  0.00     0.169 C 
BRANCH  20  21
HETATM   21  N5  UNL     1      21.763   6.217  50.543  1.00  0.00    -0.325 NA
HETATM   22  C17 UNL     1      21.553   7.451  50.677  1.00  0.00     0.164 C 
ENDBRANCH  20  21
ENDBRANCH  19  20
ENDBRANCH  17  18
ENDBRANCH  15  17
ENDBRANCH  12  15
TORSDOF 6
ENDMDL
MODEL 3
REMARK VINA RESULT:      -6.3      2.090      6.543
REMARK  6 active torsions:
REMARK  status: ('A' for Active; 'I' for Inactive)
REMARK    1  A    between atoms: C2_2  and  C3_3 
REMARK    2  A    between atoms: C11_14  and  N4_15 
REMARK    3  A    between atoms: N4_15  and  C13_17 
REMARK    4  A    between atoms: C13_17  and  C14_18 
REMARK    5  A    between atoms: C15_19  and  C16_20 
REMARK    6  A    between atoms: C16_20  and  N5_21 
ROOT
HETATM    1  C3  UNL     1      24.520   2.410  53.435  1.00  0.00     0.007 C 
HETATM    2  C4  UNL     1      25.606   1.675  53.439  1.00  0.00     0.002 C 
HETATM    3  C5  UNL     1      26.592   2.065  52.394  1.00  0.00     0.068 C 
HETATM    4  C6  UNL     1      26.197   2.857  51.275  1.00  0.00     0.101 C 
HETATM    5  N1  UNL     1      25.864   3.482  50.377  1.00  0.00    -0.191 NA
HETATM    6  C7  UNL     1      27.919   1.781  52.333  1.00  0.00     0.111 C 
HETATM    7  N2  UNL     1      28.398   0.828  53.260  1.00  0.00    -0.365 N 
HETATM    8  C8  UNL     1      29.335   0.547  54.311  1.00  0.00     0.273 C 
HETATM    9  N3  UNL     1      28.294   0.131  55.317  1.00  0.00    -0.275 NA
HETATM   10  C9  UNL     1      27.107   0.234  54.747  1.00  0.00     0.064 C 
HETATM   11  C10 UNL     1      27.765  -0.492  53.561  1.00  0.00     0.181 C 
HETATM   12  C11 UNL     1      25.648   0.612  54.520  1.00  0.00     0.306 C 
ENDROOT
BRANCH   1  13
HETATM   13  C2  UNL     1      23.861   3.489  52.807  1.00  0.00    -0.026 C 
HETATM   14  C1  UNL     1      22.691   3.766  52.263  1.00  0.00     0.031 C 
ENDBRANCH   1  13
BRANCH  12  15
HETATM   15  N4  UNL     1      25.005  -0.611  54.132  1.00  0.00     0.102 N 
HETATM   16  C12 UNL     1      24.491  -1.239  55.333  1.00  0.00     0.311 C 
BRANCH  15  17
HETATM   17  C13 UNL     1      24.081  -0.543  53.063  1.00  0.00     0.300 C 
BRANCH  17  18
HETATM   18  C14 UNL     1      22.677  -0.739  53.576  1.00  0.00     0.001 C 
HETATM   19  C15 UNL     1      21.594  -0.000  53.257  1.00  0.00    -0.008 C 
BRANCH  19  20
HETATM   20  C16 UNL     1      20.236  -0.285  53.830  1.00  0.00     0.169 C 
BRANCH  20  21
HETATM   21  N5  UNL     1      19.236  -0.143  52.838  1.00  0.00    -0.325 NA
HETATM   22  C17 UNL     1      19.467   0.234  51.659  1.00  0.00     0.164 C 
ENDBRANCH  20  21
ENDBRANCH  19  20
ENDBRANCH  17  18
ENDBRANCH  15  17
ENDBRANCH  12  15
TORSDOF 6
ENDMDL
MODEL 4
REMARK VINA RESULT:      -6.2      1.966      4.930
REMARK  6 active torsions:
REMARK  status: ('A' for Active; 'I' for Inactive)
REMARK    1  A    between atoms: C2_2  and  C3_3 
REMARK    2  A    between atoms: C11_14  and  N4_15 
REMARK    3  A    between atoms: N4_15  and  C13_17 
REMARK    4  A    between atoms: C13_17  and  C14_18 
REMARK    5  A    between atoms: C15_19  and  C16_20 
REMARK    6  A    between atoms: C16_20  and  N5_21 
ROOT
HETATM    1  C3  UNL     1      24.060   2.549  50.403  1.00  0.00     0.007 C 
HETATM    2  C4  UNL     1      22.903   2.656  51.011  1.00  0.00     0.002 C 
HETATM    3  C5  UNL     1      22.413   4.058  51.116  1.00  0.00     0.068 C 
HETATM    4  C6  UNL     1      23.306   5.159  50.951  1.00  0.00     0.101 C 
HETATM    5  N1  UNL     1      24.036   6.031  50.829  1.00  0.00    -0.191 NA
HETATM    6  C7  UNL     1      21.150   4.500  51.346  1.00  0.00     0.111 C 
HETATM    7  N2  UNL     1      20.207   3.522  51.738  1.00  0.00    -0.365 N 
HETATM    8  C8  UNL     1      18.944   2.900  51.463  1.00  0.00     0.273 C 
HETATM    9  N3  UNL     1      19.491   1.497  51.400  1.00  0.00    -0.275 NA
HETATM   10  C9  UNL     1      20.792   1.554  51.619  1.00  0.00     0.064 C 
HETATM   11  C10 UNL     1      20.417   2.480  52.789  1.00  0.00     0.181 C 
HETATM   12  C11 UNL     1      22.291   1.338  51.446  1.00  0.00     0.306 C 
ENDROOT
BRANCH   1  13
HETATM   13  C2  UNL     1      25.098   3.263  49.767  1.00  0.00    -0.026 C 
HETATM   14  C1  UNL     1      26.417   3.286  49.724  1.00  0.00     0.031 C 
ENDBRANCH   1  13
BRANCH  12  15
HETATM   15  N4  UNL     1      22.753   0.900  52.731  1.00  0.00     0.102 N 
HETATM   16  C12 UNL     1      22.637  -0.544  52.773  1.00  0.00     0.311 C 
BRANCH  15  17
HETATM   17  C13 UNL     1      23.999   1.402  53.175  1.00  0.00     0.300 C 
BRANCH  17  18
HETATM   18  C14 UNL     1      25.016   0.290  53.236  1.00  0.00     0.001 C 
HETATM   19  C15 UNL     1      26.189   0.236  52.572  1.00  0.00    -0.008 C 
BRANCH  19  20
HETATM   20  C16 UNL     1      27.130  -0.926  52.708  1.00  0.00     0.169 C 
BRANCH  20  21
HETATM   21  N5  UNL     1      27.789  -0.891  53.960  1.00  0.00    -0.325 NA
HETATM   22  C17 UNL     1      28.797  -0.177  54.203  1.00  0.00     0.164 C 
ENDBRANCH  20  21
ENDBRANCH  19  20
ENDBRANCH  17  18
ENDBRANCH  15  17
ENDBRANCH  12  15
TORSDOF 6
ENDMDL
MODEL 5
REMARK VINA RESULT:      -6.1      2.065      5.192
REMARK  6 active torsions:
REMARK  status: ('A' for Active; 'I' for Inactive)
REMARK    1  A    between atoms: C2_2  and  C3_3 
REMARK    2  A    between atoms: C11_14  and  N4_15 
REMARK    3  A    between atoms: N4_15  and  C13_17 
REMARK    4  A    between atoms: C13_17  and  C14_18 
REMARK    5  A    between atoms: C15_19  and  C16_20 
REMARK    6  A    between atoms: C16_20  and  N5_21 
ROOT
HETATM    1  C3  UNL     1      23.857   3.051  52.949  1.00  0.00     0.007 C 
HETATM    2  C4  UNL     1      24.609   1.987  52.796  1.00  0.00     0.002 C 
HETATM    3  C5  UNL     1      25.578   2.101  51.671  1.00  0.00     0.068 C 
HETATM    4  C6  UNL     1      25.396   3.075  50.645  1.00  0.00     0.101 C 
HETATM    5  N1  UNL     1      25.231   3.853  49.823  1.00  0.00    -0.191 NA
HETATM    6  C7  UNL     1      26.709   1.382  51.451  1.00  0.00     0.111 C 
HETATM    7  N2  UNL     1      26.897   0.245  52.270  1.00  0.00    -0.365 N 
HETATM    8  C8  UNL     1      27.759  -0.433  53.196  1.00  0.00     0.273 C 
HETATM    9  N3  UNL     1      26.726  -0.549  54.287  1.00  0.00    -0.275 NA
HETATM   10  C9  UNL     1      25.609   0.008  53.856  1.00  0.00     0.064 C 
HETATM   11  C10 UNL     1      25.866  -0.794  52.569  1.00  0.00     0.181 C 
HETATM   12  C11 UNL     1      24.364   0.885  53.809  1.00  0.00     0.306 C 
ENDROOT
BRANCH   1  13
HETATM   13  C2  UNL     1      23.571   4.341  52.454  1.00  0.00    -0.026 C 
HETATM   14  C1  UNL     1      22.536   5.047  52.039  1.00  0.00     0.031 C 
ENDBRANCH   1  13
BRANCH  12  15
HETATM   15  N4  UNL     1      23.300   0.000  53.431  1.00  0.00     0.102 N 
HETATM   16  C12 UNL     1      23.160  -0.993  54.477  1.00  0.00     0.311 C 
BRANCH  15  17
HETATM   17  C13 UNL     1      22.084   0.592  53.017  1.00  0.00     0.300 C 
BRANCH  17  18
HETATM   18  C14 UNL     1      21.837   0.304  51.557  1.00  0.00     0.001 C 
HETATM   19  C15 UNL     1      21.590   1.212  50.590  1.00  0.00    -0.008 C 
BRANCH  19  20
HETATM   20  C16 UNL     1      21.356   0.814  49.162  1.00  0.00     0.169 C 
BRANCH  20  21
HETATM   21  N5  UNL     1      21.486   1.933  48.304  1.00  0.00    -0.325 NA
HETATM   22  C17 UNL     1      22.533   2.204  47.660  1.00  0.00     0.164 C 
ENDBRANCH  20  21
ENDBRANCH  19  20
ENDBRANCH  17  18
ENDBRANCH  15  17
ENDBRANCH  12  15
TORSDOF 6
ENDMDL
MODEL 6
REMARK VINA RESULT:      -6.0      2.195      5.717
REMARK  6 active torsions:
REMARK  status: ('A' for Active; 'I' for Inactive)
REMARK    1  A    between atoms: C2_2  and  C3_3 
REMARK    2  A    between atoms: C11_14  and  N4_15 
REMARK    3  A    between atoms: N4_15  and  C13_17 
REMARK    4  A    between atoms: C13_17  and  C14_18 
REMARK    5  A    between atoms: C15_19  and  C16_20 
REMARK    6  A    between atoms: C16_20  and  N5_21 
ROOT
HETATM    1  C3  UNL     1      25.570   4.410  49.505  1.00  0.00     0.007 C 
HETATM    2  C4  UNL     1      24.433   4.573  50.139  1.00  0.00     0.002 C 
HETATM    3  C5  UNL     1      24.122   5.997  50.444  1.00  0.00     0.068 C 
HETATM    4  C6  UNL     1      25.146   6.991  50.421  1.00  0.00     0.101 C 
HETATM    5  N1  UNL     1      25.978   7.774  50.411  1.00  0.00    -0.191 NA
HETATM    6  C7  UNL     1      22.923   6.555  50.751  1.00  0.00     0.111 C 
HETATM    7  N2  UNL     1      21.865   5.657  51.018  1.00  0.00    -0.365 N 
HETATM    8  C8  UNL     1      20.534   5.240  50.677  1.00  0.00     0.273 C 
HETATM    9  N3  UNL     1      20.903   3.803  50.413  1.00  0.00    -0.275 NA
HETATM   10  C9  UNL     1      22.200   3.667  50.619  1.00  0.00     0.064 C 
HETATM   11  C10 UNL     1      21.940   4.461  51.911  1.00  0.00     0.181 C 
HETATM   12  C11 UNL     1      23.661   3.294  50.395  1.00  0.00     0.306 C 
ENDROOT
BRANCH   1  13
HETATM   13  C2  UNL     1      26.691   5.072  48.960  1.00  0.00    -0.026 C 
HETATM   14  C1  UNL     1      27.930   4.806  48.593  1.00  0.00     0.031 C 
ENDBRANCH   1  13
BRANCH  12  15
HETATM   15  N4  UNL     1      24.061   2.627  51.601  1.00  0.00     0.102 N 
HETATM   16  C12 UNL     1      23.367   1.356  51.654  1.00  0.00     0.311 C 
BRANCH  15  17
HETATM   17  C13 UNL     1      25.449   2.549  51.865  1.00  0.00     0.300 C 
BRANCH  17  18
HETATM   18  C14 UNL     1      25.756   1.313  52.672  1.00  0.00     0.001 C 
HETATM   19  C15 UNL     1      26.435   1.262  53.837  1.00  0.00    -0.008 C 
BRANCH  19  20
HETATM   20  C16 UNL     1      26.685  -0.030  54.559  1.00  0.00     0.169 C 
BRANCH  20  21
HETATM   21  N5  UNL     1      28.025  -0.097  55.012  1.00  0.00    -0.325 NA
HETATM   22  C17 UNL     1      28.953   0.629  54.567  1.00  0.00     0.164 C 
ENDBRANCH  20  21
ENDBRANCH  19  20
ENDBRANCH  17  18
ENDBRANCH  15  17
ENDBRANCH  12  15
TORSDOF 6
ENDMDL
MODEL 7
REMARK VINA RESULT:      -6.0      2.093      6.597
REMARK  6 active torsions:
REMARK  status: ('A' for Active; 'I' for Inactive)
REMARK    1  A    between atoms: C2_2  and  C3_3 
REMARK    2  A    between atoms: C11_14  and  N4_15 
REMARK    3  A    between atoms: N4_15  and  C13_17 
REMARK    4  A    between atoms: C13_17  and  C14_18 
REMARK    5  A    between atoms: C15_19  and  C16_20 
REMARK    6  A    between atoms: C16_20  and  N5_21 
ROOT
HETATM    1  C3  UNL     1      23.116   2.601  52.531  1.00  0.00     0.007 C 
HETATM    2  C4  UNL     1      24.013   1.648  52.612  1.00  0.00     0.002 C 
HETATM    3  C5  UNL     1      25.189   1.861  51.723  1.00  0.00     0.068 C 
HETATM    4  C6  UNL     1      25.121   2.770  50.626  1.00  0.00     0.101 C 
HETATM    5  N1  UNL     1      25.048   3.493  49.743  1.00  0.00    -0.191 NA
HETATM    6  C7  UNL     1      26.423   1.299  51.801  1.00  0.00     0.111 C 
HETATM    7  N2  UNL     1      26.564   0.224  52.708  1.00  0.00    -0.365 N 
HETATM    8  C8  UNL     1      27.274  -0.302  53.840  1.00  0.00     0.273 C 
HETATM    9  N3  UNL     1      26.044  -0.526  54.681  1.00  0.00    -0.275 NA
HETATM   10  C9  UNL     1      24.992  -0.142  53.982  1.00  0.00     0.064 C 
HETATM   11  C10 UNL     1      25.635  -0.939  52.834  1.00  0.00     0.181 C 
HETATM   12  C11 UNL     1      23.688   0.553  53.610  1.00  0.00     0.306 C 
ENDROOT
BRANCH   1  13
HETATM   13  C2  UNL     1      22.787   3.824  51.908  1.00  0.00    -0.026 C 
HETATM   14  C1  UNL     1      22.721   5.110  52.199  1.00  0.00     0.031 C 
ENDBRANCH   1  13
BRANCH  12  15
HETATM   15  N4  UNL     1      22.860  -0.481  53.060  1.00  0.00     0.102 N 
HETATM   16  C12 UNL     1      22.240  -1.184  54.165  1.00  0.00     0.311 C 
BRANCH  15  17
HETATM   17  C13 UNL     1      21.970  -0.114  52.024  1.00  0.00     0.300 C 
BRANCH  17  18
HETATM   18  C14 UNL     1      20.555  -0.076  52.543  1.00  0.00     0.001 C 
HETATM   19  C15 UNL     1      19.427  -0.170  51.809  1.00  0.00    -0.008 C 
BRANCH  19  20
HETATM   20  C16 UNL     1      18.062  -0.119  52.433  1.00  0.00     0.169 C 
BRANCH  20  21
HETATM   21  N5  UNL     1      17.990  -0.991  53.546  1.00  0.00    -0.325 NA
HETATM   22  C17 UNL     1      17.779  -2.229  53.454  1.00  0.00     0.164 C 
ENDBRANCH  20  21
ENDBRANCH  19  20
ENDBRANCH  17  18
ENDBRANCH  15  17
ENDBRANCH  12  15
TORSDOF 6
ENDMDL
MODEL 8
REMARK VINA RESULT:      -6.0      2.392      3.973
REMARK  6 active torsions:
REMARK  status: ('A' for Active; 'I' for Inactive)
REMARK    1  A    between atoms: C2_2  and  C3_3 
REMARK    2  A    between atoms: C11_14  and  N4_15 
REMARK    3  A    between atoms: N4_15  and  C13_17 
REMARK    4  A    between atoms: C13_17  and  C14_18 
REMARK    5  A    between atoms: C15_19  and  C16_20 
REMARK    6  A    between atoms: C16_20  and  N5_21 
ROOT
HETATM    1  C3  UNL     1      23.173   2.697  52.089  1.00  0.00     0.007 C 
HETATM    2  C4  UNL     1      23.040   1.497  52.601  1.00  0.00     0.002 C 
HETATM    3  C5  UNL     1      24.332   0.779  52.778  1.00  0.00     0.068 C 
HETATM    4  C6  UNL     1      25.503   1.196  52.079  1.00  0.00     0.101 C 
HETATM    5  N1  UNL     1      26.430   1.534  51.502  1.00  0.00    -0.191 NA
HETATM    6  C7  UNL     1      24.606  -0.286  53.575  1.00  0.00     0.111 C 
HETATM    7  N2  UNL     1      23.494  -0.934  54.160  1.00  0.00    -0.365 N 
HETATM    8  C8  UNL     1      22.865  -1.369  55.375  1.00  0.00     0.273 C 
HETATM    9  N3  UNL     1      21.567  -0.646  55.125  1.00  0.00    -0.275 NA
HETATM   10  C9  UNL     1      21.666  -0.010  53.972  1.00  0.00     0.064 C 
HETATM   11  C10 UNL     1      22.244  -1.335  53.446  1.00  0.00     0.181 C 
HETATM   12  C11 UNL     1      21.613   1.106  52.936  1.00  0.00     0.306 C 
ENDROOT
BRANCH   1  13
HETATM   13  C2  UNL     1      24.099   3.648  51.607  1.00  0.00    -0.026 C 
HETATM   14  C1  UNL     1      24.321   4.369  50.524  1.00  0.00     0.031 C 
ENDBRANCH   1  13
BRANCH  12  15
HETATM   15  N4  UNL     1      20.907   0.543  51.820  1.00  0.00     0.102 N 
HETATM   16  C12 UNL     1      19.606   1.177  51.757  1.00  0.00     0.311 C 
BRANCH  15  17
HETATM   17  C13 UNL     1      21.594   0.485  50.585  1.00  0.00     0.300 C 
BRANCH  17  18
HETATM   18  C14 UNL     1      20.934   1.396  49.580  1.00  0.00     0.001 C 
HETATM   19  C15 UNL     1      21.499   1.909  48.468  1.00  0.00    -0.008 C 
BRANCH  19  20
HETATM   20  C16 UNL     1      20.746   2.810  47.533  1.00  0.00     0.169 C 
BRANCH  20  21
HETATM   21  N5  UNL     1      21.629   3.712  46.890  1.00  0.00    -0.325 NA
HETATM   22  C17 UNL     1      21.837   3.724  45.649  1.00  0.00     0.164 C 
ENDBRANCH  20  21
ENDBRANCH  19  20
ENDBRANCH  17  18
ENDBRANCH  15  17
ENDBRANCH  12  15
TORSDOF 6
ENDMDL
MODEL 9
REMARK VINA RESULT:      -5.5      3.054      6.720
REMARK  6 active torsions:
REMARK  status: ('A' for Active; 'I' for Inactive)
REMARK    1  A    between atoms: C2_2  and  C3_3 
REMARK    2  A    between atoms: C11_14  and  N4_15 
REMARK    3  A    between atoms: N4_15  and  C13_17 
REMARK    4  A    between atoms: C13_17  and  C14_18 
REMARK    5  A    between atoms: C15_19  and  C16_20 
REMARK    6  A    between atoms: C16_20  and  N5_21 
ROOT
HETATM    1  C3  UNL     1      20.654   2.542  52.588  1.00  0.00     0.007 C 
HETATM    2  C4  UNL     1      21.257   1.418  52.894  1.00  0.00     0.002 C 
HETATM    3  C5  UNL     1      22.705   1.407  52.549  1.00  0.00     0.068 C 
HETATM    4  C6  UNL     1      23.242   2.345  51.618  1.00  0.00     0.101 C 
HETATM    5  N1  UNL     1      23.656   3.096  50.861  1.00  0.00    -0.191 NA
HETATM    6  C7  UNL     1      23.683   0.595  53.025  1.00  0.00     0.111 C 
HETATM    7  N2  UNL     1      23.258  -0.516  53.789  1.00  0.00    -0.365 N 
HETATM    8  C8  UNL     1      23.355  -1.216  55.039  1.00  0.00     0.273 C 
HETATM    9  N3  UNL     1      21.875  -1.203  55.320  1.00  0.00    -0.275 NA
HETATM   10  C9  UNL     1      21.272  -0.583  54.322  1.00  0.00     0.064 C 
HETATM   11  C10 UNL     1      22.159  -1.459  53.421  1.00  0.00     0.181 C 
HETATM   12  C11 UNL     1      20.371   0.384  53.563  1.00  0.00     0.306 C 
ENDROOT
BRANCH   1  13
HETATM   13  C2  UNL     1      20.825   3.826  52.029  1.00  0.00    -0.026 C 
HETATM   14  C1  UNL     1      20.364   4.552  51.028  1.00  0.00     0.031 C 
ENDBRANCH   1  13
BRANCH  12  15
HETATM   15  N4  UNL     1      19.654  -0.433  52.627  1.00  0.00     0.102 N 
HETATM   16  C12 UNL     1      18.569  -1.074  53.342  1.00  0.00     0.311 C 
BRANCH  15  17
HETATM   17  C13 UNL     1      19.277   0.166  51.403  1.00  0.00     0.300 C 
BRANCH  17  18
HETATM   18  C14 UNL     1      17.802   0.481  51.410  1.00  0.00     0.001 C 
HETATM   19  C15 UNL     1      17.241   1.703  51.303  1.00  0.00    -0.008 C 
BRANCH  19  20
HETATM   20  C16 UNL     1      15.753   1.902  51.323  1.00  0.00     0.169 C 
BRANCH  20  21
HETATM   21  N5  UNL     1      15.388   3.016  50.529  1.00  0.00    -0.325 NA
HETATM   22  C17 UNL     1      15.971   4.131  50.576  1.00  0.00     0.164 C 
ENDBRANCH  20  21
ENDBRANCH  19  20
ENDBRANCH  17  18
ENDBRANCH  15  17
ENDBRANCH  12  15
TORSDOF 6
ENDMDL
