MODEL 1
REMARK VINA RESULT:      -8.4      0.000      0.000
REMARK  5 active torsions:
REMARK  status: ('A' for Active; 'I' for Inactive)
REMARK    1  A    between atoms: C4_4  and  C5_5 
REMARK    2  A    between atoms: C6_6  and  C7_7 
REMARK    3  A    between atoms: C7_7  and  N1_8 
REMARK    4  A    between atoms: N1_8  and  C8_9 
REMARK    5  A    between atoms: C15_19  and  O1_20 
ROOT
HETATM    1  C1  UNL     1      28.621  -2.614  53.082  1.00  0.00     0.017 C 
HETATM    2  C2  UNL     1      29.264  -1.624  53.287  1.00  0.00    -0.089 C 
HETATM    3  C3  UNL     1      30.038  -0.449  53.557  1.00  0.00     0.063 C 
HETATM    4  C4  UNL     1      29.422   0.686  53.849  1.00  0.00     0.009 C 
ENDROOT
BRANCH   4   5
HETATM    5  C5  UNL     1      27.965   0.745  53.899  1.00  0.00    -0.002 C 
HETATM    6  C6  UNL     1      27.286   1.499  53.041  1.00  0.00    -0.007 C 
BRANCH   6   7
HETATM    7  C7  UNL     1      25.780   1.575  53.075  1.00  0.00     0.148 C 
BRANCH   7   8
HETATM    8  N1  UNL     1      25.211   0.300  52.688  1.00  0.00    -0.369 N 
HETATM    9  H8  UNL     1      25.549   0.010  51.752  1.00  0.00     0.161 HD
BRANCH   8  10
HETATM   10  C8  UNL     1      24.319  -0.311  53.610  1.00  0.00     0.156 A 
HETATM   11  N2  UNL     1      24.788  -0.848  54.741  1.00  0.00    -0.222 NA
HETATM   12  C9  UNL     1      24.026  -1.434  55.675  1.00  0.00     0.238 A 
HETATM   13  N3  UNL     1      22.692  -1.524  55.531  1.00  0.00    -0.215 NA
HETATM   14  C10 UNL     1      22.118  -1.004  54.409  1.00  0.00     0.202 A 
HETATM   15  C11 UNL     1      22.970  -0.407  53.474  1.00  0.00     0.128 A 
HETATM   16  O2  UNL     1      20.730  -1.162  54.383  1.00  0.00    -0.289 OA
HETATM   17  N4  UNL     1      22.557   0.185  52.225  1.00  0.00    -0.379 N 
HETATM   18  C12 UNL     1      21.293   0.870  51.912  1.00  0.00     0.161 C 
HETATM   19  H10 UNL     1      23.312   0.062  51.513  1.00  0.00     0.160 HD
HETATM   20  C13 UNL     1      20.120   0.090  52.340  1.00  0.00    -0.004 A 
HETATM   21  C14 UNL     1      19.072   0.328  51.445  1.00  0.00     0.048 A 
HETATM   22  C19 UNL     1      19.853  -0.777  53.379  1.00  0.00     0.086 A 
HETATM   23  C15 UNL     1      17.813  -0.268  51.573  1.00  0.00     0.069 A 
HETATM   24  C17 UNL     1      17.567  -1.133  52.621  1.00  0.00     0.039 A 
HETATM   25  C18 UNL     1      18.597  -1.369  53.504  1.00  0.00     0.040 A 
BRANCH  23  26
HETATM   26  O1  UNL     1      16.846   0.057  50.602  1.00  0.00    -0.356 OA
HETATM   27  C16 UNL     1      16.183   1.296  50.773  1.00  0.00     0.210 C 
ENDBRANCH  23  26
ENDBRANCH   8  10
ENDBRANCH   7   8
ENDBRANCH   6   7
ENDBRANCH   4   5
TORSDOF 5
ENDMDL
MODEL 2
REMARK VINA RESULT:      -8.4      2.023      3.785
REMARK  5 active torsions:
REMARK  status: ('A' for Active; 'I' for Inactive)
REMARK    1  A    between atoms: C4_4  and  C5_5 
REMARK    2  A    between atoms: C6_6  and  C7_7 
REMARK    3  A    between atoms: C7_7  and  N1_8 
REMARK    4  A    between atoms: N1_8  and  C8_9 
REMARK    5  A    between atoms: C15_19  and  O1_20 
ROOT
HETATM    1  C1  UNL     1      26.698  -1.907  52.497  1.00  0.00     0.017 C 
HETATM    2  C2  UNL     1      27.841  -2.052  52.829  1.00  0.00    -0.089 C 
HETATM    3  C3  UNL     1      29.199  -2.240  53.246  1.00  0.00     0.063 C 
HETATM    4  C4  UNL     1      29.826  -1.266  53.888  1.00  0.00     0.009 C 
ENDROOT
BRANCH   4   5
HETATM    5  C5  UNL     1      29.142  -0.009  54.172  1.00  0.00    -0.002 C 
HETATM    6  C6  UNL     1      29.295   1.043  53.376  1.00  0.00    -0.007 C 
BRANCH   6   7
HETATM    7  C7  UNL     1      28.598   2.352  53.651  1.00  0.00     0.148 C 
BRANCH   7   8
HETATM    8  N1  UNL     1      27.166   2.147  53.716  1.00  0.00    -0.369 N 
HETATM    9  H8  UNL     1      26.869   1.901  54.678  1.00  0.00     0.161 HD
BRANCH   8  10
HETATM   10  C8  UNL     1      26.439   2.302  52.504  1.00  0.00     0.156 A 
HETATM   11  N2  UNL     1      27.004   2.914  51.458  1.00  0.00    -0.222 NA
HETATM   12  C9  UNL     1      26.405   3.096  50.273  1.00  0.00     0.238 A 
HETATM   13  N3  UNL     1      25.152   2.660  50.050  1.00  0.00    -0.215 NA
HETATM   14  C10 UNL     1      24.492   2.023  51.058  1.00  0.00     0.202 A 
HETATM   15  C11 UNL     1      25.173   1.865  52.269  1.00  0.00     0.128 A 
HETATM   16  O2  UNL     1      23.203   1.622  50.697  1.00  0.00    -0.289 OA
HETATM   17  N4  UNL     1      24.643   1.232  53.452  1.00  0.00    -0.379 N 
HETATM   18  C12 UNL     1      23.680   0.124  53.540  1.00  0.00     0.161 C 
HETATM   19  H10 UNL     1      25.047   1.684  54.302  1.00  0.00     0.160 HD
HETATM   20  C13 UNL     1      22.494   0.351  52.697  1.00  0.00    -0.004 A 
HETATM   21  C14 UNL     1      21.383  -0.228  53.319  1.00  0.00     0.048 A 
HETATM   22  C19 UNL     1      22.262   0.981  51.492  1.00  0.00     0.086 A 
HETATM   23  C15 UNL     1      20.097  -0.186  52.770  1.00  0.00     0.069 A 
HETATM   24  C17 UNL     1      19.888   0.450  51.562  1.00  0.00     0.039 A 
HETATM   25  C18 UNL     1      20.980   1.021  50.948  1.00  0.00     0.040 A 
BRANCH  23  26
HETATM   26  O1  UNL     1      19.067  -0.808  53.499  1.00  0.00    -0.356 OA
HETATM   27  C16 UNL     1      17.869  -1.065  52.790  1.00  0.00     0.210 C 
ENDBRANCH  23  26
ENDBRANCH   8  10
ENDBRANCH   7   8
ENDBRANCH   6   7
ENDBRANCH   4   5
TORSDOF 5
ENDMDL
MODEL 3
REMARK VINA RESULT:      -8.1      4.161      5.789
REMARK  5 active torsions:
REMARK  status: ('A' for Active; 'I' for Inactive)
REMARK    1  A    between atoms: C4_4  and  C5_5 
REMARK    2  A    between atoms: C6_6  and  C7_7 
REMARK    3  A    between atoms: C7_7  and  N1_8 
REMARK    4  A    between atoms: N1_8  and  C8_9 
REMARK    5  A    between atoms: C15_19  and  O1_20 
ROOT
HETATM    1  C1  UNL     1      25.396   8.148  46.826  1.00  0.00     0.017 C 
HETATM    2  C2  UNL     1      26.542   7.929  47.099  1.00  0.00    -0.089 C 
HETATM    3  C3  UNL     1      27.916   7.658  47.402  1.00  0.00     0.063 C 
HETATM    4  C4  UNL     1      28.227   6.603  48.139  1.00  0.00     0.009 C 
ENDROOT
BRANCH   4   5
HETATM    5  C5  UNL     1      27.181   5.718  48.640  1.00  0.00    -0.002 C 
HETATM    6  C6  UNL     1      27.433   4.436  48.884  1.00  0.00    -0.007 C 
BRANCH   6   7
HETATM    7  C7  UNL     1      26.367   3.504  49.402  1.00  0.00     0.148 C 
BRANCH   7   8
HETATM    8  N1  UNL     1      26.119   3.766  50.805  1.00  0.00    -0.369 N 
HETATM    9  H8  UNL     1      25.867   4.759  50.959  1.00  0.00     0.161 HD
BRANCH   8  10
HETATM   10  C8  UNL     1      26.265   2.670  51.698  1.00  0.00     0.156 A 
HETATM   11  N2  UNL     1      27.481   2.304  52.117  1.00  0.00    -0.222 NA
HETATM   12  C9  UNL     1      27.718   1.295  52.967  1.00  0.00     0.238 A 
HETATM   13  N3  UNL     1      26.713   0.557  53.472  1.00  0.00    -0.215 NA
HETATM   14  C10 UNL     1      25.435   0.854  53.103  1.00  0.00     0.202 A 
HETATM   15  C11 UNL     1      25.256   1.919  52.214  1.00  0.00     0.128 A 
HETATM   16  O2  UNL     1      24.488   0.015  53.697  1.00  0.00    -0.289 OA
HETATM   17  N4  UNL     1      23.989   2.376  51.699  1.00  0.00    -0.379 N 
HETATM   18  C12 UNL     1      22.674   2.354  52.359  1.00  0.00     0.161 C 
HETATM   19  H10 UNL     1      24.118   2.749  50.732  1.00  0.00     0.160 HD
HETATM   20  C13 UNL     1      22.367   1.037  52.940  1.00  0.00    -0.004 A 
HETATM   21  C14 UNL     1      20.987   0.822  52.862  1.00  0.00     0.048 A 
HETATM   22  C19 UNL     1      23.112   0.027  53.512  1.00  0.00     0.086 A 
HETATM   23  C15 UNL     1      20.372  -0.343  53.331  1.00  0.00     0.069 A 
HETATM   24  C17 UNL     1      21.137  -1.341  53.901  1.00  0.00     0.039 A 
HETATM   25  C18 UNL     1      22.496  -1.133  53.979  1.00  0.00     0.040 A 
BRANCH  23  26
HETATM   26  O1  UNL     1      18.974  -0.433  53.191  1.00  0.00    -0.356 OA
HETATM   27  C16 UNL     1      18.385  -1.659  53.582  1.00  0.00     0.210 C 
ENDBRANCH  23  26
ENDBRANCH   8  10
ENDBRANCH   7   8
ENDBRANCH   6   7
ENDBRANCH   4   5
TORSDOF 5
ENDMDL
MODEL 4
REMARK VINA RESULT:      -7.9      4.650      7.482
REMARK  5 active torsions:
REMARK  status: ('A' for Active; 'I' for Inactive)
REMARK    1  A    between atoms: C4_4  and  C5_5 
REMARK    2  A    between atoms: C6_6  and  C7_7 
REMARK    3  A    between atoms: C7_7  and  N1_8 
REMARK    4  A    between atoms: N1_8  and  C8_9 
REMARK    5  A    between atoms: C15_19  and  O1_20 
ROOT
HETATM    1  C1  UNL     1      27.377   4.769  48.779  1.00  0.00     0.017 C 
HETATM    2  C2  UNL     1      27.499   5.938  48.542  1.00  0.00    -0.089 C 
HETATM    3  C3  UNL     1      27.667   7.334  48.272  1.00  0.00     0.063 C 
HETATM    4  C4  UNL     1      26.962   8.222  48.957  1.00  0.00     0.009 C 
ENDROOT
BRANCH   4   5
HETATM    5  C5  UNL     1      26.020   7.785  49.981  1.00  0.00    -0.002 C 
HETATM    6  C6  UNL     1      24.718   7.721  49.724  1.00  0.00    -0.007 C 
BRANCH   6   7
HETATM    7  C7  UNL     1      23.726   7.272  50.767  1.00  0.00     0.148 C 
BRANCH   7   8
HETATM    8  N1  UNL     1      24.260   6.148  51.508  1.00  0.00    -0.369 N 
HETATM    9  H8  UNL     1      25.258   6.298  51.745  1.00  0.00     0.161 HD
BRANCH   8  10
HETATM   10  C8  UNL     1      23.371   5.070  51.768  1.00  0.00     0.156 A 
HETATM   11  N2  UNL     1      22.050   5.272  51.751  1.00  0.00    -0.222 NA
HETATM   12  C9  UNL     1      21.134   4.318  51.971  1.00  0.00     0.238 A 
HETATM   13  N3  UNL     1      21.497   3.050  52.233  1.00  0.00    -0.215 NA
HETATM   14  C10 UNL     1      22.824   2.744  52.272  1.00  0.00     0.202 A 
HETATM   15  C11 UNL     1      23.728   3.785  52.034  1.00  0.00     0.128 A 
HETATM   16  O2  UNL     1      23.066   1.397  52.553  1.00  0.00    -0.289 OA
HETATM   17  N4  UNL     1      25.165   3.665  52.044  1.00  0.00    -0.379 N 
HETATM   18  C12 UNL     1      25.987   2.505  51.665  1.00  0.00     0.161 C 
HETATM   19  H10 UNL     1      25.589   4.559  52.378  1.00  0.00     0.160 HD
HETATM   20  C13 UNL     1      25.522   1.263  52.306  1.00  0.00    -0.004 A 
HETATM   21  C14 UNL     1      26.628   0.443  52.552  1.00  0.00     0.048 A 
HETATM   22  C19 UNL     1      24.295   0.768  52.693  1.00  0.00     0.086 A 
HETATM   23  C15 UNL     1      26.523  -0.814  53.155  1.00  0.00     0.069 A 
HETATM   24  C17 UNL     1      25.284  -1.291  53.535  1.00  0.00     0.039 A 
HETATM   25  C18 UNL     1      24.193  -0.486  53.295  1.00  0.00     0.040 A 
BRANCH  23  26
HETATM   26  O1  UNL     1      27.716  -1.537  53.345  1.00  0.00    -0.356 OA
HETATM   27  C16 UNL     1      28.910  -0.776  53.368  1.00  0.00     0.210 C 
ENDBRANCH  23  26
ENDBRANCH   8  10
ENDBRANCH   7   8
ENDBRANCH   6   7
ENDBRANCH   4   5
TORSDOF 5
ENDMDL
MODEL 5
REMARK VINA RESULT:      -7.6      4.077      7.777
REMARK  5 active torsions:
REMARK  status: ('A' for Active; 'I' for Inactive)
REMARK    1  A    between atoms: C4_4  and  C5_5 
REMARK    2  A    between atoms: C6_6  and  C7_7 
REMARK    3  A    between atoms: C7_7  and  N1_8 
REMARK    4  A    between atoms: N1_8  and  C8_9 
REMARK    5  A    between atoms: C15_19  and  O1_20 
ROOT
HETATM    1  C1  UNL     1      19.051   0.589  50.930  1.00  0.00     0.017 C 
HETATM    2  C2  UNL     1      18.740  -0.108  51.854  1.00  0.00    -0.089 C 
HETATM    3  C3  UNL     1      18.358  -0.921  52.969  1.00  0.00     0.063 C 
HETATM    4  C4  UNL     1      19.273  -1.295  53.850  1.00  0.00     0.009 C 
ENDROOT
BRANCH   4   5
HETATM    5  C5  UNL     1      20.664  -0.884  53.689  1.00  0.00    -0.002 C 
HETATM    6  C6  UNL     1      21.582  -1.224  54.588  1.00  0.00    -0.007 C 
BRANCH   6   7
HETATM    7  C7  UNL     1      23.024  -0.810  54.441  1.00  0.00     0.148 C 
BRANCH   7   8
HETATM    8  N1  UNL     1      23.228  -0.170  53.158  1.00  0.00    -0.369 N 
HETATM    9  H8  UNL     1      22.328  -0.023  52.668  1.00  0.00     0.161 HD
BRANCH   8  10
HETATM   10  C8  UNL     1      24.570   0.129  52.796  1.00  0.00     0.156 A 
HETATM   11  N2  UNL     1      25.574  -0.614  53.273  1.00  0.00    -0.222 NA
HETATM   12  C9  UNL     1      26.867  -0.418  52.980  1.00  0.00     0.238 A 
HETATM   13  N3  UNL     1      27.254   0.574  52.158  1.00  0.00    -0.215 NA
HETATM   14  C10 UNL     1      26.301   1.388  51.621  1.00  0.00     0.202 A 
HETATM   15  C11 UNL     1      24.971   1.129  51.967  1.00  0.00     0.128 A 
HETATM   16  O2  UNL     1      26.833   2.374  50.787  1.00  0.00    -0.289 OA
HETATM   17  N4  UNL     1      23.826   1.881  51.514  1.00  0.00    -0.379 N 
HETATM   18  C12 UNL     1      23.639   2.574  50.229  1.00  0.00     0.161 C 
HETATM   19  H10 UNL     1      23.091   1.883  52.256  1.00  0.00     0.160 HD
HETATM   20  C13 UNL     1      24.786   3.433  49.890  1.00  0.00    -0.004 A 
HETATM   21  C14 UNL     1      24.320   4.545  49.182  1.00  0.00     0.048 A 
HETATM   22  C19 UNL     1      26.146   3.375  50.113  1.00  0.00     0.086 A 
HETATM   23  C15 UNL     1      25.165   5.557  48.714  1.00  0.00     0.069 A 
HETATM   24  C17 UNL     1      26.524   5.478  48.948  1.00  0.00     0.039 A 
HETATM   25  C18 UNL     1      26.986   4.384  49.645  1.00  0.00     0.040 A 
BRANCH  23  26
HETATM   26  O1  UNL     1      24.566   6.622  48.015  1.00  0.00    -0.356 OA
HETATM   27  C16 UNL     1      25.378   7.763  47.803  1.00  0.00     0.210 C 
ENDBRANCH  23  26
ENDBRANCH   8  10
ENDBRANCH   7   8
ENDBRANCH   6   7
ENDBRANCH   4   5
TORSDOF 5
ENDMDL
MODEL 6
REMARK VINA RESULT:      -7.5      5.338      7.539
REMARK  5 active torsions:
REMARK  status: ('A' for Active; 'I' for Inactive)
REMARK    1  A    between atoms: C4_4  and  C5_5 
REMARK    2  A    between atoms: C6_6  and  C7_7 
REMARK    3  A    between atoms: C7_7  and  N1_8 
REMARK    4  A    between atoms: N1_8  and  C8_9 
REMARK    5  A    between atoms: C15_19  and  O1_20 
ROOT
HETATM    1  C1  UNL     1      32.610   2.930  46.728  1.00  0.00     0.017 C 
HETATM    2  C2  UNL     1      32.726   4.051  47.136  1.00  0.00    -0.089 C 
HETATM    3  C3  UNL     1      32.872   5.381  47.646  1.00  0.00     0.063 C 
HETATM    4  C4  UNL     1      31.797   6.065  48.007  1.00  0.00     0.009 C 
ENDROOT
BRANCH   4   5
HETATM    5  C5  UNL     1      30.469   5.471  47.887  1.00  0.00    -0.002 C 
HETATM    6  C6  UNL     1      29.381   6.178  48.170  1.00  0.00    -0.007 C 
BRANCH   6   7
HETATM    7  C7  UNL     1      27.999   5.584  48.054  1.00  0.00     0.148 C 
BRANCH   7   8
HETATM    8  N1  UNL     1      27.402   5.457  49.367  1.00  0.00    -0.369 N 
HETATM    9  H8  UNL     1      28.091   5.672  50.111  1.00  0.00     0.161 HD
BRANCH   8  10
HETATM   10  C8  UNL     1      26.036   5.069  49.417  1.00  0.00     0.156 A 
HETATM   11  N2  UNL     1      25.123   5.738  48.704  1.00  0.00    -0.222 NA
HETATM   12  C9  UNL     1      23.817   5.441  48.676  1.00  0.00     0.238 A 
HETATM   13  N3  UNL     1      23.320   4.413  49.388  1.00  0.00    -0.215 NA
HETATM   14  C10 UNL     1      24.173   3.670  50.147  1.00  0.00     0.202 A 
HETATM   15  C11 UNL     1      25.524   4.033  50.132  1.00  0.00     0.128 A 
HETATM   16  O2  UNL     1      23.532   2.636  50.835  1.00  0.00    -0.289 OA
HETATM   17  N4  UNL     1      26.574   3.381  50.875  1.00  0.00    -0.379 N 
HETATM   18  C12 UNL     1      26.682   1.963  51.250  1.00  0.00     0.161 C 
HETATM   19  H10 UNL     1      27.303   4.081  51.140  1.00  0.00     0.160 HD
HETATM   20  C13 UNL     1      25.445   1.456  51.865  1.00  0.00    -0.004 A 
HETATM   21  C14 UNL     1      25.780   0.487  52.817  1.00  0.00     0.048 A 
HETATM   22  C19 UNL     1      24.101   1.722  51.711  1.00  0.00     0.086 A 
HETATM   23  C15 UNL     1      24.825  -0.190  53.582  1.00  0.00     0.069 A 
HETATM   24  C17 UNL     1      23.484   0.092  53.410  1.00  0.00     0.039 A 
HETATM   25  C18 UNL     1      23.150   1.045  52.475  1.00  0.00     0.040 A 
BRANCH  23  26
HETATM   26  O1  UNL     1      25.298  -1.142  54.505  1.00  0.00    -0.356 OA
HETATM   27  C16 UNL     1      25.615  -0.654  55.796  1.00  0.00     0.210 C 
ENDBRANCH  23  26
ENDBRANCH   8  10
ENDBRANCH   7   8
ENDBRANCH   6   7
ENDBRANCH   4   5
TORSDOF 5
ENDMDL
MODEL 7
REMARK VINA RESULT:      -7.5      3.158      4.093
REMARK  5 active torsions:
REMARK  status: ('A' for Active; 'I' for Inactive)
REMARK    1  A    between atoms: C4_4  and  C5_5 
REMARK    2  A    between atoms: C6_6  and  C7_7 
REMARK    3  A    between atoms: C7_7  and  N1_8 
REMARK    4  A    between atoms: N1_8  and  C8_9 
REMARK    5  A    between atoms: C15_19  and  O1_20 
ROOT
HETATM    1  C1  UNL     1      29.252  -2.361  53.145  1.00  0.00     0.017 C 
HETATM    2  C2  UNL     1      29.456  -1.201  53.368  1.00  0.00    -0.089 C 
HETATM    3  C3  UNL     1      29.717   0.179  53.652  1.00  0.00     0.063 C 
HETATM    4  C4  UNL     1      28.857   0.869  54.386  1.00  0.00     0.009 C 
ENDROOT
BRANCH   4   5
HETATM    5  C5  UNL     1      27.650   0.233  54.903  1.00  0.00    -0.002 C 
HETATM    6  C6  UNL     1      26.567   0.111  54.143  1.00  0.00    -0.007 C 
BRANCH   6   7
HETATM    7  C7  UNL     1      25.309  -0.543  54.658  1.00  0.00     0.148 C 
BRANCH   7   8
HETATM    8  N1  UNL     1      24.479  -0.961  53.548  1.00  0.00    -0.369 N 
HETATM    9  H8  UNL     1      25.033  -1.480  52.842  1.00  0.00     0.161 HD
BRANCH   8  10
HETATM   10  C8  UNL     1      23.105  -0.600  53.602  1.00  0.00     0.156 A 
HETATM   11  N2  UNL     1      22.215  -1.433  54.151  1.00  0.00    -0.222 NA
HETATM   12  C9  UNL     1      20.903  -1.177  54.260  1.00  0.00     0.238 A 
HETATM   13  N3  UNL     1      20.378  -0.024  53.807  1.00  0.00    -0.215 NA
HETATM   14  C10 UNL     1      21.207   0.890  53.230  1.00  0.00     0.202 A 
HETATM   15  C11 UNL     1      22.564   0.562  53.148  1.00  0.00     0.128 A 
HETATM   16  O2  UNL     1      20.538   2.041  52.804  1.00  0.00    -0.289 OA
HETATM   17  N4  UNL     1      23.592   1.388  52.564  1.00  0.00    -0.379 N 
HETATM   18  C12 UNL     1      23.669   2.857  52.523  1.00  0.00     0.161 C 
HETATM   19  H10 UNL     1      24.329   0.783  52.138  1.00  0.00     0.160 HD
HETATM   20  C13 UNL     1      22.414   3.465  52.052  1.00  0.00    -0.004 A 
HETATM   21  C14 UNL     1      22.718   4.633  51.345  1.00  0.00     0.048 A 
HETATM   22  C19 UNL     1      21.077   3.143  52.155  1.00  0.00     0.086 A 
HETATM   23  C15 UNL     1      21.740   5.447  50.765  1.00  0.00     0.069 A 
HETATM   24  C17 UNL     1      20.407   5.105  50.880  1.00  0.00     0.039 A 
HETATM   25  C18 UNL     1      20.104   3.957  51.576  1.00  0.00     0.040 A 
BRANCH  23  26
HETATM   26  O1  UNL     1      22.182   6.595  50.079  1.00  0.00    -0.356 OA
HETATM   27  C16 UNL     1      21.244   7.648  49.958  1.00  0.00     0.210 C 
ENDBRANCH  23  26
ENDBRANCH   8  10
ENDBRANCH   7   8
ENDBRANCH   6   7
ENDBRANCH   4   5
TORSDOF 5
ENDMDL
MODEL 8
REMARK VINA RESULT:      -7.4      5.136      7.891
REMARK  5 active torsions:
REMARK  status: ('A' for Active; 'I' for Inactive)
REMARK    1  A    between atoms: C4_4  and  C5_5 
REMARK    2  A    between atoms: C6_6  and  C7_7 
REMARK    3  A    between atoms: C7_7  and  N1_8 
REMARK    4  A    between atoms: N1_8  and  C8_9 
REMARK    5  A    between atoms: C15_19  and  O1_20 
ROOT
HETATM    1  C1  UNL     1      28.661   2.184  54.057  1.00  0.00     0.017 C 
HETATM    2  C2  UNL     1      28.639   1.028  53.743  1.00  0.00    -0.089 C 
HETATM    3  C3  UNL     1      28.615  -0.348  53.343  1.00  0.00     0.063 C 
HETATM    4  C4  UNL     1      27.455  -0.980  53.243  1.00  0.00     0.009 C 
ENDROOT
BRANCH   4   5
HETATM    5  C5  UNL     1      26.207  -0.283  53.536  1.00  0.00    -0.002 C 
HETATM    6  C6  UNL     1      25.320  -0.046  52.576  1.00  0.00    -0.007 C 
BRANCH   6   7
HETATM    7  C7  UNL     1      24.024   0.672  52.856  1.00  0.00     0.148 C 
BRANCH   7   8
HETATM    8  N1  UNL     1      23.433   1.132  51.617  1.00  0.00    -0.369 N 
HETATM    9  H8  UNL     1      23.336   0.354  50.939  1.00  0.00     0.161 HD
BRANCH   8  10
HETATM   10  C8  UNL     1      23.106   2.513  51.534  1.00  0.00     0.156 A 
HETATM   11  N2  UNL     1      21.968   2.965  52.071  1.00  0.00    -0.222 NA
HETATM   12  C9  UNL     1      21.579   4.247  52.055  1.00  0.00     0.238 A 
HETATM   13  N3  UNL     1      22.335   5.198  51.477  1.00  0.00    -0.215 NA
HETATM   14  C10 UNL     1      23.516   4.835  50.902  1.00  0.00     0.202 A 
HETATM   15  C11 UNL     1      23.863   3.481  50.953  1.00  0.00     0.128 A 
HETATM   16  O2  UNL     1      24.203   5.914  50.340  1.00  0.00    -0.289 OA
HETATM   17  N4  UNL     1      25.059   2.902  50.393  1.00  0.00    -0.379 N 
HETATM   18  C12 UNL     1      26.389   3.514  50.250  1.00  0.00     0.161 C 
HETATM   19  H10 UNL     1      24.860   1.927  50.074  1.00  0.00     0.160 HD
HETATM   20  C13 UNL     1      26.321   4.851  49.636  1.00  0.00    -0.004 A 
HETATM   21  C14 UNL     1      27.474   5.052  48.871  1.00  0.00     0.048 A 
HETATM   22  C19 UNL     1      25.411   5.886  49.655  1.00  0.00     0.086 A 
HETATM   23  C15 UNL     1      27.715   6.230  48.156  1.00  0.00     0.069 A 
HETATM   24  C17 UNL     1      26.789   7.254  48.190  1.00  0.00     0.039 A 
HETATM   25  C18 UNL     1      25.653   7.058  48.942  1.00  0.00     0.040 A 
BRANCH  23  26
HETATM   26  O1  UNL     1      28.916   6.304  47.425  1.00  0.00    -0.356 OA
HETATM   27  C16 UNL     1      30.010   5.572  47.947  1.00  0.00     0.210 C 
ENDBRANCH  23  26
ENDBRANCH   8  10
ENDBRANCH   7   8
ENDBRANCH   6   7
ENDBRANCH   4   5
TORSDOF 5
ENDMDL
MODEL 9
REMARK VINA RESULT:      -7.4      2.729      8.884
REMARK  5 active torsions:
REMARK  status: ('A' for Active; 'I' for Inactive)
REMARK    1  A    between atoms: C4_4  and  C5_5 
REMARK    2  A    between atoms: C6_6  and  C7_7 
REMARK    3  A    between atoms: C7_7  and  N1_8 
REMARK    4  A    between atoms: N1_8  and  C8_9 
REMARK    5  A    between atoms: C15_19  and  O1_20 
ROOT
HETATM    1  C1  UNL     1      14.383  -3.241  51.211  1.00  0.00     0.017 C 
HETATM    2  C2  UNL     1      15.080  -3.911  51.920  1.00  0.00    -0.089 C 
HETATM    3  C3  UNL     1      15.894  -4.711  52.785  1.00  0.00     0.063 C 
HETATM    4  C4  UNL     1      16.851  -4.137  53.499  1.00  0.00     0.009 C 
ENDROOT
BRANCH   4   5
HETATM    5  C5  UNL     1      17.077  -2.699  53.408  1.00  0.00    -0.002 C 
HETATM    6  C6  UNL     1      18.307  -2.200  53.465  1.00  0.00    -0.007 C 
BRANCH   6   7
HETATM    7  C7  UNL     1      18.565  -0.717  53.374  1.00  0.00     0.148 C 
BRANCH   7   8
HETATM    8  N1  UNL     1      19.345  -0.421  52.190  1.00  0.00    -0.369 N 
HETATM    9  H8  UNL     1      19.239  -1.166  51.478  1.00  0.00     0.161 HD
BRANCH   8  10
HETATM   10  C8  UNL     1      20.100   0.783  52.203  1.00  0.00     0.156 A 
HETATM   11  N2  UNL     1      19.504   1.950  51.936  1.00  0.00    -0.222 NA
HETATM   12  C9  UNL     1      20.127   3.137  51.936  1.00  0.00     0.238 A 
HETATM   13  N3  UNL     1      21.439   3.236  52.214  1.00  0.00    -0.215 NA
HETATM   14  C10 UNL     1      22.135   2.099  52.499  1.00  0.00     0.202 A 
HETATM   15  C11 UNL     1      21.426   0.894  52.483  1.00  0.00     0.128 A 
HETATM   16  O2  UNL     1      23.485   2.339  52.771  1.00  0.00    -0.289 OA
HETATM   17  N4  UNL     1      21.984  -0.410  52.745  1.00  0.00    -0.379 N 
HETATM   18  C12 UNL     1      23.093  -0.764  53.645  1.00  0.00     0.161 C 
HETATM   19  H10 UNL     1      21.478  -1.128  52.180  1.00  0.00     0.160 HD
HETATM   20  C13 UNL     1      24.272   0.092  53.435  1.00  0.00    -0.004 A 
HETATM   21  C14 UNL     1      25.424  -0.662  53.683  1.00  0.00     0.048 A 
HETATM   22  C19 UNL     1      24.469   1.405  53.065  1.00  0.00     0.086 A 
HETATM   23  C15 UNL     1      26.715  -0.137  53.570  1.00  0.00     0.069 A 
HETATM   24  C17 UNL     1      26.889   1.182  53.198  1.00  0.00     0.039 A 
HETATM   25  C18 UNL     1      25.757   1.926  52.953  1.00  0.00     0.040 A 
BRANCH  23  26
HETATM   26  O1  UNL     1      27.789  -1.004  53.848  1.00  0.00    -0.356 OA
HETATM   27  C16 UNL     1      29.049  -0.391  54.052  1.00  0.00     0.210 C 
ENDBRANCH  23  26
ENDBRANCH   8  10
ENDBRANCH   7   8
ENDBRANCH   6   7
ENDBRANCH   4   5
TORSDOF 5
ENDMDL
