MODEL 1
REMARK VINA RESULT:      -8.9      0.000      0.000
REMARK  5 active torsions:
REMARK  status: ('A' for Active; 'I' for Inactive)
REMARK    1  A    between atoms: O1_2  and  C2_3 
REMARK    2  A    between atoms: C6_9  and  N3_10 
REMARK    3  A    between atoms: C10_14  and  N4_15 
REMARK       I    between atoms: N4_15  and  C11_16 
REMARK       I    between atoms: C11_16  and  N5_18 
REMARK    4  A    between atoms: N5_18  and  C12_19 
REMARK    5  A    between atoms: C23_30  and  O3_31 
ROOT
HETATM    1  N3  UNL     1      19.306   2.368  50.394  1.00  0.00    -0.338 N 
HETATM    2  C7  UNL     1      20.092   1.747  49.370  1.00  0.00     0.093 C 
HETATM    3  C8  UNL     1      21.397   1.625  49.071  1.00  0.00     0.019 C 
HETATM    4  C9  UNL     1      22.637   2.108  49.715  1.00  0.00     0.031 C 
HETATM    5  C10 UNL     1      22.851   2.688  50.909  1.00  0.00     0.036 C 
HETATM    6  C18 UNL     1      22.013   3.083  52.035  1.00  0.00     0.027 C 
HETATM    7  C19 UNL     1      20.720   3.415  52.092  1.00  0.00    -0.005 C 
HETATM    8  C20 UNL     1      19.530   3.562  51.178  1.00  0.00     0.157 C 
ENDROOT
BRANCH   1   9
HETATM    9  C6  UNL     1      18.122   1.562  50.571  1.00  0.00     0.143 A 
HETATM   10  N2  UNL     1      17.071   1.922  49.806  1.00  0.00    -0.223 NA
HETATM   11  C5  UNL     1      15.918   1.237  49.885  1.00  0.00     0.236 A 
HETATM   12  N1  UNL     1      15.759   0.170  50.723  1.00  0.00    -0.241 NA
HETATM   13  C4  UNL     1      16.799  -0.199  51.491  1.00  0.00     0.075 A 
HETATM   14  C3  UNL     1      16.756  -1.264  52.381  1.00  0.00     0.072 A 
HETATM   15  C21 UNL     1      17.990   0.493  51.423  1.00  0.00     0.042 A 
HETATM   16  C2  UNL     1      17.858  -1.613  53.162  1.00  0.00     0.103 A 
HETATM   17  C23 UNL     1      19.031  -0.891  53.060  1.00  0.00     0.102 A 
HETATM   18  C22 UNL     1      19.073   0.163  52.180  1.00  0.00     0.057 A 
BRANCH  16  19
HETATM   19  O1  UNL     1      17.701  -2.694  54.015  1.00  0.00    -0.353 OA
HETATM   20  C1  UNL     1      17.053  -3.843  53.550  1.00  0.00     0.210 C 
ENDBRANCH  16  19
BRANCH  17  21
HETATM   21  O3  UNL     1      20.040  -1.341  53.886  1.00  0.00    -0.353 OA
HETATM   22  C24 UNL     1      21.176  -0.530  54.112  1.00  0.00     0.210 C 
ENDBRANCH  17  21
ENDBRANCH   1   9
BRANCH   5  23
HETATM   23  N4  UNL     1      24.226   2.997  51.131  1.00  0.00    -0.309 N 
HETATM   24  C11 UNL     1      25.022   2.041  51.862  1.00  0.00     0.325 C 
HETATM   25  O2  UNL     1      24.540   0.943  52.309  1.00  0.00    -0.247 OA
HETATM   26  N5  UNL     1      26.390   2.356  52.080  1.00  0.00    -0.309 N 
HETATM   27  H10 UNL     1      26.876   3.214  51.762  1.00  0.00     0.170 HD
HETATM   28  H9  UNL     1      24.683   3.864  50.798  1.00  0.00     0.170 HD
BRANCH  26  29
HETATM   29  C12 UNL     1      27.387   1.624  52.750  1.00  0.00     0.036 A 
HETATM   30  C13 UNL     1      28.274   2.409  53.491  1.00  0.00     0.029 A 
HETATM   31  C14 UNL     1      29.316   1.819  54.208  1.00  0.00     0.002 A 
HETATM   32  C15 UNL     1      29.501   0.448  54.207  1.00  0.00     0.000 A 
HETATM   33  C16 UNL     1      28.616  -0.323  53.467  1.00  0.00     0.002 A 
HETATM   34  C17 UNL     1      27.581   0.242  52.753  1.00  0.00     0.029 A 
ENDBRANCH  26  29
ENDBRANCH   5  23
TORSDOF 5
ENDMDL
MODEL 2
REMARK VINA RESULT:      -8.6      4.624      6.699
REMARK  5 active torsions:
REMARK  status: ('A' for Active; 'I' for Inactive)
REMARK    1  A    between atoms: O1_2  and  C2_3 
REMARK    2  A    between atoms: C6_9  and  N3_10 
REMARK    3  A    between atoms: C10_14  and  N4_15 
REMARK       I    between atoms: N4_15  and  C11_16 
REMARK       I    between atoms: C11_16  and  N5_18 
REMARK    4  A    between atoms: N5_18  and  C12_19 
REMARK    5  A    between atoms: C23_30  and  O3_31 
ROOT
HETATM    1  N3  UNL     1      22.234   3.049  51.587  1.00  0.00    -0.338 N 
HETATM    2  C7  UNL     1      22.328   2.684  50.205  1.00  0.00     0.093 C 
HETATM    3  C8  UNL     1      22.863   3.202  49.085  1.00  0.00     0.019 C 
HETATM    4  C9  UNL     1      23.622   4.438  48.800  1.00  0.00     0.031 C 
HETATM    5  C10 UNL     1      24.162   5.359  49.617  1.00  0.00     0.036 C 
HETATM    6  C18 UNL     1      24.238   5.546  51.061  1.00  0.00     0.027 C 
HETATM    7  C19 UNL     1      23.433   5.130  52.043  1.00  0.00    -0.005 C 
HETATM    8  C20 UNL     1      22.162   4.341  52.230  1.00  0.00     0.157 C 
ENDROOT
BRANCH   1   9
HETATM    9  C6  UNL     1      22.217   1.825  52.352  1.00  0.00     0.143 A 
HETATM   10  N2  UNL     1      20.999   1.441  52.782  1.00  0.00    -0.223 NA
HETATM   11  C5  UNL     1      20.866   0.312  53.499  1.00  0.00     0.236 A 
HETATM   12  N1  UNL     1      21.931  -0.480  53.818  1.00  0.00    -0.241 NA
HETATM   13  C4  UNL     1      23.152  -0.109  53.395  1.00  0.00     0.075 A 
HETATM   14  C3  UNL     1      24.309  -0.830  53.659  1.00  0.00     0.072 A 
HETATM   15  C21 UNL     1      23.308   1.048  52.658  1.00  0.00     0.042 A 
HETATM   16  C2  UNL     1      25.558  -0.409  53.202  1.00  0.00     0.103 A 
HETATM   17  C23 UNL     1      25.665   0.756  52.467  1.00  0.00     0.102 A 
HETATM   18  C22 UNL     1      24.521   1.470  52.207  1.00  0.00     0.057 A 
BRANCH  16  19
HETATM   19  O1  UNL     1      26.642  -1.208  53.525  1.00  0.00    -0.353 OA
HETATM   20  C1  UNL     1      27.040  -2.212  52.636  1.00  0.00     0.210 C 
ENDBRANCH  16  19
BRANCH  17  21
HETATM   21  O3  UNL     1      26.954   1.056  52.079  1.00  0.00    -0.353 OA
HETATM   22  C24 UNL     1      27.662   2.088  52.737  1.00  0.00     0.210 C 
ENDBRANCH  17  21
ENDBRANCH   1   9
BRANCH   5  23
HETATM   23  N4  UNL     1      24.818   6.407  48.907  1.00  0.00    -0.309 N 
HETATM   24  C11 UNL     1      26.205   6.219  48.556  1.00  0.00     0.325 C 
HETATM   25  O2  UNL     1      26.853   5.158  48.856  1.00  0.00    -0.247 OA
HETATM   26  N5  UNL     1      26.852   7.268  47.848  1.00  0.00    -0.309 N 
HETATM   27  H10 UNL     1      26.420   8.164  47.558  1.00  0.00     0.170 HD
HETATM   28  H9  UNL     1      24.357   7.292  48.629  1.00  0.00     0.170 HD
BRANCH  26  29
HETATM   29  C12 UNL     1      28.177   7.358  47.384  1.00  0.00     0.036 A 
HETATM   30  C13 UNL     1      28.321   8.096  46.206  1.00  0.00     0.029 A 
HETATM   31  C14 UNL     1      29.580   8.270  45.629  1.00  0.00     0.002 A 
HETATM   32  C15 UNL     1      30.714   7.722  46.200  1.00  0.00     0.000 A 
HETATM   33  C16 UNL     1      30.560   6.990  47.369  1.00  0.00     0.002 A 
HETATM   34  C17 UNL     1      29.325   6.807  47.954  1.00  0.00     0.029 A 
ENDBRANCH  26  29
ENDBRANCH   5  23
TORSDOF 5
ENDMDL
MODEL 3
REMARK VINA RESULT:      -8.4      3.217      9.379
REMARK  5 active torsions:
REMARK  status: ('A' for Active; 'I' for Inactive)
REMARK    1  A    between atoms: O1_2  and  C2_3 
REMARK    2  A    between atoms: C6_9  and  N3_10 
REMARK    3  A    between atoms: C10_14  and  N4_15 
REMARK       I    between atoms: N4_15  and  C11_16 
REMARK       I    between atoms: C11_16  and  N5_18 
REMARK    4  A    between atoms: N5_18  and  C12_19 
REMARK    5  A    between atoms: C23_30  and  O3_31 
ROOT
HETATM    1  N3  UNL     1      23.041   2.422  51.629  1.00  0.00    -0.338 N 
HETATM    2  C7  UNL     1      22.469   1.572  50.627  1.00  0.00     0.093 C 
HETATM    3  C8  UNL     1      21.330   1.523  49.915  1.00  0.00     0.019 C 
HETATM    4  C9  UNL     1      20.125   2.377  49.864  1.00  0.00     0.031 C 
HETATM    5  C10 UNL     1      19.863   3.579  50.406  1.00  0.00     0.036 C 
HETATM    6  C18 UNL     1      20.599   4.524  51.239  1.00  0.00     0.027 C 
HETATM    7  C19 UNL     1      21.595   4.334  52.110  1.00  0.00    -0.005 C 
HETATM    8  C20 UNL     1      22.430   3.213  52.674  1.00  0.00     0.157 C 
ENDROOT
BRANCH   1   9
HETATM    9  C6  UNL     1      24.473   2.391  51.448  1.00  0.00     0.143 A 
HETATM   10  N2  UNL     1      24.944   3.223  50.497  1.00  0.00    -0.223 NA
HETATM   11  C5  UNL     1      26.263   3.279  50.249  1.00  0.00     0.236 A 
HETATM   12  N1  UNL     1      27.167   2.515  50.929  1.00  0.00    -0.241 NA
HETATM   13  C4  UNL     1      26.712   1.681  51.880  1.00  0.00     0.075 A 
HETATM   14  C3  UNL     1      27.533   0.855  52.636  1.00  0.00     0.072 A 
HETATM   15  C21 UNL     1      25.360   1.610  52.149  1.00  0.00     0.042 A 
HETATM   16  C2  UNL     1      27.019   0.001  53.612  1.00  0.00     0.103 A 
HETATM   17  C23 UNL     1      25.657  -0.036  53.846  1.00  0.00     0.102 A 
HETATM   18  C22 UNL     1      24.845   0.781  53.099  1.00  0.00     0.057 A 
BRANCH  16  19
HETATM   19  O1  UNL     1      27.932  -0.777  54.304  1.00  0.00    -0.353 OA
HETATM   20  C1  UNL     1      29.295  -0.642  54.025  1.00  0.00     0.210 C 
ENDBRANCH  16  19
BRANCH  17  21
HETATM   21  O3  UNL     1      25.284  -0.921  54.836  1.00  0.00    -0.353 OA
HETATM   22  C24 UNL     1      23.912  -1.147  55.093  1.00  0.00     0.210 C 
ENDBRANCH  17  21
ENDBRANCH   1   9
BRANCH   5  23
HETATM   23  N4  UNL     1      18.551   4.047  50.099  1.00  0.00    -0.309 N 
HETATM   24  C11 UNL     1      17.519   3.860  51.090  1.00  0.00     0.325 C 
HETATM   25  O2  UNL     1      17.742   3.298  52.218  1.00  0.00    -0.247 OA
HETATM   26  N5  UNL     1      16.215   4.327  50.777  1.00  0.00    -0.309 N 
HETATM   27  H10 UNL     1      15.930   4.793  49.895  1.00  0.00     0.170 HD
HETATM   28  H9  UNL     1      18.298   4.511  49.209  1.00  0.00     0.170 HD
BRANCH  26  29
HETATM   29  C12 UNL     1      15.034   4.280  51.539  1.00  0.00     0.036 A 
HETATM   30  C13 UNL     1      13.863   4.232  50.777  1.00  0.00     0.029 A 
HETATM   31  C14 UNL     1      12.614   4.182  51.399  1.00  0.00     0.002 A 
HETATM   32  C15 UNL     1      12.498   4.180  52.778  1.00  0.00     0.000 A 
HETATM   33  C16 UNL     1      13.667   4.228  53.524  1.00  0.00     0.002 A 
HETATM   34  C17 UNL     1      14.909   4.278  52.928  1.00  0.00     0.029 A 
ENDBRANCH  26  29
ENDBRANCH   5  23
TORSDOF 5
ENDMDL
MODEL 4
REMARK VINA RESULT:      -8.3      1.636      8.603
REMARK  5 active torsions:
REMARK  status: ('A' for Active; 'I' for Inactive)
REMARK    1  A    between atoms: O1_2  and  C2_3 
REMARK    2  A    between atoms: C6_9  and  N3_10 
REMARK    3  A    between atoms: C10_14  and  N4_15 
REMARK       I    between atoms: N4_15  and  C11_16 
REMARK       I    between atoms: C11_16  and  N5_18 
REMARK    4  A    between atoms: N5_18  and  C12_19 
REMARK    5  A    between atoms: C23_30  and  O3_31 
ROOT
HETATM    1  N3  UNL     1      22.924   2.914  50.405  1.00  0.00    -0.338 N 
HETATM    2  C7  UNL     1      22.367   3.607  51.529  1.00  0.00     0.093 C 
HETATM    3  C8  UNL     1      21.225   3.571  52.237  1.00  0.00     0.019 C 
HETATM    4  C9  UNL     1      19.998   2.752  52.146  1.00  0.00     0.031 C 
HETATM    5  C10 UNL     1      19.709   1.661  51.416  1.00  0.00     0.036 C 
HETATM    6  C18 UNL     1      20.426   0.844  50.445  1.00  0.00     0.027 C 
HETATM    7  C19 UNL     1      21.433   1.144  49.619  1.00  0.00    -0.005 C 
HETATM    8  C20 UNL     1      22.301   2.318  49.245  1.00  0.00     0.157 C 
ENDROOT
BRANCH   1   9
HETATM    9  C6  UNL     1      24.356   2.878  50.593  1.00  0.00     0.143 A 
HETATM   10  N2  UNL     1      25.050   3.750  49.835  1.00  0.00    -0.223 NA
HETATM   11  C5  UNL     1      26.389   3.806  49.933  1.00  0.00     0.236 A 
HETATM   12  N1  UNL     1      27.092   3.003  50.783  1.00  0.00    -0.241 NA
HETATM   13  C4  UNL     1      26.413   2.128  51.545  1.00  0.00     0.075 A 
HETATM   14  C3  UNL     1      27.018   1.260  52.444  1.00  0.00     0.072 A 
HETATM   15  C21 UNL     1      25.037   2.057  51.458  1.00  0.00     0.042 A 
HETATM   16  C2  UNL     1      26.275   0.366  53.216  1.00  0.00     0.103 A 
HETATM   17  C23 UNL     1      24.899   0.330  53.094  1.00  0.00     0.102 A 
HETATM   18  C22 UNL     1      24.301   1.189  52.205  1.00  0.00     0.057 A 
BRANCH  16  19
HETATM   19  O1  UNL     1      26.984  -0.452  54.079  1.00  0.00    -0.353 OA
HETATM   20  C1  UNL     1      28.065   0.079  54.791  1.00  0.00     0.210 C 
ENDBRANCH  16  19
BRANCH  17  21
HETATM   21  O3  UNL     1      24.289  -0.597  53.912  1.00  0.00    -0.353 OA
HETATM   22  C24 UNL     1      22.914  -0.882  53.747  1.00  0.00     0.210 C 
ENDBRANCH  17  21
ENDBRANCH   1   9
BRANCH   5  23
HETATM   23  N4  UNL     1      18.383   1.185  51.640  1.00  0.00    -0.309 N 
HETATM   24  C11 UNL     1      18.217  -0.198  52.017  1.00  0.00     0.325 C 
HETATM   25  O2  UNL     1      19.207  -0.996  52.155  1.00  0.00    -0.247 OA
HETATM   26  N5  UNL     1      16.894  -0.665  52.237  1.00  0.00    -0.309 N 
HETATM   27  H10 UNL     1      16.027  -0.102  52.152  1.00  0.00     0.170 HD
HETATM   28  H9  UNL     1      17.536   1.774  51.549  1.00  0.00     0.170 HD
BRANCH  26  29
HETATM   29  C12 UNL     1      16.439  -1.943  52.607  1.00  0.00     0.036 A 
HETATM   30  C13 UNL     1      17.353  -2.677  53.369  1.00  0.00     0.029 A 
HETATM   31  C14 UNL     1      17.037  -3.964  53.808  1.00  0.00     0.002 A 
HETATM   32  C15 UNL     1      15.821  -4.548  53.505  1.00  0.00     0.000 A 
HETATM   33  C16 UNL     1      14.921  -3.812  52.747  1.00  0.00     0.002 A 
HETATM   34  C17 UNL     1      15.215  -2.539  52.304  1.00  0.00     0.029 A 
ENDBRANCH  26  29
ENDBRANCH   5  23
TORSDOF 5
ENDMDL
MODEL 5
REMARK VINA RESULT:      -8.3      2.679      9.279
REMARK  5 active torsions:
REMARK  status: ('A' for Active; 'I' for Inactive)
REMARK    1  A    between atoms: O1_2  and  C2_3 
REMARK    2  A    between atoms: C6_9  and  N3_10 
REMARK    3  A    between atoms: C10_14  and  N4_15 
REMARK       I    between atoms: N4_15  and  C11_16 
REMARK       I    between atoms: C11_16  and  N5_18 
REMARK    4  A    between atoms: N5_18  and  C12_19 
REMARK    5  A    between atoms: C23_30  and  O3_31 
ROOT
HETATM    1  N3  UNL     1      22.950   2.889  50.307  1.00  0.00    -0.338 N 
HETATM    2  C7  UNL     1      22.409   3.794  51.277  1.00  0.00     0.093 C 
HETATM    3  C8  UNL     1      21.252   3.940  51.946  1.00  0.00     0.019 C 
HETATM    4  C9  UNL     1      19.984   3.182  51.960  1.00  0.00     0.031 C 
HETATM    5  C10 UNL     1      19.650   1.996  51.421  1.00  0.00     0.036 C 
HETATM    6  C18 UNL     1      20.341   0.987  50.627  1.00  0.00     0.027 C 
HETATM    7  C19 UNL     1      21.379   1.088  49.792  1.00  0.00    -0.005 C 
HETATM    8  C20 UNL     1      22.319   2.133  49.248  1.00  0.00     0.157 C 
ENDROOT
BRANCH   1   9
HETATM    9  C6  UNL     1      24.373   2.813  50.541  1.00  0.00     0.143 A 
HETATM   10  N2  UNL     1      25.118   3.640  49.780  1.00  0.00    -0.223 NA
HETATM   11  C5  UNL     1      26.455   3.656  49.919  1.00  0.00     0.236 A 
HETATM   12  N1  UNL     1      27.105   2.857  50.814  1.00  0.00    -0.241 NA
HETATM   13  C4  UNL     1      26.374   2.027  51.579  1.00  0.00     0.075 A 
HETATM   14  C3  UNL     1      26.922   1.167  52.521  1.00  0.00     0.072 A 
HETATM   15  C21 UNL     1      25.001   1.997  51.450  1.00  0.00     0.042 A 
HETATM   16  C2  UNL     1      26.127   0.321  53.294  1.00  0.00     0.103 A 
HETATM   17  C23 UNL     1      24.755   0.324  53.129  1.00  0.00     0.102 A 
HETATM   18  C22 UNL     1      24.213   1.175  52.198  1.00  0.00     0.057 A 
BRANCH  16  19
HETATM   19  O1  UNL     1      26.783  -0.494  54.202  1.00  0.00    -0.353 OA
HETATM   20  C1  UNL     1      28.066  -0.143  54.633  1.00  0.00     0.210 C 
ENDBRANCH  16  19
BRANCH  17  21
HETATM   21  O3  UNL     1      24.091  -0.558  53.954  1.00  0.00    -0.353 OA
HETATM   22  C24 UNL     1      22.732  -0.860  53.708  1.00  0.00     0.210 C 
ENDBRANCH  17  21
ENDBRANCH   1   9
BRANCH   5  23
HETATM   23  N4  UNL     1      18.296   1.635  51.684  1.00  0.00    -0.309 N 
HETATM   24  C11 UNL     1      17.306   2.685  51.685  1.00  0.00     0.325 C 
HETATM   25  O2  UNL     1      17.601   3.909  51.460  1.00  0.00    -0.247 OA
HETATM   26  N5  UNL     1      15.958   2.318  51.948  1.00  0.00    -0.309 N 
HETATM   27  H10 UNL     1      15.615   1.359  52.143  1.00  0.00     0.170 HD
HETATM   28  H9  UNL     1      17.983   0.666  51.873  1.00  0.00     0.170 HD
BRANCH  26  29
HETATM   29  C12 UNL     1      14.803   3.116  52.012  1.00  0.00     0.036 A 
HETATM   30  C13 UNL     1      14.476   3.549  53.300  1.00  0.00     0.029 A 
HETATM   31  C14 UNL     1      13.354   4.351  53.516  1.00  0.00     0.002 A 
HETATM   32  C15 UNL     1      12.536   4.737  52.470  1.00  0.00     0.000 A 
HETATM   33  C16 UNL     1      12.868   4.302  51.194  1.00  0.00     0.002 A 
HETATM   34  C17 UNL     1      13.973   3.510  50.962  1.00  0.00     0.029 A 
ENDBRANCH  26  29
ENDBRANCH   5  23
TORSDOF 5
ENDMDL
MODEL 6
REMARK VINA RESULT:      -8.2      4.187      6.984
REMARK  5 active torsions:
REMARK  status: ('A' for Active; 'I' for Inactive)
REMARK    1  A    between atoms: O1_2  and  C2_3 
REMARK    2  A    between atoms: C6_9  and  N3_10 
REMARK    3  A    between atoms: C10_14  and  N4_15 
REMARK       I    between atoms: N4_15  and  C11_16 
REMARK       I    between atoms: C11_16  and  N5_18 
REMARK    4  A    between atoms: N5_18  and  C12_19 
REMARK    5  A    between atoms: C23_30  and  O3_31 
ROOT
HETATM    1  N3  UNL     1      21.376   1.391  52.107  1.00  0.00    -0.338 N 
HETATM    2  C7  UNL     1      21.664   0.937  50.779  1.00  0.00     0.093 C 
HETATM    3  C8  UNL     1      21.950   1.495  49.590  1.00  0.00     0.019 C 
HETATM    4  C9  UNL     1      22.097   2.893  49.133  1.00  0.00     0.031 C 
HETATM    5  C10 UNL     1      22.152   4.051  49.814  1.00  0.00     0.036 C 
HETATM    6  C18 UNL     1      22.093   4.429  51.221  1.00  0.00     0.027 C 
HETATM    7  C19 UNL     1      21.523   3.826  52.268  1.00  0.00    -0.005 C 
HETATM    8  C20 UNL     1      20.724   2.589  52.586  1.00  0.00     0.157 C 
ENDROOT
BRANCH   1   9
HETATM    9  C6  UNL     1      21.876   0.389  53.019  1.00  0.00     0.143 A 
HETATM   10  N2  UNL     1      20.948  -0.475  53.476  1.00  0.00    -0.223 NA
HETATM   11  C5  UNL     1      21.304  -1.452  54.327  1.00  0.00     0.236 A 
HETATM   12  N1  UNL     1      22.590  -1.613  54.757  1.00  0.00    -0.241 NA
HETATM   13  C4  UNL     1      23.525  -0.758  54.309  1.00  0.00     0.075 A 
HETATM   14  C3  UNL     1      24.863  -0.820  54.677  1.00  0.00     0.072 A 
HETATM   15  C21 UNL     1      23.178   0.252  53.435  1.00  0.00     0.042 A 
HETATM   16  C2  UNL     1      25.802   0.089  54.189  1.00  0.00     0.103 A 
HETATM   17  C23 UNL     1      25.407   1.085  53.316  1.00  0.00     0.102 A 
HETATM   18  C22 UNL     1      24.084   1.146  52.952  1.00  0.00     0.057 A 
BRANCH  16  19
HETATM   19  O1  UNL     1      27.107  -0.068  54.624  1.00  0.00    -0.353 OA
HETATM   20  C1  UNL     1      28.042  -0.673  53.778  1.00  0.00     0.210 C 
ENDBRANCH  16  19
BRANCH  17  21
HETATM   21  O3  UNL     1      26.433   1.913  52.912  1.00  0.00    -0.353 OA
HETATM   22  C24 UNL     1      26.712   2.062  51.534  1.00  0.00     0.210 C 
ENDBRANCH  17  21
ENDBRANCH   1   9
BRANCH   5  23
HETATM   23  N4  UNL     1      22.302   5.183  48.961  1.00  0.00    -0.309 N 
HETATM   24  C11 UNL     1      23.641   5.605  48.629  1.00  0.00     0.325 C 
HETATM   25  O2  UNL     1      24.681   5.003  49.067  1.00  0.00    -0.247 OA
HETATM   26  N5  UNL     1      23.783   6.735  47.779  1.00  0.00    -0.309 N 
HETATM   27  H10 UNL     1      23.009   7.292  47.371  1.00  0.00     0.170 HD
HETATM   28  H9  UNL     1      21.507   5.718  48.567  1.00  0.00     0.170 HD
BRANCH  26  29
HETATM   29  C12 UNL     1      24.947   7.360  47.297  1.00  0.00     0.036 A 
HETATM   30  C13 UNL     1      24.765   8.069  46.106  1.00  0.00     0.029 A 
HETATM   31  C14 UNL     1      25.834   8.741  45.510  1.00  0.00     0.002 A 
HETATM   32  C15 UNL     1      27.097   8.724  46.075  1.00  0.00     0.000 A 
HETATM   33  C16 UNL     1      27.267   8.016  47.256  1.00  0.00     0.002 A 
HETATM   34  C17 UNL     1      26.224   7.347  47.860  1.00  0.00     0.029 A 
ENDBRANCH  26  29
ENDBRANCH   5  23
TORSDOF 5
ENDMDL
MODEL 7
REMARK VINA RESULT:      -8.0      2.876      8.802
REMARK  5 active torsions:
REMARK  status: ('A' for Active; 'I' for Inactive)
REMARK    1  A    between atoms: O1_2  and  C2_3 
REMARK    2  A    between atoms: C6_9  and  N3_10 
REMARK    3  A    between atoms: C10_14  and  N4_15 
REMARK       I    between atoms: N4_15  and  C11_16 
REMARK       I    between atoms: C11_16  and  N5_18 
REMARK    4  A    between atoms: N5_18  and  C12_19 
REMARK    5  A    between atoms: C23_30  and  O3_31 
ROOT
HETATM    1  N3  UNL     1      23.118   3.059  50.077  1.00  0.00    -0.338 N 
HETATM    2  C7  UNL     1      22.874   4.330  50.692  1.00  0.00     0.093 C 
HETATM    3  C8  UNL     1      21.815   5.130  50.908  1.00  0.00     0.019 C 
HETATM    4  C9  UNL     1      20.378   5.022  50.582  1.00  0.00     0.031 C 
HETATM    5  C10 UNL     1      19.647   3.999  50.106  1.00  0.00     0.036 C 
HETATM    6  C18 UNL     1      19.923   2.621  49.719  1.00  0.00     0.027 C 
HETATM    7  C19 UNL     1      21.044   2.041  49.279  1.00  0.00    -0.005 C 
HETATM    8  C20 UNL     1      22.475   2.397  48.965  1.00  0.00     0.157 C 
ENDROOT
BRANCH   1   9
HETATM    9  C6  UNL     1      24.216   2.446  50.786  1.00  0.00     0.143 A 
HETATM   10  N2  UNL     1      25.442   2.833  50.379  1.00  0.00    -0.223 NA
HETATM   11  C5  UNL     1      26.536   2.329  50.974  1.00  0.00     0.236 A 
HETATM   12  N1  UNL     1      26.461   1.424  51.993  1.00  0.00    -0.241 NA
HETATM   13  C4  UNL     1      25.246   1.029  52.408  1.00  0.00     0.075 A 
HETATM   14  C3  UNL     1      25.043   0.113  53.433  1.00  0.00     0.072 A 
HETATM   15  C21 UNL     1      24.110   1.536  51.809  1.00  0.00     0.042 A 
HETATM   16  C2  UNL     1      23.763  -0.271  53.833  1.00  0.00     0.103 A 
HETATM   17  C23 UNL     1      22.655   0.263  53.203  1.00  0.00     0.102 A 
HETATM   18  C22 UNL     1      22.856   1.168  52.190  1.00  0.00     0.057 A 
BRANCH  16  19
HETATM   19  O1  UNL     1      23.682  -1.191  54.865  1.00  0.00    -0.353 OA
HETATM   20  C1  UNL     1      24.681  -1.210  55.844  1.00  0.00     0.210 C 
ENDBRANCH  16  19
BRANCH  17  21
HETATM   21  O3  UNL     1      21.454  -0.201  53.695  1.00  0.00    -0.353 OA
HETATM   22  C24 UNL     1      20.241   0.297  53.167  1.00  0.00     0.210 C 
ENDBRANCH  17  21
ENDBRANCH   1   9
BRANCH   5  23
HETATM   23  N4  UNL     1      18.273   4.338  49.936  1.00  0.00    -0.309 N 
HETATM   24  C11 UNL     1      17.376   4.094  51.041  1.00  0.00     0.325 C 
HETATM   25  O2  UNL     1      17.771   3.593  52.149  1.00  0.00    -0.247 OA
HETATM   26  N5  UNL     1      16.008   4.433  50.863  1.00  0.00    -0.309 N 
HETATM   27  H10 UNL     1      15.587   4.841  50.008  1.00  0.00     0.170 HD
HETATM   28  H9  UNL     1      17.882   4.747  49.069  1.00  0.00     0.170 HD
BRANCH  26  29
HETATM   29  C12 UNL     1      14.926   4.307  51.753  1.00  0.00     0.036 A 
HETATM   30  C13 UNL     1      13.715   3.976  51.139  1.00  0.00     0.029 A 
HETATM   31  C14 UNL     1      12.554   3.818  51.899  1.00  0.00     0.002 A 
HETATM   32  C15 UNL     1      12.567   3.985  53.272  1.00  0.00     0.000 A 
HETATM   33  C16 UNL     1      13.775   4.314  53.872  1.00  0.00     0.002 A 
HETATM   34  C17 UNL     1      14.931   4.474  53.139  1.00  0.00     0.029 A 
ENDBRANCH  26  29
ENDBRANCH   5  23
TORSDOF 5
ENDMDL
MODEL 8
REMARK VINA RESULT:      -7.8      4.216      8.331
REMARK  5 active torsions:
REMARK  status: ('A' for Active; 'I' for Inactive)
REMARK    1  A    between atoms: O1_2  and  C2_3 
REMARK    2  A    between atoms: C6_9  and  N3_10 
REMARK    3  A    between atoms: C10_14  and  N4_15 
REMARK       I    between atoms: N4_15  and  C11_16 
REMARK       I    between atoms: C11_16  and  N5_18 
REMARK    4  A    between atoms: N5_18  and  C12_19 
REMARK    5  A    between atoms: C23_30  and  O3_31 
ROOT
HETATM    1  N3  UNL     1      21.649   1.478  51.950  1.00  0.00    -0.338 N 
HETATM    2  C7  UNL     1      21.346   0.666  50.809  1.00  0.00     0.093 C 
HETATM    3  C8  UNL     1      21.364   0.804  49.472  1.00  0.00     0.019 C 
HETATM    4  C9  UNL     1      21.729   1.918  48.571  1.00  0.00     0.031 C 
HETATM    5  C10 UNL     1      22.321   3.100  48.812  1.00  0.00     0.036 C 
HETATM    6  C18 UNL     1      22.836   3.780  49.996  1.00  0.00     0.027 C 
HETATM    7  C19 UNL     1      22.502   3.670  51.285  1.00  0.00    -0.005 C 
HETATM    8  C20 UNL     1      21.546   2.904  52.163  1.00  0.00     0.157 C 
ENDROOT
BRANCH   1   9
HETATM    9  C6  UNL     1      22.127   0.595  52.988  1.00  0.00     0.143 A 
HETATM   10  N2  UNL     1      21.164   0.055  53.762  1.00  0.00    -0.223 NA
HETATM   11  C5  UNL     1      21.496  -0.786  54.756  1.00  0.00     0.236 A 
HETATM   12  N1  UNL     1      22.791  -1.127  55.022  1.00  0.00    -0.241 NA
HETATM   13  C4  UNL     1      23.761  -0.596  54.257  1.00  0.00     0.075 A 
HETATM   14  C3  UNL     1      25.112  -0.866  54.433  1.00  0.00     0.072 A 
HETATM   15  C21 UNL     1      23.439   0.270  53.233  1.00  0.00     0.042 A 
HETATM   16  C2  UNL     1      26.087  -0.292  53.618  1.00  0.00     0.103 A 
HETATM   17  C23 UNL     1      25.718   0.571  52.604  1.00  0.00     0.102 A 
HETATM   18  C22 UNL     1      24.382   0.837  52.430  1.00  0.00     0.057 A 
BRANCH  16  19
HETATM   19  O1  UNL     1      27.403  -0.633  53.885  1.00  0.00    -0.353 OA
HETATM   20  C1  UNL     1      28.121   0.104  54.832  1.00  0.00     0.210 C 
ENDBRANCH  16  19
BRANCH  17  21
HETATM   21  O3  UNL     1      26.778   1.066  51.875  1.00  0.00    -0.353 OA
HETATM   22  C24 UNL     1      26.640   2.286  51.175  1.00  0.00     0.210 C 
ENDBRANCH  17  21
ENDBRANCH   1   9
BRANCH   5  23
HETATM   23  N4  UNL     1      22.485   3.884  47.632  1.00  0.00    -0.309 N 
HETATM   24  C11 UNL     1      21.460   4.848  47.315  1.00  0.00     0.325 C 
HETATM   25  O2  UNL     1      20.426   5.020  48.048  1.00  0.00    -0.247 OA
HETATM   26  N5  UNL     1      21.629   5.624  46.137  1.00  0.00    -0.309 N 
HETATM   27  H10 UNL     1      22.426   5.563  45.476  1.00  0.00     0.170 HD
HETATM   28  H9  UNL     1      23.295   3.800  46.992  1.00  0.00     0.170 HD
BRANCH  26  29
HETATM   29  C12 UNL     1      20.804   6.623  45.589  1.00  0.00     0.036 A 
HETATM   30  C13 UNL     1      19.901   6.156  44.630  1.00  0.00     0.029 A 
HETATM   31  C14 UNL     1      19.017   7.035  44.001  1.00  0.00     0.002 A 
HETATM   32  C15 UNL     1      19.011   8.385  44.304  1.00  0.00     0.000 A 
HETATM   33  C16 UNL     1      19.912   8.838  45.256  1.00  0.00     0.002 A 
HETATM   34  C17 UNL     1      20.792   7.985  45.889  1.00  0.00     0.029 A 
ENDBRANCH  26  29
ENDBRANCH   5  23
TORSDOF 5
ENDMDL
MODEL 9
REMARK VINA RESULT:      -7.7      2.777      8.914
REMARK  5 active torsions:
REMARK  status: ('A' for Active; 'I' for Inactive)
REMARK    1  A    between atoms: O1_2  and  C2_3 
REMARK    2  A    between atoms: C6_9  and  N3_10 
REMARK    3  A    between atoms: C10_14  and  N4_15 
REMARK       I    between atoms: N4_15  and  C11_16 
REMARK       I    between atoms: C11_16  and  N5_18 
REMARK    4  A    between atoms: N5_18  and  C12_19 
REMARK    5  A    between atoms: C23_30  and  O3_31 
ROOT
HETATM    1  N3  UNL     1      23.097   3.465  49.257  1.00  0.00    -0.338 N 
HETATM    2  C7  UNL     1      22.519   4.601  49.912  1.00  0.00     0.093 C 
HETATM    3  C8  UNL     1      21.284   5.041  50.209  1.00  0.00     0.019 C 
HETATM    4  C9  UNL     1      19.929   4.501  49.972  1.00  0.00     0.031 C 
HETATM    5  C10 UNL     1      19.514   3.304  49.522  1.00  0.00     0.036 C 
HETATM    6  C18 UNL     1      20.169   2.075  49.090  1.00  0.00     0.027 C 
HETATM    7  C19 UNL     1      21.381   1.864  48.569  1.00  0.00    -0.005 C 
HETATM    8  C20 UNL     1      22.613   2.639  48.174  1.00  0.00     0.157 C 
ENDROOT
BRANCH   1   9
HETATM    9  C6  UNL     1      24.373   3.215  49.883  1.00  0.00     0.143 A 
HETATM   10  N2  UNL     1      25.400   3.933  49.385  1.00  0.00    -0.223 NA
HETATM   11  C5  UNL     1      26.633   3.783  49.898  1.00  0.00     0.236 A 
HETATM   12  N1  UNL     1      26.898   2.918  50.921  1.00  0.00    -0.241 NA
HETATM   13  C4  UNL     1      25.883   2.196  51.426  1.00  0.00     0.075 A 
HETATM   14  C3  UNL     1      26.030   1.285  52.464  1.00  0.00     0.072 A 
HETATM   15  C21 UNL     1      24.610   2.336  50.912  1.00  0.00     0.042 A 
HETATM   16  C2  UNL     1      24.950   0.554  52.958  1.00  0.00     0.103 A 
HETATM   17  C23 UNL     1      23.693   0.727  52.412  1.00  0.00     0.102 A 
HETATM   18  C22 UNL     1      23.548   1.628  51.385  1.00  0.00     0.057 A 
BRANCH  16  19
HETATM   19  O1  UNL     1      25.215  -0.326  53.995  1.00  0.00    -0.353 OA
HETATM   20  C1  UNL     1      26.231  -0.023  54.906  1.00  0.00     0.210 C 
ENDBRANCH  16  19
BRANCH  17  21
HETATM   21  O3  UNL     1      22.718  -0.055  52.992  1.00  0.00    -0.353 OA
HETATM   22  C24 UNL     1      21.673   0.554  53.724  1.00  0.00     0.210 C 
ENDBRANCH  17  21
ENDBRANCH   1   9
BRANCH   5  23
HETATM   23  N4  UNL     1      18.093   3.209  49.446  1.00  0.00    -0.309 N 
HETATM   24  C11 UNL     1      17.362   3.028  50.676  1.00  0.00     0.325 C 
HETATM   25  O2  UNL     1      17.939   2.955  51.815  1.00  0.00    -0.247 OA
HETATM   26  N5  UNL     1      15.946   2.933  50.592  1.00  0.00    -0.309 N 
HETATM   27  H10 UNL     1      15.383   2.980  49.722  1.00  0.00     0.170 HD
HETATM   28  H9  UNL     1      17.558   3.261  48.560  1.00  0.00     0.170 HD
BRANCH  26  29
HETATM   29  C12 UNL     1      14.993   2.758  51.611  1.00  0.00     0.036 A 
HETATM   30  C13 UNL     1      14.304   3.924  51.956  1.00  0.00     0.029 A 
HETATM   31  C14 UNL     1      13.327   3.901  52.953  1.00  0.00     0.002 A 
HETATM   32  C15 UNL     1      13.013   2.733  53.624  1.00  0.00     0.000 A 
HETATM   33  C16 UNL     1      13.703   1.581  53.274  1.00  0.00     0.002 A 
HETATM   34  C17 UNL     1      14.672   1.584  52.293  1.00  0.00     0.029 A 
ENDBRANCH  26  29
ENDBRANCH   5  23
TORSDOF 5
ENDMDL
