MODEL 1
REMARK VINA RESULT:      -8.0      0.000      0.000
REMARK  8 active torsions:
REMARK  status: ('A' for Active; 'I' for Inactive)
REMARK    1  A    between atoms: O1_1  and  C1_2 
REMARK    2  A    between atoms: C2_4  and  C3_5 
REMARK    3  A    between atoms: C3_5  and  N1_6 
REMARK    4  A    between atoms: N1_6  and  C4_7 
REMARK    5  A    between atoms: C7_12  and  C8_13 
REMARK    6  A    between atoms: C8_13  and  O2_14 
REMARK    7  A    between atoms: O2_14  and  C9_15 
REMARK    8  A    between atoms: C9_15  and  C10_16 
ROOT
HETATM    1  C4  UNL     1      22.846   4.712  51.603  1.00  0.00     0.107 A 
HETATM    2  N2  UNL     1      22.686   4.045  50.509  1.00  0.00    -0.229 NA
HETATM    3  C5  UNL     1      23.269   2.750  50.329  1.00  0.00     0.235 A 
HETATM    4  N3  UNL     1      23.975   2.250  51.303  1.00  0.00    -0.246 NA
HETATM    5  C6  UNL     1      24.187   2.926  52.518  1.00  0.00     0.045 A 
HETATM    6  C7  UNL     1      24.931   2.281  53.411  1.00  0.00     0.067 C 
HETATM    7  C18 UNL     1      23.621   4.257  52.775  1.00  0.00     0.137 A 
ENDROOT
BRANCH   6   8
HETATM    8  C8  UNL     1      25.471   0.962  53.108  1.00  0.00     0.102 C 
HETATM    9  C14 UNL     1      26.789   0.865  53.025  1.00  0.00     0.103 C 
HETATM   10  C15 UNL     1      27.594   2.093  53.247  1.00  0.00     0.235 C 
HETATM   11  O5  UNL     1      27.525  -0.278  52.749  1.00  0.00    -0.348 OA
HETATM   12  O4  UNL     1      28.947   1.862  53.153  1.00  0.00    -0.383 OA
HETATM   13  C16 UNL     1      29.299   0.805  53.958  1.00  0.00     0.194 C 
HETATM   14  C17 UNL     1      28.824  -0.480  53.273  1.00  0.00     0.201 C 
BRANCH   8  15
HETATM   15  O2  UNL     1      24.611  -0.093  52.925  1.00  0.00    -0.346 OA
BRANCH  15  16
HETATM   16  C9  UNL     1      23.829  -0.610  53.964  1.00  0.00     0.207 C 
BRANCH  16  17
HETATM   17  C10 UNL     1      22.475  -1.049  53.435  1.00  0.00     0.145 C 
HETATM   18  C11 UNL     1      21.428  -1.180  54.495  1.00  0.00     0.036 C 
HETATM   19  C12 UNL     1      20.423  -0.090  54.169  1.00  0.00     0.029 C 
HETATM   20  C13 UNL     1      21.258   0.786  53.255  1.00  0.00     0.168 C 
HETATM   21  O3  UNL     1      21.968  -0.168  52.498  1.00  0.00    -0.384 OA
ENDBRANCH  16  17
ENDBRANCH  15  16
ENDBRANCH   8  15
ENDBRANCH   6   8
BRANCH   1  22
HETATM   22  N1  UNL     1      22.207   6.005  51.660  1.00  0.00    -0.374 N 
HETATM   23  H5  UNL     1      21.506   6.162  52.390  1.00  0.00     0.161 HD
BRANCH  22  24
HETATM   24  C3  UNL     1      22.552   7.053  50.703  1.00  0.00     0.152 C 
BRANCH  24  25
HETATM   25  C2  UNL     1      23.933   7.529  50.892  1.00  0.00     0.042 C 
HETATM   26  C1  UNL     1      25.145   7.135  50.539  1.00  0.00     0.134 C 
HETATM   27 CL1  UNL     1      25.881   5.825  49.641  1.00  0.00    -0.057 Cl
BRANCH  26  28
HETATM   28  O1  UNL     1      26.402   7.658  50.769  1.00  0.00    -0.351 OA
HETATM   29  H1  UNL     1      26.712   8.172  51.559  1.00  0.00     0.218 HD
ENDBRANCH  26  28
ENDBRANCH  24  25
ENDBRANCH  22  24
ENDBRANCH   1  22
TORSDOF 8
ENDMDL
MODEL 2
REMARK VINA RESULT:      -7.6      2.681      6.450
REMARK  8 active torsions:
REMARK  status: ('A' for Active; 'I' for Inactive)
REMARK    1  A    between atoms: O1_1  and  C1_2 
REMARK    2  A    between atoms: C2_4  and  C3_5 
REMARK    3  A    between atoms: C3_5  and  N1_6 
REMARK    4  A    between atoms: N1_6  and  C4_7 
REMARK    5  A    between atoms: C7_12  and  C8_13 
REMARK    6  A    between atoms: C8_13  and  O2_14 
REMARK    7  A    between atoms: O2_14  and  C9_15 
REMARK    8  A    between atoms: C9_15  and  C10_16 
ROOT
HETATM    1  C4  UNL     1      27.531   1.700  52.978  1.00  0.00     0.107 A 
HETATM    2  N2  UNL     1      26.926   1.751  54.117  1.00  0.00    -0.229 NA
HETATM    3  C5  UNL     1      25.557   2.159  54.222  1.00  0.00     0.235 A 
HETATM    4  N3  UNL     1      24.925   2.484  53.130  1.00  0.00    -0.246 NA
HETATM    5  C6  UNL     1      25.528   2.451  51.860  1.00  0.00     0.045 A 
HETATM    6  C7  UNL     1      24.749   2.813  50.845  1.00  0.00     0.067 C 
HETATM    7  C18 UNL     1      26.927   2.043  51.675  1.00  0.00     0.137 A 
ENDROOT
BRANCH   6   8
HETATM    8  C8  UNL     1      23.366   3.210  51.081  1.00  0.00     0.102 C 
HETATM    9  C14 UNL     1      23.134   4.509  51.196  1.00  0.00     0.103 C 
HETATM   10  C15 UNL     1      24.287   5.437  51.074  1.00  0.00     0.235 C 
HETATM   11  O5  UNL     1      21.909   5.120  51.421  1.00  0.00    -0.348 OA
HETATM   12  O4  UNL     1      23.917   6.757  51.193  1.00  0.00    -0.383 OA
HETATM   13  C16 UNL     1      22.880   7.032  50.334  1.00  0.00     0.194 C 
HETATM   14  C17 UNL     1      21.610   6.410  50.923  1.00  0.00     0.201 C 
BRANCH   8  15
HETATM   15  O2  UNL     1      22.394   2.246  51.173  1.00  0.00    -0.346 OA
BRANCH  15  16
HETATM   16  C9  UNL     1      21.786   1.908  52.388  1.00  0.00     0.207 C 
BRANCH  16  17
HETATM   17  C10 UNL     1      21.621   0.403  52.494  1.00  0.00     0.145 C 
HETATM   18  C11 UNL     1      22.830  -0.300  53.024  1.00  0.00     0.036 C 
HETATM   19  C12 UNL     1      22.386  -0.857  54.364  1.00  0.00     0.029 C 
HETATM   20  C13 UNL     1      21.146  -0.018  54.611  1.00  0.00     0.168 C 
HETATM   21  O3  UNL     1      20.573   0.049  53.324  1.00  0.00    -0.384 OA
ENDBRANCH  16  17
ENDBRANCH  15  16
ENDBRANCH   8  15
ENDBRANCH   6   8
BRANCH   1  22
HETATM   22  N1  UNL     1      28.909   1.273  53.007  1.00  0.00    -0.374 N 
HETATM   23  H5  UNL     1      29.526   1.589  52.253  1.00  0.00     0.161 HD
BRANCH  22  24
HETATM   24  C3  UNL     1      29.403   0.415  54.082  1.00  0.00     0.152 C 
BRANCH  24  25
HETATM   25  C2  UNL     1      29.353  -1.009  53.709  1.00  0.00     0.042 C 
HETATM   26  C1  UNL     1      28.465  -1.835  53.179  1.00  0.00     0.134 C 
HETATM   27 CL1  UNL     1      26.817  -1.778  52.593  1.00  0.00    -0.057 Cl
BRANCH  26  28
HETATM   28  O1  UNL     1      28.513  -3.178  52.862  1.00  0.00    -0.351 OA
HETATM   29  H1  UNL     1      29.290  -3.791  52.925  1.00  0.00     0.218 HD
ENDBRANCH  26  28
ENDBRANCH  24  25
ENDBRANCH  22  24
ENDBRANCH   1  22
TORSDOF 8
ENDMDL
MODEL 3
REMARK VINA RESULT:      -7.4      1.612      4.779
REMARK  8 active torsions:
REMARK  status: ('A' for Active; 'I' for Inactive)
REMARK    1  A    between atoms: O1_1  and  C1_2 
REMARK    2  A    between atoms: C2_4  and  C3_5 
REMARK    3  A    between atoms: C3_5  and  N1_6 
REMARK    4  A    between atoms: N1_6  and  C4_7 
REMARK    5  A    between atoms: C7_12  and  C8_13 
REMARK    6  A    between atoms: C8_13  and  O2_14 
REMARK    7  A    between atoms: O2_14  and  C9_15 
REMARK    8  A    between atoms: C9_15  and  C10_16 
ROOT
HETATM    1  C4  UNL     1      23.169   4.899  50.452  1.00  0.00     0.107 A 
HETATM    2  N2  UNL     1      23.227   5.508  51.589  1.00  0.00    -0.229 NA
HETATM    3  C5  UNL     1      23.498   4.803  52.805  1.00  0.00     0.235 A 
HETATM    4  N3  UNL     1      23.688   3.515  52.743  1.00  0.00    -0.246 NA
HETATM    5  C6  UNL     1      23.638   2.794  51.536  1.00  0.00     0.045 A 
HETATM    6  C7  UNL     1      23.853   1.486  51.640  1.00  0.00     0.067 C 
HETATM    7  C18 UNL     1      23.365   3.449  50.250  1.00  0.00     0.137 A 
ENDROOT
BRANCH   6   8
HETATM    8  C8  UNL     1      24.119   0.883  52.940  1.00  0.00     0.102 C 
HETATM    9  C14 UNL     1      23.117   0.228  53.507  1.00  0.00     0.103 C 
HETATM   10  C15 UNL     1      21.824   0.164  52.777  1.00  0.00     0.235 C 
HETATM   11  O5  UNL     1      23.132  -0.422  54.732  1.00  0.00    -0.348 OA
HETATM   12  O4  UNL     1      20.870  -0.556  53.457  1.00  0.00    -0.383 OA
HETATM   13  C16 UNL     1      21.375  -1.783  53.815  1.00  0.00     0.194 C 
HETATM   14  C17 UNL     1      22.339  -1.565  54.986  1.00  0.00     0.201 C 
BRANCH   8  15
HETATM   15  O2  UNL     1      25.363   1.019  53.505  1.00  0.00    -0.346 OA
BRANCH  15  16
HETATM   16  C9  UNL     1      26.522   0.537  52.886  1.00  0.00     0.207 C 
BRANCH  16  17
HETATM   17  C10 UNL     1      27.400  -0.178  53.897  1.00  0.00     0.145 C 
HETATM   18  C11 UNL     1      28.493  -0.991  53.279  1.00  0.00     0.036 C 
HETATM   19  C12 UNL     1      29.771  -0.293  53.704  1.00  0.00     0.029 C 
HETATM   20  C13 UNL     1      29.218   1.058  54.119  1.00  0.00     0.168 C 
HETATM   21  O3  UNL     1      28.019   0.700  54.768  1.00  0.00    -0.384 OA
ENDBRANCH  16  17
ENDBRANCH  15  16
ENDBRANCH   8  15
ENDBRANCH   6   8
BRANCH   1  22
HETATM   22  N1  UNL     1      22.889   5.723  49.302  1.00  0.00    -0.374 N 
HETATM   23  H5  UNL     1      22.012   6.252  49.292  1.00  0.00     0.161 HD
BRANCH  22  24
HETATM   24  C3  UNL     1      23.832   5.798  48.188  1.00  0.00     0.152 C 
BRANCH  24  25
HETATM   25  C2  UNL     1      25.121   6.377  48.604  1.00  0.00     0.042 C 
HETATM   26  C1  UNL     1      26.332   5.926  48.888  1.00  0.00     0.134 C 
HETATM   27 CL1  UNL     1      27.171   4.392  48.954  1.00  0.00    -0.057 Cl
BRANCH  26  28
HETATM   28  O1  UNL     1      27.497   6.559  49.276  1.00  0.00    -0.351 OA
HETATM   29  H1  UNL     1      27.594   7.327  49.896  1.00  0.00     0.218 HD
ENDBRANCH  26  28
ENDBRANCH  24  25
ENDBRANCH  22  24
ENDBRANCH   1  22
TORSDOF 8
ENDMDL
MODEL 4
REMARK VINA RESULT:      -7.3      2.869      7.436
REMARK  8 active torsions:
REMARK  status: ('A' for Active; 'I' for Inactive)
REMARK    1  A    between atoms: O1_1  and  C1_2 
REMARK    2  A    between atoms: C2_4  and  C3_5 
REMARK    3  A    between atoms: C3_5  and  N1_6 
REMARK    4  A    between atoms: N1_6  and  C4_7 
REMARK    5  A    between atoms: C7_12  and  C8_13 
REMARK    6  A    between atoms: C8_13  and  O2_14 
REMARK    7  A    between atoms: O2_14  and  C9_15 
REMARK    8  A    between atoms: C9_15  and  C10_16 
ROOT
HETATM    1  C4  UNL     1      27.246   1.592  53.384  1.00  0.00     0.107 A 
HETATM    2  N2  UNL     1      27.673   1.904  52.206  1.00  0.00    -0.229 NA
HETATM    3  C5  UNL     1      26.787   2.384  51.190  1.00  0.00     0.235 A 
HETATM    4  N3  UNL     1      25.522   2.502  51.479  1.00  0.00    -0.246 NA
HETATM    5  C6  UNL     1      24.994   2.178  52.742  1.00  0.00     0.045 A 
HETATM    6  C7  UNL     1      23.683   2.352  52.878  1.00  0.00     0.067 C 
HETATM    7  C18 UNL     1      25.842   1.680  53.833  1.00  0.00     0.137 A 
ENDROOT
BRANCH   6   8
HETATM    8  C8  UNL     1      22.885   2.849  51.764  1.00  0.00     0.102 C 
HETATM    9  C14 UNL     1      21.901   2.068  51.345  1.00  0.00     0.103 C 
HETATM   10  C15 UNL     1      21.696   0.771  52.038  1.00  0.00     0.235 C 
HETATM   11  O5  UNL     1      21.015   2.326  50.309  1.00  0.00    -0.348 OA
HETATM   12  O4  UNL     1      20.637   0.059  51.525  1.00  0.00    -0.383 OA
HETATM   13  C16 UNL     1      19.517   0.855  51.479  1.00  0.00     0.194 C 
HETATM   14  C17 UNL     1      19.689   1.834  50.313  1.00  0.00     0.201 C 
BRANCH   8  15
HETATM   15  O2  UNL     1      23.183   4.071  51.213  1.00  0.00    -0.346 OA
BRANCH  15  16
HETATM   16  C9  UNL     1      23.035   5.268  51.923  1.00  0.00     0.207 C 
BRANCH  16  17
HETATM   17  C10 UNL     1      23.997   6.316  51.393  1.00  0.00     0.145 C 
HETATM   18  C11 UNL     1      24.816   5.850  50.231  1.00  0.00     0.036 C 
HETATM   19  C12 UNL     1      24.342   6.703  49.069  1.00  0.00     0.029 C 
HETATM   20  C13 UNL     1      23.024   7.209  49.622  1.00  0.00     0.168 C 
HETATM   21  O3  UNL     1      23.346   7.460  50.971  1.00  0.00    -0.384 OA
ENDBRANCH  16  17
ENDBRANCH  15  16
ENDBRANCH   8  15
ENDBRANCH   6   8
BRANCH   1  22
HETATM   22  N1  UNL     1      28.240   1.122  54.318  1.00  0.00    -0.374 N 
HETATM   23  H5  UNL     1      28.026   1.183  55.318  1.00  0.00     0.161 HD
BRANCH  22  24
HETATM   24  C3  UNL     1      29.510   0.575  53.846  1.00  0.00     0.152 C 
BRANCH  24  25
HETATM   25  C2  UNL     1      29.489  -0.897  53.809  1.00  0.00     0.042 C 
HETATM   26  C1  UNL     1      28.664  -1.838  53.381  1.00  0.00     0.134 C 
HETATM   27 CL1  UNL     1      27.101  -1.947  52.600  1.00  0.00    -0.057 Cl
BRANCH  26  28
HETATM   28  O1  UNL     1      28.734  -3.217  53.391  1.00  0.00    -0.351 OA
HETATM   29  H1  UNL     1      28.382  -3.839  54.078  1.00  0.00     0.218 HD
ENDBRANCH  26  28
ENDBRANCH  24  25
ENDBRANCH  22  24
ENDBRANCH   1  22
TORSDOF 8
ENDMDL
MODEL 5
REMARK VINA RESULT:      -7.1      2.073      2.322
REMARK  8 active torsions:
REMARK  status: ('A' for Active; 'I' for Inactive)
REMARK    1  A    between atoms: O1_1  and  C1_2 
REMARK    2  A    between atoms: C2_4  and  C3_5 
REMARK    3  A    between atoms: C3_5  and  N1_6 
REMARK    4  A    between atoms: N1_6  and  C4_7 
REMARK    5  A    between atoms: C7_12  and  C8_13 
REMARK    6  A    between atoms: C8_13  and  O2_14 
REMARK    7  A    between atoms: O2_14  and  C9_15 
REMARK    8  A    between atoms: C9_15  and  C10_16 
ROOT
HETATM    1  C4  UNL     1      23.141   4.845  51.547  1.00  0.00     0.107 A 
HETATM    2  N2  UNL     1      23.093   4.245  50.405  1.00  0.00    -0.229 NA
HETATM    3  C5  UNL     1      23.666   2.946  50.215  1.00  0.00     0.235 A 
HETATM    4  N3  UNL     1      24.247   2.373  51.231  1.00  0.00    -0.246 NA
HETATM    5  C6  UNL     1      24.333   2.974  52.500  1.00  0.00     0.045 A 
HETATM    6  C7  UNL     1      24.957   2.260  53.432  1.00  0.00     0.067 C 
HETATM    7  C18 UNL     1      23.768   4.303  52.770  1.00  0.00     0.137 A 
ENDROOT
BRANCH   6   8
HETATM    8  C8  UNL     1      25.500   0.945  53.114  1.00  0.00     0.102 C 
HETATM    9  C14 UNL     1      26.819   0.853  53.031  1.00  0.00     0.103 C 
HETATM   10  C15 UNL     1      27.621   2.080  53.269  1.00  0.00     0.235 C 
HETATM   11  O5  UNL     1      27.559  -0.285  52.743  1.00  0.00    -0.348 OA
HETATM   12  O4  UNL     1      28.974   1.854  53.173  1.00  0.00    -0.383 OA
HETATM   13  C16 UNL     1      29.328   0.788  53.966  1.00  0.00     0.194 C 
HETATM   14  C17 UNL     1      28.857  -0.490  53.266  1.00  0.00     0.201 C 
BRANCH   8  15
HETATM   15  O2  UNL     1      24.644  -0.109  52.917  1.00  0.00    -0.346 OA
BRANCH  15  16
HETATM   16  C9  UNL     1      23.853  -0.634  53.947  1.00  0.00     0.207 C 
BRANCH  16  17
HETATM   17  C10 UNL     1      22.482  -1.012  53.417  1.00  0.00     0.145 C 
HETATM   18  C11 UNL     1      21.428  -1.090  54.475  1.00  0.00     0.036 C 
HETATM   19  C12 UNL     1      20.475   0.043  54.144  1.00  0.00     0.029 C 
HETATM   20  C13 UNL     1      21.351   0.877  53.228  1.00  0.00     0.168 C 
HETATM   21  O3  UNL     1      22.017  -0.111  52.476  1.00  0.00    -0.384 OA
ENDBRANCH  16  17
ENDBRANCH  15  16
ENDBRANCH   8  15
ENDBRANCH   6   8
BRANCH   1  22
HETATM   22  N1  UNL     1      22.527   6.148  51.608  1.00  0.00    -0.374 N 
HETATM   23  H5  UNL     1      22.306   6.533  52.531  1.00  0.00     0.161 HD
BRANCH  22  24
HETATM   24  C3  UNL     1      22.230   6.893  50.387  1.00  0.00     0.152 C 
BRANCH  24  25
HETATM   25  C2  UNL     1      20.784   6.925  50.106  1.00  0.00     0.042 C 
HETATM   26  C1  UNL     1      19.911   6.168  49.462  1.00  0.00     0.134 C 
HETATM   27 CL1  UNL     1      19.902   4.676  48.547  1.00  0.00    -0.057 Cl
BRANCH  26  28
HETATM   28  O1  UNL     1      18.551   6.283  49.252  1.00  0.00    -0.351 OA
HETATM   29  H1  UNL     1      17.826   5.733  49.644  1.00  0.00     0.218 HD
ENDBRANCH  26  28
ENDBRANCH  24  25
ENDBRANCH  22  24
ENDBRANCH   1  22
TORSDOF 8
ENDMDL
MODEL 6
REMARK VINA RESULT:      -7.0      2.783      6.249
REMARK  8 active torsions:
REMARK  status: ('A' for Active; 'I' for Inactive)
REMARK    1  A    between atoms: O1_1  and  C1_2 
REMARK    2  A    between atoms: C2_4  and  C3_5 
REMARK    3  A    between atoms: C3_5  and  N1_6 
REMARK    4  A    between atoms: N1_6  and  C4_7 
REMARK    5  A    between atoms: C7_12  and  C8_13 
REMARK    6  A    between atoms: C8_13  and  O2_14 
REMARK    7  A    between atoms: O2_14  and  C9_15 
REMARK    8  A    between atoms: C9_15  and  C10_16 
ROOT
HETATM    1  C4  UNL     1      26.719   2.436  53.123  1.00  0.00     0.107 A 
HETATM    2  N2  UNL     1      27.132   2.482  51.901  1.00  0.00    -0.229 NA
HETATM    3  C5  UNL     1      26.217   2.573  50.803  1.00  0.00     0.235 A 
HETATM    4  N3  UNL     1      24.941   2.608  51.064  1.00  0.00    -0.246 NA
HETATM    5  C6  UNL     1      24.429   2.562  52.373  1.00  0.00     0.045 A 
HETATM    6  C7  UNL     1      23.103   2.607  52.472  1.00  0.00     0.067 C 
HETATM    7  C18 UNL     1      25.305   2.468  53.548  1.00  0.00     0.137 A 
ENDROOT
BRANCH   6   8
HETATM    8  C8  UNL     1      22.277   2.699  51.275  1.00  0.00     0.102 C 
HETATM    9  C14 UNL     1      21.854   3.908  50.939  1.00  0.00     0.103 C 
HETATM   10  C15 UNL     1      22.254   5.052  51.798  1.00  0.00     0.235 C 
HETATM   11  O5  UNL     1      21.061   4.242  49.850  1.00  0.00    -0.348 OA
HETATM   12  O4  UNL     1      21.770   6.254  51.337  1.00  0.00    -0.383 OA
HETATM   13  C16 UNL     1      22.089   6.409  50.009  1.00  0.00     0.194 C 
HETATM   14  C17 UNL     1      21.166   5.493  49.199  1.00  0.00     0.201 C 
BRANCH   8  15
HETATM   15  O2  UNL     1      21.980   1.559  50.570  1.00  0.00    -0.346 OA
BRANCH  15  16
HETATM   16  C9  UNL     1      21.344   0.460  51.158  1.00  0.00     0.207 C 
BRANCH  16  17
HETATM   17  C10 UNL     1      20.058   0.896  51.835  1.00  0.00     0.145 C 
HETATM   18  C11 UNL     1      18.843   0.172  51.348  1.00  0.00     0.036 C 
HETATM   19  C12 UNL     1      18.380  -0.638  52.545  1.00  0.00     0.029 C 
HETATM   20  C13 UNL     1      19.638  -0.614  53.393  1.00  0.00     0.168 C 
HETATM   21  O3  UNL     1      20.096   0.706  53.205  1.00  0.00    -0.384 OA
ENDBRANCH  16  17
ENDBRANCH  15  16
ENDBRANCH   8  15
ENDBRANCH   6   8
BRANCH   1  22
HETATM   22  N1  UNL     1      27.741   2.346  54.137  1.00  0.00    -0.374 N 
HETATM   23  H5  UNL     1      27.476   2.550  55.106  1.00  0.00     0.161 HD
BRANCH  22  24
HETATM   24  C3  UNL     1      29.111   1.974  53.789  1.00  0.00     0.152 C 
BRANCH  24  25
HETATM   25  C2  UNL     1      29.324   0.521  53.896  1.00  0.00     0.042 C 
HETATM   26  C1  UNL     1      28.700  -0.576  53.498  1.00  0.00     0.134 C 
HETATM   27 CL1  UNL     1      27.255  -1.006  52.609  1.00  0.00    -0.057 Cl
BRANCH  26  28
HETATM   28  O1  UNL     1      28.984  -1.919  53.650  1.00  0.00    -0.351 OA
HETATM   29  H1  UNL     1      28.848  -2.483  54.454  1.00  0.00     0.218 HD
ENDBRANCH  26  28
ENDBRANCH  24  25
ENDBRANCH  22  24
ENDBRANCH   1  22
TORSDOF 8
ENDMDL
MODEL 7
REMARK VINA RESULT:      -6.9      2.052      2.917
REMARK  8 active torsions:
REMARK  status: ('A' for Active; 'I' for Inactive)
REMARK    1  A    between atoms: O1_1  and  C1_2 
REMARK    2  A    between atoms: C2_4  and  C3_5 
REMARK    3  A    between atoms: C3_5  and  N1_6 
REMARK    4  A    between atoms: N1_6  and  C4_7 
REMARK    5  A    between atoms: C7_12  and  C8_13 
REMARK    6  A    between atoms: C8_13  and  O2_14 
REMARK    7  A    between atoms: O2_14  and  C9_15 
REMARK    8  A    between atoms: C9_15  and  C10_16 
ROOT
HETATM    1  C4  UNL     1      24.053   5.470  50.429  1.00  0.00     0.107 A 
HETATM    2  N2  UNL     1      23.695   5.871  51.603  1.00  0.00    -0.229 NA
HETATM    3  C5  UNL     1      23.435   4.945  52.664  1.00  0.00     0.235 A 
HETATM    4  N3  UNL     1      23.567   3.672  52.419  1.00  0.00    -0.246 NA
HETATM    5  C6  UNL     1      23.953   3.173  51.162  1.00  0.00     0.045 A 
HETATM    6  C7  UNL     1      24.042   1.849  51.074  1.00  0.00     0.067 C 
HETATM    7  C18 UNL     1      24.237   4.061  50.028  1.00  0.00     0.137 A 
ENDROOT
BRANCH   6   8
HETATM    8  C8  UNL     1      23.750   1.010  52.229  1.00  0.00     0.102 C 
HETATM    9  C14 UNL     1      24.788   0.446  52.829  1.00  0.00     0.103 C 
HETATM   10  C15 UNL     1      26.142   0.714  52.281  1.00  0.00     0.235 C 
HETATM   11  O5  UNL     1      24.758  -0.386  53.938  1.00  0.00    -0.348 OA
HETATM   12  O4  UNL     1      27.135   0.089  52.998  1.00  0.00    -0.383 OA
HETATM   13  C16 UNL     1      27.002   0.380  54.335  1.00  0.00     0.194 C 
HETATM   14  C17 UNL     1      25.820  -0.433  54.872  1.00  0.00     0.201 C 
BRANCH   8  15
HETATM   15  O2  UNL     1      22.449   0.846  52.632  1.00  0.00    -0.346 OA
BRANCH  15  16
HETATM   16  C9  UNL     1      21.489   0.222  51.827  1.00  0.00     0.207 C 
BRANCH  16  17
HETATM   17  C10 UNL     1      20.182   0.992  51.874  1.00  0.00     0.145 C 
HETATM   18  C11 UNL     1      20.254   2.255  52.671  1.00  0.00     0.036 C 
HETATM   19  C12 UNL     1      20.063   3.360  51.649  1.00  0.00     0.029 C 
HETATM   20  C13 UNL     1      20.358   2.601  50.369  1.00  0.00     0.168 C 
HETATM   21  O3  UNL     1      19.743   1.357  50.614  1.00  0.00    -0.384 OA
ENDBRANCH  16  17
ENDBRANCH  15  16
ENDBRANCH   8  15
ENDBRANCH   6   8
BRANCH   1  22
HETATM   22  N1  UNL     1      24.286   6.502  49.448  1.00  0.00    -0.374 N 
HETATM   23  H5  UNL     1      23.472   6.916  48.984  1.00  0.00     0.161 HD
BRANCH  22  24
HETATM   24  C3  UNL     1      25.643   6.941  49.131  1.00  0.00     0.152 C 
BRANCH  24  25
HETATM   25  C2  UNL     1      26.138   7.928  50.106  1.00  0.00     0.042 C 
HETATM   26  C1  UNL     1      27.141   8.787  50.183  1.00  0.00     0.134 C 
HETATM   27 CL1  UNL     1      28.499   9.298  49.204  1.00  0.00    -0.057 Cl
BRANCH  26  28
HETATM   28  O1  UNL     1      27.528   9.686  51.156  1.00  0.00    -0.351 OA
HETATM   29  H1  UNL     1      27.005  10.442  51.529  1.00  0.00     0.218 HD
ENDBRANCH  26  28
ENDBRANCH  24  25
ENDBRANCH  22  24
ENDBRANCH   1  22
TORSDOF 8
ENDMDL
MODEL 8
REMARK VINA RESULT:      -6.8      3.068      6.638
REMARK  8 active torsions:
REMARK  status: ('A' for Active; 'I' for Inactive)
REMARK    1  A    between atoms: O1_1  and  C1_2 
REMARK    2  A    between atoms: C2_4  and  C3_5 
REMARK    3  A    between atoms: C3_5  and  N1_6 
REMARK    4  A    between atoms: N1_6  and  C4_7 
REMARK    5  A    between atoms: C7_12  and  C8_13 
REMARK    6  A    between atoms: C8_13  and  O2_14 
REMARK    7  A    between atoms: O2_14  and  C9_15 
REMARK    8  A    between atoms: C9_15  and  C10_16 
ROOT
HETATM    1  C4  UNL     1      26.242   1.573  52.538  1.00  0.00     0.107 A 
HETATM    2  N2  UNL     1      25.974   2.378  53.511  1.00  0.00    -0.229 NA
HETATM    3  C5  UNL     1      24.686   2.990  53.644  1.00  0.00     0.235 A 
HETATM    4  N3  UNL     1      23.777   2.716  52.753  1.00  0.00    -0.246 NA
HETATM    5  C6  UNL     1      24.007   1.848  51.670  1.00  0.00     0.045 A 
HETATM    6  C7  UNL     1      22.977   1.672  50.847  1.00  0.00     0.067 C 
HETATM    7  C18 UNL     1      25.301   1.184  51.468  1.00  0.00     0.137 A 
ENDROOT
BRANCH   6   8
HETATM    8  C8  UNL     1      21.713   2.354  51.090  1.00  0.00     0.102 C 
HETATM    9  C14 UNL     1      21.452   3.408  50.332  1.00  0.00     0.103 C 
HETATM   10  C15 UNL     1      22.457   3.799  49.310  1.00  0.00     0.235 C 
HETATM   11  O5  UNL     1      20.322   4.211  50.380  1.00  0.00    -0.348 OA
HETATM   12  O4  UNL     1      22.066   4.894  48.576  1.00  0.00    -0.383 OA
HETATM   13  C16 UNL     1      20.802   4.694  48.074  1.00  0.00     0.194 C 
HETATM   14  C17 UNL     1      19.811   4.859  49.231  1.00  0.00     0.201 C 
BRANCH   8  15
HETATM   15  O2  UNL     1      20.872   1.887  52.070  1.00  0.00    -0.346 OA
BRANCH  15  16
HETATM   16  C9  UNL     1      20.580   0.527  52.219  1.00  0.00     0.207 C 
BRANCH  16  17
HETATM   17  C10 UNL     1      20.639   0.134  53.684  1.00  0.00     0.145 C 
HETATM   18  C11 UNL     1      20.399  -1.323  53.928  1.00  0.00     0.036 C 
HETATM   19  C12 UNL     1      21.725  -1.841  54.453  1.00  0.00     0.029 C 
HETATM   20  C13 UNL     1      22.650  -0.722  54.012  1.00  0.00     0.168 C 
HETATM   21  O3  UNL     1      21.865   0.423  54.255  1.00  0.00    -0.384 OA
ENDBRANCH  16  17
ENDBRANCH  15  16
ENDBRANCH   8  15
ENDBRANCH   6   8
BRANCH   1  22
HETATM   22  N1  UNL     1      27.575   1.022  52.517  1.00  0.00    -0.374 N 
HETATM   23  H5  UNL     1      28.045   0.936  51.611  1.00  0.00     0.161 HD
BRANCH  22  24
HETATM   24  C3  UNL     1      28.231   0.601  53.753  1.00  0.00     0.152 C 
BRANCH  24  25
HETATM   25  C2  UNL     1      28.629  -0.816  53.702  1.00  0.00     0.042 C 
HETATM   26  C1  UNL     1      28.170  -1.927  53.149  1.00  0.00     0.134 C 
HETATM   27 CL1  UNL     1      26.825  -2.426  52.146  1.00  0.00    -0.057 Cl
BRANCH  26  28
HETATM   28  O1  UNL     1      28.623  -3.232  53.158  1.00  0.00    -0.351 OA
HETATM   29  H1  UNL     1      28.095  -4.058  53.306  1.00  0.00     0.218 HD
ENDBRANCH  26  28
ENDBRANCH  24  25
ENDBRANCH  22  24
ENDBRANCH   1  22
TORSDOF 8
ENDMDL
MODEL 9
REMARK VINA RESULT:      -6.7      3.407      6.770
REMARK  8 active torsions:
REMARK  status: ('A' for Active; 'I' for Inactive)
REMARK    1  A    between atoms: O1_1  and  C1_2 
REMARK    2  A    between atoms: C2_4  and  C3_5 
REMARK    3  A    between atoms: C3_5  and  N1_6 
REMARK    4  A    between atoms: N1_6  and  C4_7 
REMARK    5  A    between atoms: C7_12  and  C8_13 
REMARK    6  A    between atoms: C8_13  and  O2_14 
REMARK    7  A    between atoms: O2_14  and  C9_15 
REMARK    8  A    between atoms: C9_15  and  C10_16 
ROOT
HETATM    1  C4  UNL     1      26.298   1.817  53.096  1.00  0.00     0.107 A 
HETATM    2  N2  UNL     1      25.342   2.365  53.769  1.00  0.00    -0.229 NA
HETATM    3  C5  UNL     1      24.414   3.265  53.156  1.00  0.00     0.235 A 
HETATM    4  N3  UNL     1      24.552   3.526  51.887  1.00  0.00    -0.246 NA
HETATM    5  C6  UNL     1      25.572   2.962  51.099  1.00  0.00     0.045 A 
HETATM    6  C7  UNL     1      25.579   3.329  49.821  1.00  0.00     0.067 C 
HETATM    7  C18 UNL     1      26.561   2.031  51.659  1.00  0.00     0.137 A 
ENDROOT
BRANCH   6   8
HETATM    8  C8  UNL     1      24.576   4.256  49.314  1.00  0.00     0.102 C 
HETATM    9  C14 UNL     1      24.987   5.486  49.045  1.00  0.00     0.103 C 
HETATM   10  C15 UNL     1      26.418   5.810  49.280  1.00  0.00     0.235 C 
HETATM   11  O5  UNL     1      24.220   6.534  48.558  1.00  0.00    -0.348 OA
HETATM   12  O4  UNL     1      26.726   7.109  48.948  1.00  0.00    -0.383 OA
HETATM   13  C16 UNL     1      26.288   7.384  47.675  1.00  0.00     0.194 C 
HETATM   14  C17 UNL     1      24.766   7.543  47.730  1.00  0.00     0.201 C 
BRANCH   8  15
HETATM   15  O2  UNL     1      23.284   3.825  49.143  1.00  0.00    -0.346 OA
BRANCH  15  16
HETATM   16  C9  UNL     1      22.974   2.632  48.480  1.00  0.00     0.207 C 
BRANCH  16  17
HETATM   17  C10 UNL     1      22.210   1.700  49.403  1.00  0.00     0.145 C 
HETATM   18  C11 UNL     1      21.564   2.394  50.560  1.00  0.00     0.036 C 
HETATM   19  C12 UNL     1      20.075   2.239  50.311  1.00  0.00     0.029 C 
HETATM   20  C13 UNL     1      20.081   1.880  48.837  1.00  0.00     0.168 C 
HETATM   21  O3  UNL     1      21.198   1.025  48.745  1.00  0.00    -0.384 OA
ENDBRANCH  16  17
ENDBRANCH  15  16
ENDBRANCH   8  15
ENDBRANCH   6   8
BRANCH   1  22
HETATM   22  N1  UNL     1      27.166   0.929  53.830  1.00  0.00    -0.374 N 
HETATM   23  H5  UNL     1      26.794   0.483  54.674  1.00  0.00     0.161 HD
BRANCH  22  24
HETATM   24  C3  UNL     1      28.533   0.676  53.380  1.00  0.00     0.152 C 
BRANCH  24  25
HETATM   25  C2  UNL     1      28.863  -0.759  53.421  1.00  0.00     0.042 C 
HETATM   26  C1  UNL     1      28.292  -1.890  53.040  1.00  0.00     0.134 C 
HETATM   27 CL1  UNL     1      26.812  -2.407  52.261  1.00  0.00    -0.057 Cl
BRANCH  26  28
HETATM   28  O1  UNL     1      28.688  -3.210  53.123  1.00  0.00    -0.351 OA
HETATM   29  H1  UNL     1      28.116  -4.020  53.091  1.00  0.00     0.218 HD
ENDBRANCH  26  28
ENDBRANCH  24  25
ENDBRANCH  22  24
ENDBRANCH   1  22
TORSDOF 8
ENDMDL
