MODEL 1
REMARK VINA RESULT:      -7.4      0.000      0.000
REMARK  2 active torsions:
REMARK  status: ('A' for Active; 'I' for Inactive)
REMARK    1  A    between atoms: C12_17  and  C13_18 
REMARK    2  A    between atoms: C13_18  and  C14_20 
ROOT
HETATM    1  C1  UNL     1      17.895   0.275  50.654  1.00  0.00     0.036 C 
HETATM    2  C2  UNL     1      19.360   0.296  50.685  1.00  0.00    -0.024 C 
HETATM    3  C3  UNL     1      20.332   1.163  51.065  1.00  0.00    -0.057 C 
HETATM    4  C4  UNL     1      19.843   2.426  51.587  1.00  0.00     0.024 C 
HETATM    5  C5  UNL     1      20.394   3.522  52.056  1.00  0.00     0.090 C 
HETATM    6  N1  UNL     1      21.558   4.258  52.384  1.00  0.00    -0.352 N 
HETATM    7  C6  UNL     1      22.444   5.027  51.583  1.00  0.00     0.143 C 
HETATM    8  N2  UNL     1      22.887   4.011  50.908  1.00  0.00    -0.048 NA
HETATM    9  C7  UNL     1      24.188   4.380  50.469  1.00  0.00     0.719 C 
HETATM   10  N3  UNL     1      24.414   5.574  50.907  1.00  0.00    -0.098 NA
HETATM   11  C8  UNL     1      23.114   6.271  51.114  1.00  0.00     0.248 C 
HETATM   12  N4  UNL     1      25.300   3.886  49.743  1.00  0.00    -0.222 N 
HETATM   13  C9  UNL     1      26.506   3.346  50.321  1.00  0.00     0.143 C 
HETATM   14  C10 UNL     1      26.337   2.020  51.020  1.00  0.00     0.055 C 
HETATM   15  P1  UNL     1      25.203   2.183  52.440  1.00  0.00    -0.104 P 
HETATM   16  C11 UNL     1      23.689   1.235  52.388  1.00  0.00     0.010 C 
HETATM   17  C12 UNL     1      22.534   0.632  52.116  1.00  0.00    -0.036 C 
HETATM   18  C15 UNL     1      21.710   0.718  50.890  1.00  0.00     0.075 C 
HETATM   19  H7  UNL     1      22.040   4.407  53.295  1.00  0.00     0.166 HD
HETATM   20  H10 UNL     1      25.283   3.894  48.685  1.00  0.00     0.177 HD
HETATM   21  H15 UNL     1      24.940   3.564  52.724  1.00  0.00     0.061 HD
ENDROOT
BRANCH  17  22
HETATM   22  C13 UNL     1      21.772  -0.309  53.008  1.00  0.00     0.264 C 
HETATM   23  F1  UNL     1      22.335  -1.571  53.004  1.00  0.00    -0.239 F 
BRANCH  22  24
HETATM   24  C14 UNL     1      21.694   0.138  54.431  1.00  0.00     0.391 C 
HETATM   25  F2  UNL     1      21.934  -0.913  55.317  1.00  0.00    -0.211 F 
HETATM   26  F3  UNL     1      20.417   0.591  54.759  1.00  0.00    -0.211 F 
ENDBRANCH  22  24
ENDBRANCH  17  22
TORSDOF 2
ENDMDL
MODEL 2
REMARK VINA RESULT:      -7.3      2.419      4.925
REMARK  2 active torsions:
REMARK  status: ('A' for Active; 'I' for Inactive)
REMARK    1  A    between atoms: C12_17  and  C13_18 
REMARK    2  A    between atoms: C13_18  and  C14_20 
ROOT
HETATM    1  C1  UNL     1      26.744   0.371  54.123  1.00  0.00     0.036 C 
HETATM    2  C2  UNL     1      25.747   1.393  53.793  1.00  0.00    -0.024 C 
HETATM    3  C3  UNL     1      25.467   2.204  52.742  1.00  0.00    -0.057 C 
HETATM    4  C4  UNL     1      26.368   2.060  51.613  1.00  0.00     0.024 C 
HETATM    5  C5  UNL     1      26.480   2.613  50.427  1.00  0.00     0.090 C 
HETATM    6  N1  UNL     1      26.009   3.536  49.462  1.00  0.00    -0.352 N 
HETATM    7  C6  UNL     1      26.198   4.938  49.329  1.00  0.00     0.143 C 
HETATM    8  N2  UNL     1      25.540   5.238  50.406  1.00  0.00    -0.048 NA
HETATM    9  C7  UNL     1      25.055   6.559  50.205  1.00  0.00     0.719 C 
HETATM   10  N3  UNL     1      25.461   6.940  49.040  1.00  0.00    -0.098 NA
HETATM   11  C8  UNL     1      26.692   6.184  48.681  1.00  0.00     0.248 C 
HETATM   12  N4  UNL     1      24.284   7.569  50.831  1.00  0.00    -0.222 N 
HETATM   13  C9  UNL     1      22.900   7.863  50.548  1.00  0.00     0.143 C 
HETATM   14  C10 UNL     1      21.922   6.803  50.989  1.00  0.00     0.055 C 
HETATM   15  P1  UNL     1      22.229   5.239  50.103  1.00  0.00    -0.104 P 
HETATM   16  C11 UNL     1      22.699   3.823  51.086  1.00  0.00     0.010 C 
HETATM   17  C12 UNL     1      23.222   2.926  51.919  1.00  0.00    -0.036 C 
HETATM   18  C15 UNL     1      24.324   3.098  52.892  1.00  0.00     0.075 C 
HETATM   19  H7  UNL     1      25.410   3.402  48.621  1.00  0.00     0.166 HD
HETATM   20  H10 UNL     1      24.721   8.181  51.576  1.00  0.00     0.177 HD
HETATM   21  H15 UNL     1      23.144   5.441  49.017  1.00  0.00     0.061 HD
ENDROOT
BRANCH  17  22
HETATM   22  C13 UNL     1      22.808   1.490  52.081  1.00  0.00     0.264 C 
HETATM   23  F1  UNL     1      22.366   1.236  53.365  1.00  0.00    -0.239 F 
BRANCH  22  24
HETATM   24  C14 UNL     1      21.722   1.065  51.147  1.00  0.00     0.391 C 
HETATM   25  F2  UNL     1      21.201  -0.183  51.492  1.00  0.00    -0.211 F 
HETATM   26  F3  UNL     1      22.198   0.901  49.846  1.00  0.00    -0.211 F 
ENDBRANCH  22  24
ENDBRANCH  17  22
TORSDOF 2
ENDMDL
MODEL 3
REMARK VINA RESULT:      -7.2      3.801      6.081
REMARK  2 active torsions:
REMARK  status: ('A' for Active; 'I' for Inactive)
REMARK    1  A    between atoms: C12_17  and  C13_18 
REMARK    2  A    between atoms: C13_18  and  C14_20 
ROOT
HETATM    1  C1  UNL     1      26.174  -0.497  53.294  1.00  0.00     0.036 C 
HETATM    2  C2  UNL     1      25.178   0.245  52.516  1.00  0.00    -0.024 C 
HETATM    3  C3  UNL     1      23.847   0.497  52.591  1.00  0.00    -0.057 C 
HETATM    4  C4  UNL     1      23.182  -0.108  53.731  1.00  0.00     0.024 C 
HETATM    5  C5  UNL     1      21.953  -0.134  54.192  1.00  0.00     0.090 C 
HETATM    6  N1  UNL     1      20.597   0.253  54.074  1.00  0.00    -0.352 N 
HETATM    7  C6  UNL     1      19.534  -0.264  53.285  1.00  0.00     0.143 C 
HETATM    8  N2  UNL     1      20.065   0.079  52.152  1.00  0.00    -0.048 NA
HETATM    9  C7  UNL     1      18.978   0.234  51.249  1.00  0.00     0.719 C 
HETATM   10  N3  UNL     1      17.898  -0.031  51.905  1.00  0.00    -0.098 NA
HETATM   11  C8  UNL     1      18.227  -0.934  53.042  1.00  0.00     0.248 C 
HETATM   12  N4  UNL     1      18.687   0.585  49.908  1.00  0.00    -0.222 N 
HETATM   13  C9  UNL     1      18.212   1.873  49.463  1.00  0.00     0.143 C 
HETATM   14  C10 UNL     1      19.217   2.992  49.567  1.00  0.00     0.055 C 
HETATM   15  P1  UNL     1      19.687   3.273  51.307  1.00  0.00    -0.104 P 
HETATM   16  C11 UNL     1      21.400   3.010  51.744  1.00  0.00     0.010 C 
HETATM   17  C12 UNL     1      22.646   2.591  51.950  1.00  0.00    -0.036 C 
HETATM   18  C15 UNL     1      23.276   1.320  51.530  1.00  0.00     0.075 C 
HETATM   19  H7  UNL     1      20.058   1.014  54.539  1.00  0.00     0.166 HD
HETATM   20  H10 UNL     1      18.816  -0.128  49.136  1.00  0.00     0.177 HD
HETATM   21  H15 UNL     1      18.812   2.557  52.191  1.00  0.00     0.061 HD
ENDROOT
BRANCH  17  22
HETATM   22  C13 UNL     1      23.741   3.325  52.672  1.00  0.00     0.264 C 
HETATM   23  F1  UNL     1      24.901   3.361  51.922  1.00  0.00    -0.239 F 
BRANCH  22  24
HETATM   24  C14 UNL     1      23.395   4.736  53.020  1.00  0.00     0.391 C 
HETATM   25  F2  UNL     1      23.775   5.625  52.013  1.00  0.00    -0.211 F 
HETATM   26  F3  UNL     1      24.084   5.170  54.152  1.00  0.00    -0.211 F 
ENDBRANCH  22  24
ENDBRANCH  17  22
TORSDOF 2
ENDMDL
MODEL 4
REMARK VINA RESULT:      -6.8      3.186      4.287
REMARK  2 active torsions:
REMARK  status: ('A' for Active; 'I' for Inactive)
REMARK    1  A    between atoms: C12_17  and  C13_18 
REMARK    2  A    between atoms: C13_18  and  C14_20 
ROOT
HETATM    1  C1  UNL     1      21.669  -1.229  54.523  1.00  0.00     0.036 C 
HETATM    2  C2  UNL     1      21.996  -0.672  53.207  1.00  0.00    -0.024 C 
HETATM    3  C3  UNL     1      21.683   0.439  52.495  1.00  0.00    -0.057 C 
HETATM    4  C4  UNL     1      20.784   1.356  53.172  1.00  0.00     0.024 C 
HETATM    5  C5  UNL     1      20.230   2.511  52.881  1.00  0.00     0.090 C 
HETATM    6  N1  UNL     1      20.043   3.579  51.972  1.00  0.00    -0.352 N 
HETATM    7  C6  UNL     1      19.196   3.715  50.839  1.00  0.00     0.143 C 
HETATM    8  N2  UNL     1      19.802   2.804  50.142  1.00  0.00    -0.048 NA
HETATM    9  C7  UNL     1      19.565   3.140  48.781  1.00  0.00     0.719 C 
HETATM   10  N3  UNL     1      18.841   4.210  48.774  1.00  0.00    -0.098 NA
HETATM   11  C8  UNL     1      18.073   4.287  50.047  1.00  0.00     0.248 C 
HETATM   12  N4  UNL     1      19.860   2.716  47.462  1.00  0.00    -0.222 N 
HETATM   13  C9  UNL     1      20.872   3.283  46.606  1.00  0.00     0.143 C 
HETATM   14  C10 UNL     1      22.293   3.018  47.038  1.00  0.00     0.055 C 
HETATM   15  P1  UNL     1      22.619   3.774  48.666  1.00  0.00    -0.104 P 
HETATM   16  C11 UNL     1      23.042   2.672  50.008  1.00  0.00     0.010 C 
HETATM   17  C12 UNL     1      23.150   1.723  50.934  1.00  0.00    -0.036 C 
HETATM   18  C15 UNL     1      22.275   0.552  51.166  1.00  0.00     0.075 C 
HETATM   19  H7  UNL     1      20.487   4.520  51.919  1.00  0.00     0.166 HD
HETATM   20  H10 UNL     1      19.315   1.917  47.031  1.00  0.00     0.177 HD
HETATM   21  H15 UNL     1      21.551   4.657  49.039  1.00  0.00     0.061 HD
ENDROOT
BRANCH  17  22
HETATM   22  C13 UNL     1      24.213   1.604  51.991  1.00  0.00     0.264 C 
HETATM   23  F1  UNL     1      25.389   1.104  51.465  1.00  0.00    -0.239 F 
BRANCH  22  24
HETATM   24  C14 UNL     1      24.542   2.896  52.664  1.00  0.00     0.391 C 
HETATM   25  F2  UNL     1      25.280   2.698  53.832  1.00  0.00    -0.211 F 
HETATM   26  F3  UNL     1      23.393   3.565  53.083  1.00  0.00    -0.211 F 
ENDBRANCH  22  24
ENDBRANCH  17  22
TORSDOF 2
ENDMDL
MODEL 5
REMARK VINA RESULT:      -6.7      4.215      6.391
REMARK  2 active torsions:
REMARK  status: ('A' for Active; 'I' for Inactive)
REMARK    1  A    between atoms: C12_17  and  C13_18 
REMARK    2  A    between atoms: C13_18  and  C14_20 
ROOT
HETATM    1  C1  UNL     1      27.250   2.160  52.374  1.00  0.00     0.036 C 
HETATM    2  C2  UNL     1      26.398   2.491  51.227  1.00  0.00    -0.024 C 
HETATM    3  C3  UNL     1      25.134   2.940  51.027  1.00  0.00    -0.057 C 
HETATM    4  C4  UNL     1      24.377   3.172  52.244  1.00  0.00     0.024 C 
HETATM    5  C5  UNL     1      23.165   3.590  52.527  1.00  0.00     0.090 C 
HETATM    6  N1  UNL     1      21.898   4.047  52.090  1.00  0.00    -0.352 N 
HETATM    7  C6  UNL     1      20.758   3.348  51.611  1.00  0.00     0.143 C 
HETATM    8  N2  UNL     1      21.337   2.926  50.530  1.00  0.00    -0.048 NA
HETATM    9  C7  UNL     1      20.291   2.719  49.589  1.00  0.00     0.719 C 
HETATM   10  N3  UNL     1      19.184   3.026  50.178  1.00  0.00    -0.098 NA
HETATM   11  C8  UNL     1      19.352   2.862  51.649  1.00  0.00     0.248 C 
HETATM   12  N4  UNL     1      20.061   2.313  48.252  1.00  0.00    -0.222 N 
HETATM   13  C9  UNL     1      19.821   3.197  47.137  1.00  0.00     0.143 C 
HETATM   14  C10 UNL     1      21.010   4.021  46.712  1.00  0.00     0.055 C 
HETATM   15  P1  UNL     1      21.529   5.139  48.056  1.00  0.00    -0.104 P 
HETATM   16  C11 UNL     1      23.170   4.906  48.725  1.00  0.00     0.010 C 
HETATM   17  C12 UNL     1      24.322   4.487  49.243  1.00  0.00    -0.036 C 
HETATM   18  C15 UNL     1      24.715   3.117  49.641  1.00  0.00     0.075 C 
HETATM   19  H7  UNL     1      21.506   5.009  52.014  1.00  0.00     0.166 HD
HETATM   20  H10 UNL     1      20.057   1.283  48.007  1.00  0.00     0.177 HD
HETATM   21  H15 UNL     1      20.545   5.170  49.100  1.00  0.00     0.061 HD
ENDROOT
BRANCH  17  22
HETATM   22  C13 UNL     1      25.534   5.322  49.551  1.00  0.00     0.264 C 
HETATM   23  F1  UNL     1      26.295   5.539  48.418  1.00  0.00    -0.239 F 
BRANCH  22  24
HETATM   24  C14 UNL     1      25.213   6.660  50.132  1.00  0.00     0.391 C 
HETATM   25  F2  UNL     1      26.363   7.426  50.334  1.00  0.00    -0.211 F 
HETATM   26  F3  UNL     1      24.639   6.547  51.397  1.00  0.00    -0.211 F 
ENDBRANCH  22  24
ENDBRANCH  17  22
TORSDOF 2
ENDMDL
MODEL 6
REMARK VINA RESULT:      -6.6      2.540      4.319
REMARK  2 active torsions:
REMARK  status: ('A' for Active; 'I' for Inactive)
REMARK    1  A    between atoms: C12_17  and  C13_18 
REMARK    2  A    between atoms: C13_18  and  C14_20 
ROOT
HETATM    1  C1  UNL     1      21.140  -0.732  54.549  1.00  0.00     0.036 C 
HETATM    2  C2  UNL     1      20.876   0.599  53.996  1.00  0.00    -0.024 C 
HETATM    3  C3  UNL     1      21.398   1.393  53.027  1.00  0.00    -0.057 C 
HETATM    4  C4  UNL     1      22.525   0.816  52.318  1.00  0.00     0.024 C 
HETATM    5  C5  UNL     1      23.315   1.202  51.343  1.00  0.00     0.090 C 
HETATM    6  N1  UNL     1      23.694   2.184  50.395  1.00  0.00    -0.352 N 
HETATM    7  C6  UNL     1      24.480   3.360  50.520  1.00  0.00     0.143 C 
HETATM    8  N2  UNL     1      23.637   3.971  51.294  1.00  0.00    -0.048 NA
HETATM    9  C7  UNL     1      23.866   5.360  51.091  1.00  0.00     0.719 C 
HETATM   10  N3  UNL     1      24.818   5.466  50.225  1.00  0.00    -0.098 NA
HETATM   11  C8  UNL     1      25.657   4.237  50.270  1.00  0.00     0.248 C 
HETATM   12  N4  UNL     1      23.402   6.635  51.497  1.00  0.00    -0.222 N 
HETATM   13  C9  UNL     1      22.501   7.477  50.749  1.00  0.00     0.143 C 
HETATM   14  C10 UNL     1      21.087   6.964  50.648  1.00  0.00     0.055 C 
HETATM   15  P1  UNL     1      21.044   5.373  49.757  1.00  0.00    -0.104 P 
HETATM   16  C11 UNL     1      20.454   3.948  50.660  1.00  0.00     0.010 C 
HETATM   17  C12 UNL     1      20.182   2.960  51.510  1.00  0.00    -0.036 C 
HETATM   18  C15 UNL     1      20.771   2.697  52.842  1.00  0.00     0.075 C 
HETATM   19  H7  UNL     1      23.480   2.274  49.379  1.00  0.00     0.166 HD
HETATM   20  H10 UNL     1      23.718   7.040  52.423  1.00  0.00     0.177 HD
HETATM   21  H15 UNL     1      22.309   5.104  49.135  1.00  0.00     0.061 HD
ENDROOT
BRANCH  17  22
HETATM   22  C13 UNL     1      19.185   1.851  51.321  1.00  0.00     0.264 C 
HETATM   23  F1  UNL     1      17.898   2.284  51.574  1.00  0.00    -0.239 F 
BRANCH  22  24
HETATM   24  C14 UNL     1      19.192   1.260  49.949  1.00  0.00     0.391 C 
HETATM   25  F2  UNL     1      18.306   0.186  49.844  1.00  0.00    -0.211 F 
HETATM   26  F3  UNL     1      20.438   0.722  49.627  1.00  0.00    -0.211 F 
ENDBRANCH  22  24
ENDBRANCH  17  22
TORSDOF 2
ENDMDL
MODEL 7
REMARK VINA RESULT:      -6.5      8.443     10.858
REMARK  2 active torsions:
REMARK  status: ('A' for Active; 'I' for Inactive)
REMARK    1  A    between atoms: C12_17  and  C13_18 
REMARK    2  A    between atoms: C13_18  and  C14_20 
ROOT
HETATM    1  C1  UNL     1      26.034   5.495  49.029  1.00  0.00     0.036 C 
HETATM    2  C2  UNL     1      27.166   6.065  48.292  1.00  0.00    -0.024 C 
HETATM    3  C3  UNL     1      27.910   7.198  48.338  1.00  0.00    -0.057 C 
HETATM    4  C4  UNL     1      27.522   8.132  49.380  1.00  0.00     0.024 C 
HETATM    5  C5  UNL     1      27.939   9.309  49.785  1.00  0.00     0.090 C 
HETATM    6  N1  UNL     1      28.833  10.399  49.653  1.00  0.00    -0.352 N 
HETATM    7  C6  UNL     1      28.836  11.513  48.770  1.00  0.00     0.143 C 
HETATM    8  N2  UNL     1      29.036  10.803  47.703  1.00  0.00    -0.048 NA
HETATM    9  C7  UNL     1      29.674  11.673  46.777  1.00  0.00     0.719 C 
HETATM   10  N3  UNL     1      29.799  12.820  47.356  1.00  0.00    -0.098 NA
HETATM   11  C8  UNL     1      28.751  12.953  48.405  1.00  0.00     0.248 C 
HETATM   12  N4  UNL     1      30.219  11.701  45.469  1.00  0.00    -0.222 N 
HETATM   13  C9  UNL     1      31.621  11.608  45.143  1.00  0.00     0.143 C 
HETATM   14  C10 UNL     1      32.247  10.261  45.405  1.00  0.00     0.055 C 
HETATM   15  P1  UNL     1      32.181   9.859  47.183  1.00  0.00    -0.104 P 
HETATM   16  C11 UNL     1      31.238   8.418  47.660  1.00  0.00     0.010 C 
HETATM   17  C12 UNL     1      30.350   7.449  47.872  1.00  0.00    -0.036 C 
HETATM   18  C15 UNL     1      28.973   7.324  47.347  1.00  0.00     0.075 C 
HETATM   19  H7  UNL     1      29.703  10.639  50.172  1.00  0.00     0.166 HD
HETATM   20  H10 UNL     1      29.577  11.795  44.633  1.00  0.00     0.177 HD
HETATM   21  H15 UNL     1      31.794  11.008  47.950  1.00  0.00     0.061 HD
ENDROOT
BRANCH  17  22
HETATM   22  C13 UNL     1      30.539   6.216  48.712  1.00  0.00     0.264 C 
HETATM   23  F1  UNL     1      30.410   5.068  47.953  1.00  0.00    -0.239 F 
BRANCH  22  24
HETATM   24  C14 UNL     1      31.865   6.148  49.396  1.00  0.00     0.391 C 
HETATM   25  F2  UNL     1      32.709   5.211  48.798  1.00  0.00    -0.211 F 
HETATM   26  F3  UNL     1      31.740   5.718  50.717  1.00  0.00    -0.211 F 
ENDBRANCH  22  24
ENDBRANCH  17  22
TORSDOF 2
ENDMDL
MODEL 8
REMARK VINA RESULT:      -6.3      3.454      5.776
REMARK  2 active torsions:
REMARK  status: ('A' for Active; 'I' for Inactive)
REMARK    1  A    between atoms: C12_17  and  C13_18 
REMARK    2  A    between atoms: C13_18  and  C14_20 
ROOT
HETATM    1  C1  UNL     1      21.297   7.178  50.514  1.00  0.00     0.036 C 
HETATM    2  C2  UNL     1      21.805   6.047  51.295  1.00  0.00    -0.024 C 
HETATM    3  C3  UNL     1      21.605   4.706  51.344  1.00  0.00    -0.057 C 
HETATM    4  C4  UNL     1      20.637   4.205  50.386  1.00  0.00     0.024 C 
HETATM    5  C5  UNL     1      20.143   3.026  50.082  1.00  0.00     0.090 C 
HETATM    6  N1  UNL     1      20.094   1.630  50.306  1.00  0.00    -0.352 N 
HETATM    7  C6  UNL     1      19.409   0.855  51.280  1.00  0.00     0.143 C 
HETATM    8  N2  UNL     1      20.090   1.316  52.283  1.00  0.00    -0.048 NA
HETATM    9  C7  UNL     1      20.042   0.302  53.279  1.00  0.00     0.719 C 
HETATM   10  N3  UNL     1      19.341  -0.670  52.798  1.00  0.00    -0.098 NA
HETATM   11  C8  UNL     1      18.411  -0.136  51.766  1.00  0.00     0.248 C 
HETATM   12  N4  UNL     1      20.505   0.001  54.583  1.00  0.00    -0.222 N 
HETATM   13  C9  UNL     1      21.631  -0.844  54.898  1.00  0.00     0.143 C 
HETATM   14  C10 UNL     1      22.977  -0.276  54.522  1.00  0.00     0.055 C 
HETATM   15  P1  UNL     1      23.093  -0.045  52.716  1.00  0.00    -0.104 P 
HETATM   16  C11 UNL     1      23.317   1.625  52.120  1.00  0.00     0.010 C 
HETATM   17  C12 UNL     1      23.286   2.923  51.827  1.00  0.00    -0.036 C 
HETATM   18  C15 UNL     1      22.372   3.967  52.342  1.00  0.00     0.075 C 
HETATM   19  H7  UNL     1      20.554   0.839  49.807  1.00  0.00     0.166 HD
HETATM   20  H10 UNL     1      20.012   0.411  55.425  1.00  0.00     0.177 HD
HETATM   21  H15 UNL     1      21.997  -0.689  52.050  1.00  0.00     0.061 HD
ENDROOT
BRANCH  17  22
HETATM   22  C13 UNL     1      24.197   3.662  50.886  1.00  0.00     0.264 C 
HETATM   23  F1  UNL     1      25.510   3.608  51.312  1.00  0.00    -0.239 F 
BRANCH  22  24
HETATM   24  C14 UNL     1      24.164   3.145  49.484  1.00  0.00     0.391 C 
HETATM   25  F2  UNL     1      25.448   2.996  48.958  1.00  0.00    -0.211 F 
HETATM   26  F3  UNL     1      23.530   4.038  48.622  1.00  0.00    -0.211 F 
ENDBRANCH  22  24
ENDBRANCH  17  22
TORSDOF 2
ENDMDL
MODEL 9
REMARK VINA RESULT:      -6.3      3.106      5.387
REMARK  2 active torsions:
REMARK  status: ('A' for Active; 'I' for Inactive)
REMARK    1  A    between atoms: C12_17  and  C13_18 
REMARK    2  A    between atoms: C13_18  and  C14_20 
ROOT
HETATM    1  C1  UNL     1      25.228   2.444  52.823  1.00  0.00     0.036 C 
HETATM    2  C2  UNL     1      23.779   2.654  52.897  1.00  0.00    -0.024 C 
HETATM    3  C3  UNL     1      22.708   2.480  52.082  1.00  0.00    -0.057 C 
HETATM    4  C4  UNL     1      23.030   1.945  50.771  1.00  0.00     0.024 C 
HETATM    5  C5  UNL     1      22.345   1.624  49.697  1.00  0.00     0.090 C 
HETATM    6  N1  UNL     1      21.103   1.526  49.026  1.00  0.00    -0.352 N 
HETATM    7  C6  UNL     1      20.318   2.497  48.347  1.00  0.00     0.143 C 
HETATM    8  N2  UNL     1      20.053   3.185  49.414  1.00  0.00    -0.048 NA
HETATM    9  C7  UNL     1      18.823   3.848  49.148  1.00  0.00     0.719 C 
HETATM   10  N3  UNL     1      18.459   3.509  47.956  1.00  0.00    -0.098 NA
HETATM   11  C8  UNL     1      19.663   3.127  47.169  1.00  0.00     0.248 C 
HETATM   12  N4  UNL     1      17.879   4.721  49.740  1.00  0.00    -0.222 N 
HETATM   13  C9  UNL     1      16.627   4.323  50.337  1.00  0.00     0.143 C 
HETATM   14  C10 UNL     1      16.754   3.543  51.622  1.00  0.00     0.055 C 
HETATM   15  P1  UNL     1      17.625   1.968  51.332  1.00  0.00    -0.104 P 
HETATM   16  C11 UNL     1      19.181   1.727  52.180  1.00  0.00     0.010 C 
HETATM   17  C12 UNL     1      20.397   1.777  52.716  1.00  0.00    -0.036 C 
HETATM   18  C15 UNL     1      21.407   2.855  52.623  1.00  0.00     0.075 C 
HETATM   19  H7  UNL     1      20.468   0.714  48.876  1.00  0.00     0.166 HD
HETATM   20  H10 UNL     1      18.070   5.762  49.770  1.00  0.00     0.177 HD
HETATM   21  H15 UNL     1      17.757   1.710  49.927  1.00  0.00     0.061 HD
ENDROOT
BRANCH  17  22
HETATM   22  C13 UNL     1      21.055   0.730  53.571  1.00  0.00     0.264 C 
HETATM   23  F1  UNL     1      20.441   0.631  54.805  1.00  0.00    -0.239 F 
BRANCH  22  24
HETATM   24  C14 UNL     1      21.050  -0.635  52.964  1.00  0.00     0.391 C 
HETATM   25  F2  UNL     1      20.646  -1.608  53.881  1.00  0.00    -0.211 F 
HETATM   26  F3  UNL     1      22.330  -1.029  52.574  1.00  0.00    -0.211 F 
ENDBRANCH  22  24
ENDBRANCH  17  22
TORSDOF 2
ENDMDL
