MODEL 1
REMARK VINA RESULT:      -7.2      0.000      0.000
REMARK  4 active torsions:
REMARK  status: ('A' for Active; 'I' for Inactive)
REMARK    1  A    between atoms: O1_2  and  C2_3 
REMARK    2  A    between atoms: C5_6  and  N1_7 
REMARK    3  A    between atoms: N1_7  and  C6_8 
REMARK    4  A    between atoms: C15_19  and  O2_20 
ROOT
HETATM    1  C2  UNL     1      23.021   3.932  51.750  1.00  0.00     0.091 A 
HETATM    2  C3  UNL     1      23.756   3.433  52.736  1.00  0.00     0.051 A 
HETATM    3  C4  UNL     1      24.818   3.265  51.744  1.00  0.00     0.036 A 
HETATM    4  C5  UNL     1      26.076   2.857  51.462  1.00  0.00     0.139 C 
HETATM    5  N2  UNL     1      26.793   2.915  50.223  1.00  0.00    -0.224 NA
HETATM    6  C13 UNL     1      26.597   3.888  49.364  1.00  0.00     0.234 C 
HETATM    7  N3  UNL     1      25.708   5.018  49.438  1.00  0.00    -0.254 NA
HETATM    8  C14 UNL     1      24.543   4.985  50.006  1.00  0.00     0.141 C 
HETATM    9  C15 UNL     1      23.977   3.816  50.641  1.00  0.00     0.173 A 
ENDROOT
BRANCH   4  10
HETATM   10  N1  UNL     1      26.701   2.335  52.652  1.00  0.00    -0.340 N 
HETATM   11  H5  UNL     1      26.857   3.047  53.393  1.00  0.00     0.167 HD
BRANCH  10  12
HETATM   12  C6  UNL     1      27.057   0.962  52.765  1.00  0.00     0.034 A 
HETATM   13  C7  UNL     1      26.107   0.023  52.438  1.00  0.00     0.029 A 
HETATM   14  C8  UNL     1      26.492  -1.313  52.561  1.00  0.00     0.003 A 
HETATM   15  C9  UNL     1      27.771  -1.609  52.991  1.00  0.00     0.007 A 
HETATM   16  C10 UNL     1      28.700  -0.637  53.310  1.00  0.00    -0.060 A 
HETATM   17  C11 UNL     1      30.077  -0.953  53.774  1.00  0.00     0.048 C 
HETATM   18  C12 UNL     1      28.339   0.695  53.196  1.00  0.00     0.036 A 
ENDBRANCH  10  12
ENDBRANCH   4  10
BRANCH   9  19
HETATM   19  O2  UNL     1      23.706   2.735  49.768  1.00  0.00    -0.368 OA
HETATM   20  C16 UNL     1      22.990   3.172  48.683  1.00  0.00     0.204 C 
ENDBRANCH   9  19
BRANCH   1  21
HETATM   21  O1  UNL     1      21.721   4.426  51.721  1.00  0.00    -0.356 OA
HETATM   22  C1  UNL     1      20.580   3.614  51.853  1.00  0.00     0.209 C 
ENDBRANCH   1  21
TORSDOF 4
ENDMDL
MODEL 2
REMARK VINA RESULT:      -7.1      2.637      6.287
REMARK  4 active torsions:
REMARK  status: ('A' for Active; 'I' for Inactive)
REMARK    1  A    between atoms: O1_2  and  C2_3 
REMARK    2  A    between atoms: C5_6  and  N1_7 
REMARK    3  A    between atoms: N1_7  and  C6_8 
REMARK    4  A    between atoms: C15_19  and  O2_20 
ROOT
HETATM    1  C2  UNL     1      27.613   0.691  54.040  1.00  0.00     0.091 A 
HETATM    2  C3  UNL     1      27.299   1.959  53.805  1.00  0.00     0.051 A 
HETATM    3  C4  UNL     1      26.007   1.463  53.334  1.00  0.00     0.036 A 
HETATM    4  C5  UNL     1      24.785   1.736  52.820  1.00  0.00     0.139 C 
HETATM    5  N2  UNL     1      23.710   0.842  52.512  1.00  0.00    -0.224 NA
HETATM    6  C13 UNL     1      23.498  -0.244  53.218  1.00  0.00     0.234 C 
HETATM    7  N3  UNL     1      24.216  -0.758  54.355  1.00  0.00    -0.254 NA
HETATM    8  C14 UNL     1      25.495  -0.631  54.520  1.00  0.00     0.141 C 
HETATM    9  C15 UNL     1      26.376   0.040  53.591  1.00  0.00     0.173 A 
ENDROOT
BRANCH   4  10
HETATM   10  N1  UNL     1      24.643   3.157  52.624  1.00  0.00    -0.340 N 
HETATM   11  H5  UNL     1      24.538   3.697  53.505  1.00  0.00     0.167 HD
BRANCH  10  12
HETATM   12  C6  UNL     1      24.651   3.732  51.322  1.00  0.00     0.034 A 
HETATM   13  C7  UNL     1      23.443   4.084  50.767  1.00  0.00     0.029 A 
HETATM   14  C8  UNL     1      23.491   4.645  49.490  1.00  0.00     0.003 A 
HETATM   15  C9  UNL     1      24.715   4.811  48.871  1.00  0.00     0.007 A 
HETATM   16  C10 UNL     1      25.910   4.445  49.461  1.00  0.00    -0.060 A 
HETATM   17  C11 UNL     1      27.228   4.622  48.797  1.00  0.00     0.048 C 
HETATM   18  C12 UNL     1      25.887   3.886  50.728  1.00  0.00     0.036 A 
ENDBRANCH  10  12
ENDBRANCH   4  10
BRANCH   9  19
HETATM   19  O2  UNL     1      26.487  -0.578  52.323  1.00  0.00    -0.368 OA
HETATM   20  C16 UNL     1      26.744  -1.917  52.470  1.00  0.00     0.204 C 
ENDBRANCH   9  19
BRANCH   1  21
HETATM   21  O1  UNL     1      28.763   0.101  54.553  1.00  0.00    -0.356 OA
HETATM   22  C1  UNL     1      29.785  -0.434  53.748  1.00  0.00     0.209 C 
ENDBRANCH   1  21
TORSDOF 4
ENDMDL
MODEL 3
REMARK VINA RESULT:      -7.0      1.674      3.147
REMARK  4 active torsions:
REMARK  status: ('A' for Active; 'I' for Inactive)
REMARK    1  A    between atoms: O1_2  and  C2_3 
REMARK    2  A    between atoms: C5_6  and  N1_7 
REMARK    3  A    between atoms: N1_7  and  C6_8 
REMARK    4  A    between atoms: C15_19  and  O2_20 
ROOT
HETATM    1  C2  UNL     1      23.830   3.530  49.255  1.00  0.00     0.091 A 
HETATM    2  C3  UNL     1      25.130   3.504  49.519  1.00  0.00     0.051 A 
HETATM    3  C4  UNL     1      24.764   3.007  50.845  1.00  0.00     0.036 A 
HETATM    4  C5  UNL     1      25.161   2.592  52.069  1.00  0.00     0.139 C 
HETATM    5  N2  UNL     1      24.372   2.114  53.165  1.00  0.00    -0.224 NA
HETATM    6  C13 UNL     1      23.264   1.440  52.968  1.00  0.00     0.234 C 
HETATM    7  N3  UNL     1      22.627   1.053  51.736  1.00  0.00    -0.254 NA
HETATM    8  C14 UNL     1      22.645   1.771  50.657  1.00  0.00     0.141 C 
HETATM    9  C15 UNL     1      23.304   3.052  50.540  1.00  0.00     0.173 A 
ENDROOT
BRANCH   4  10
HETATM   10  N1  UNL     1      26.598   2.652  52.165  1.00  0.00    -0.340 N 
HETATM   11  H5  UNL     1      27.007   3.545  51.827  1.00  0.00     0.167 HD
BRANCH  10  12
HETATM   12  C6  UNL     1      27.354   1.563  52.682  1.00  0.00     0.034 A 
HETATM   13  C7  UNL     1      28.464   1.854  53.441  1.00  0.00     0.029 A 
HETATM   14  C8  UNL     1      29.180   0.761  53.930  1.00  0.00     0.003 A 
HETATM   15  C9  UNL     1      28.747  -0.518  53.635  1.00  0.00     0.007 A 
HETATM   16  C10 UNL     1      27.625  -0.771  52.868  1.00  0.00    -0.060 A 
HETATM   17  C11 UNL     1      27.157  -2.145  52.548  1.00  0.00     0.048 C 
HETATM   18  C12 UNL     1      26.899   0.298  52.371  1.00  0.00     0.036 A 
ENDBRANCH  10  12
ENDBRANCH   4  10
BRANCH   9  19
HETATM   19  O2  UNL     1      22.759   4.079  51.347  1.00  0.00    -0.368 OA
HETATM   20  C16 UNL     1      21.392   4.093  51.235  1.00  0.00     0.204 C 
ENDBRANCH   9  19
BRANCH   1  21
HETATM   21  O1  UNL     1      23.123   3.898  48.115  1.00  0.00    -0.356 OA
HETATM   22  C1  UNL     1      22.656   5.205  47.880  1.00  0.00     0.209 C 
ENDBRANCH   1  21
TORSDOF 4
ENDMDL
MODEL 4
REMARK VINA RESULT:      -7.0      3.168      6.337
REMARK  4 active torsions:
REMARK  status: ('A' for Active; 'I' for Inactive)
REMARK    1  A    between atoms: O1_2  and  C2_3 
REMARK    2  A    between atoms: C5_6  and  N1_7 
REMARK    3  A    between atoms: N1_7  and  C6_8 
REMARK    4  A    between atoms: C15_19  and  O2_20 
ROOT
HETATM    1  C2  UNL     1      27.327  -0.517  52.963  1.00  0.00     0.091 A 
HETATM    2  C3  UNL     1      26.205  -1.172  53.229  1.00  0.00     0.051 A 
HETATM    3  C4  UNL     1      25.534   0.126  53.170  1.00  0.00     0.036 A 
HETATM    4  C5  UNL     1      24.387   0.836  53.268  1.00  0.00     0.139 C 
HETATM    5  N2  UNL     1      24.169   2.240  53.082  1.00  0.00    -0.224 NA
HETATM    6  C13 UNL     1      24.874   2.934  52.221  1.00  0.00     0.234 C 
HETATM    7  N3  UNL     1      25.932   2.509  51.340  1.00  0.00    -0.254 NA
HETATM    8  C14 UNL     1      26.790   1.584  51.636  1.00  0.00     0.141 C 
HETATM    9  C15 UNL     1      26.806   0.853  52.883  1.00  0.00     0.173 A 
ENDROOT
BRANCH   4  10
HETATM   10  N1  UNL     1      23.289  -0.047  53.575  1.00  0.00    -0.340 N 
HETATM   11  H5  UNL     1      23.501  -0.740  54.319  1.00  0.00     0.167 HD
BRANCH  10  12
HETATM   12  C6  UNL     1      22.042   0.054  52.898  1.00  0.00     0.034 A 
HETATM   13  C7  UNL     1      20.901  -0.251  53.603  1.00  0.00     0.029 A 
HETATM   14  C8  UNL     1      19.697  -0.141  52.906  1.00  0.00     0.003 A 
HETATM   15  C9  UNL     1      19.717   0.258  51.583  1.00  0.00     0.007 A 
HETATM   16  C10 UNL     1      20.885   0.558  50.907  1.00  0.00    -0.060 A 
HETATM   17  C11 UNL     1      20.909   0.987  49.484  1.00  0.00     0.048 C 
HETATM   18  C12 UNL     1      22.092   0.455  51.579  1.00  0.00     0.036 A 
ENDBRANCH  10  12
ENDBRANCH   4  10
BRANCH   9  19
HETATM   19  O2  UNL     1      27.085   1.635  54.029  1.00  0.00    -0.368 OA
HETATM   20  C16 UNL     1      28.164   2.449  53.794  1.00  0.00     0.204 C 
ENDBRANCH   9  19
BRANCH   1  21
HETATM   21  O1  UNL     1      28.639  -0.953  52.803  1.00  0.00    -0.356 OA
HETATM   22  C1  UNL     1      29.605  -0.896  53.824  1.00  0.00     0.209 C 
ENDBRANCH   1  21
TORSDOF 4
ENDMDL
MODEL 5
REMARK VINA RESULT:      -6.7      3.383      6.778
REMARK  4 active torsions:
REMARK  status: ('A' for Active; 'I' for Inactive)
REMARK    1  A    between atoms: O1_2  and  C2_3 
REMARK    2  A    between atoms: C5_6  and  N1_7 
REMARK    3  A    between atoms: N1_7  and  C6_8 
REMARK    4  A    between atoms: C15_19  and  O2_20 
ROOT
HETATM    1  C2  UNL     1      26.590   1.698  52.687  1.00  0.00     0.091 A 
HETATM    2  C3  UNL     1      25.439   2.334  52.513  1.00  0.00     0.051 A 
HETATM    3  C4  UNL     1      24.798   1.153  53.090  1.00  0.00     0.036 A 
HETATM    4  C5  UNL     1      23.658   0.528  53.464  1.00  0.00     0.139 C 
HETATM    5  N2  UNL     1      23.486  -0.752  54.084  1.00  0.00    -0.224 NA
HETATM    6  C13 UNL     1      24.377  -1.233  54.920  1.00  0.00     0.234 C 
HETATM    7  N3  UNL     1      25.617  -0.661  55.376  1.00  0.00    -0.254 NA
HETATM    8  C14 UNL     1      26.382   0.085  54.640  1.00  0.00     0.141 C 
HETATM    9  C15 UNL     1      26.099   0.443  53.269  1.00  0.00     0.173 A 
ENDROOT
BRANCH   4  10
HETATM   10  N1  UNL     1      22.522   1.369  53.182  1.00  0.00    -0.340 N 
HETATM   11  H5  UNL     1      22.438   2.190  53.813  1.00  0.00     0.167 HD
BRANCH  10  12
HETATM   12  C6  UNL     1      21.619   1.068  52.123  1.00  0.00     0.034 A 
HETATM   13  C7  UNL     1      22.038   1.304  50.835  1.00  0.00     0.029 A 
HETATM   14  C8  UNL     1      21.126   0.997  49.824  1.00  0.00     0.003 A 
HETATM   15  C9  UNL     1      19.887   0.488  50.165  1.00  0.00     0.007 A 
HETATM   16  C10 UNL     1      19.501   0.264  51.473  1.00  0.00    -0.060 A 
HETATM   17  C11 UNL     1      18.169  -0.283  51.842  1.00  0.00     0.048 C 
HETATM   18  C12 UNL     1      20.390   0.562  52.492  1.00  0.00     0.036 A 
ENDBRANCH  10  12
ENDBRANCH   4  10
BRANCH   9  19
HETATM   19  O2  UNL     1      26.090  -0.640  52.359  1.00  0.00    -0.368 OA
HETATM   20  C16 UNL     1      27.145  -1.479  52.613  1.00  0.00     0.204 C 
ENDBRANCH   9  19
BRANCH   1  21
HETATM   21  O1  UNL     1      27.903   2.066  52.410  1.00  0.00    -0.356 OA
HETATM   22  C1  UNL     1      28.893   2.212  53.400  1.00  0.00     0.209 C 
ENDBRANCH   1  21
TORSDOF 4
ENDMDL
MODEL 6
REMARK VINA RESULT:      -6.6      3.007      6.310
REMARK  4 active torsions:
REMARK  status: ('A' for Active; 'I' for Inactive)
REMARK    1  A    between atoms: O1_2  and  C2_3 
REMARK    2  A    between atoms: C5_6  and  N1_7 
REMARK    3  A    between atoms: N1_7  and  C6_8 
REMARK    4  A    between atoms: C15_19  and  O2_20 
ROOT
HETATM    1  C2  UNL     1      26.505  -0.446  53.590  1.00  0.00     0.091 A 
HETATM    2  C3  UNL     1      25.198  -0.601  53.758  1.00  0.00     0.051 A 
HETATM    3  C4  UNL     1      25.055   0.749  53.213  1.00  0.00     0.036 A 
HETATM    4  C5  UNL     1      24.239   1.769  52.861  1.00  0.00     0.139 C 
HETATM    5  N2  UNL     1      24.568   3.032  52.272  1.00  0.00    -0.224 NA
HETATM    6  C13 UNL     1      25.575   3.158  51.440  1.00  0.00     0.234 C 
HETATM    7  N3  UNL     1      26.506   2.169  50.963  1.00  0.00    -0.254 NA
HETATM    8  C14 UNL     1      26.929   1.171  51.675  1.00  0.00     0.141 C 
HETATM    9  C15 UNL     1      26.528   0.915  53.040  1.00  0.00     0.173 A 
ENDROOT
BRANCH   4  10
HETATM   10  N1  UNL     1      22.868   1.416  53.133  1.00  0.00    -0.340 N 
HETATM   11  H5  UNL     1      22.630   1.399  54.144  1.00  0.00     0.167 HD
BRANCH  10  12
HETATM   12  C6  UNL     1      21.953   1.125  52.083  1.00  0.00     0.034 A 
HETATM   13  C7  UNL     1      22.365   1.349  50.791  1.00  0.00     0.029 A 
HETATM   14  C8  UNL     1      21.441   1.052  49.788  1.00  0.00     0.003 A 
HETATM   15  C9  UNL     1      20.197   0.563  50.140  1.00  0.00     0.007 A 
HETATM   16  C10 UNL     1      19.818   0.350  51.452  1.00  0.00    -0.060 A 
HETATM   17  C11 UNL     1      18.481  -0.176  51.833  1.00  0.00     0.048 C 
HETATM   18  C12 UNL     1      20.719   0.638  52.463  1.00  0.00     0.036 A 
ENDBRANCH  10  12
ENDBRANCH   4  10
BRANCH   9  19
HETATM   19  O2  UNL     1      26.930   1.898  53.975  1.00  0.00    -0.368 OA
HETATM   20  C16 UNL     1      28.210   2.313  53.704  1.00  0.00     0.204 C 
ENDBRANCH   9  19
BRANCH   1  21
HETATM   21  O1  UNL     1      27.578  -1.292  53.849  1.00  0.00    -0.356 OA
HETATM   22  C1  UNL     1      28.873  -1.080  53.339  1.00  0.00     0.209 C 
ENDBRANCH   1  21
TORSDOF 4
ENDMDL
MODEL 7
REMARK VINA RESULT:      -6.6      3.205      5.464
REMARK  4 active torsions:
REMARK  status: ('A' for Active; 'I' for Inactive)
REMARK    1  A    between atoms: O1_2  and  C2_3 
REMARK    2  A    between atoms: C5_6  and  N1_7 
REMARK    3  A    between atoms: N1_7  and  C6_8 
REMARK    4  A    between atoms: C15_19  and  O2_20 
ROOT
HETATM    1  C2  UNL     1      22.633   0.419  52.947  1.00  0.00     0.091 A 
HETATM    2  C3  UNL     1      23.728   1.164  53.023  1.00  0.00     0.051 A 
HETATM    3  C4  UNL     1      22.953   2.217  52.368  1.00  0.00     0.036 A 
HETATM    4  C5  UNL     1      22.909   3.474  51.870  1.00  0.00     0.139 C 
HETATM    5  N2  UNL     1      21.809   4.180  51.283  1.00  0.00    -0.224 NA
HETATM    6  C13 UNL     1      20.574   3.973  51.677  1.00  0.00     0.234 C 
HETATM    7  N3  UNL     1      20.066   3.081  52.687  1.00  0.00    -0.254 NA
HETATM    8  C14 UNL     1      20.582   1.921  52.952  1.00  0.00     0.141 C 
HETATM    9  C15 UNL     1      21.732   1.365  52.276  1.00  0.00     0.173 A 
ENDROOT
BRANCH   4  10
HETATM   10  N1  UNL     1      24.192   4.111  52.032  1.00  0.00    -0.340 N 
HETATM   11  H5  UNL     1      24.378   4.446  52.998  1.00  0.00     0.167 HD
BRANCH  10  12
HETATM   12  C6  UNL     1      25.096   4.251  50.942  1.00  0.00     0.034 A 
HETATM   13  C7  UNL     1      25.917   3.188  50.648  1.00  0.00     0.029 A 
HETATM   14  C8  UNL     1      26.790   3.361  49.572  1.00  0.00     0.003 A 
HETATM   15  C9  UNL     1      26.781   4.559  48.883  1.00  0.00     0.007 A 
HETATM   16  C10 UNL     1      25.940   5.606  49.208  1.00  0.00    -0.060 A 
HETATM   17  C11 UNL     1      25.929   6.895  48.468  1.00  0.00     0.048 C 
HETATM   18  C12 UNL     1      25.066   5.456  50.272  1.00  0.00     0.036 A 
ENDBRANCH  10  12
ENDBRANCH   4  10
BRANCH   9  19
HETATM   19  O2  UNL     1      21.540   1.089  50.901  1.00  0.00    -0.368 OA
HETATM   20  C16 UNL     1      20.328   0.477  50.706  1.00  0.00     0.204 C 
ENDBRANCH   9  19
BRANCH   1  21
HETATM   21  O1  UNL     1      22.367  -0.883  53.359  1.00  0.00    -0.356 OA
HETATM   22  C1  UNL     1      21.542  -1.196  54.456  1.00  0.00     0.209 C 
ENDBRANCH   1  21
TORSDOF 4
ENDMDL
MODEL 8
REMARK VINA RESULT:      -6.5      1.675      2.321
REMARK  4 active torsions:
REMARK  status: ('A' for Active; 'I' for Inactive)
REMARK    1  A    between atoms: O1_2  and  C2_3 
REMARK    2  A    between atoms: C5_6  and  N1_7 
REMARK    3  A    between atoms: N1_7  and  C6_8 
REMARK    4  A    between atoms: C15_19  and  O2_20 
ROOT
HETATM    1  C2  UNL     1      21.705   1.863  52.118  1.00  0.00     0.091 A 
HETATM    2  C3  UNL     1      22.574   1.693  53.107  1.00  0.00     0.051 A 
HETATM    3  C4  UNL     1      23.540   2.396  52.264  1.00  0.00     0.036 A 
HETATM    4  C5  UNL     1      24.796   2.874  52.104  1.00  0.00     0.139 C 
HETATM    5  N2  UNL     1      25.355   3.605  51.006  1.00  0.00    -0.224 NA
HETATM    6  C13 UNL     1      24.628   4.435  50.295  1.00  0.00     0.234 C 
HETATM    7  N3  UNL     1      23.236   4.781  50.420  1.00  0.00    -0.254 NA
HETATM    8  C14 UNL     1      22.317   3.951  50.802  1.00  0.00     0.141 C 
HETATM    9  C15 UNL     1      22.558   2.570  51.154  1.00  0.00     0.173 A 
ENDROOT
BRANCH   4  10
HETATM   10  N1  UNL     1      25.586   2.578  53.272  1.00  0.00    -0.340 N 
HETATM   11  H5  UNL     1      25.323   3.132  54.111  1.00  0.00     0.167 HD
BRANCH  10  12
HETATM   12  C6  UNL     1      26.626   1.607  53.240  1.00  0.00     0.034 A 
HETATM   13  C7  UNL     1      27.897   2.016  53.568  1.00  0.00     0.029 A 
HETATM   14  C8  UNL     1      28.890   1.036  53.525  1.00  0.00     0.003 A 
HETATM   15  C9  UNL     1      28.550  -0.254  53.166  1.00  0.00     0.007 A 
HETATM   16  C10 UNL     1      27.259  -0.628  52.843  1.00  0.00    -0.060 A 
HETATM   17  C11 UNL     1      26.891  -2.015  52.456  1.00  0.00     0.048 C 
HETATM   18  C12 UNL     1      26.258   0.328  52.878  1.00  0.00     0.036 A 
ENDBRANCH  10  12
ENDBRANCH   4  10
BRANCH   9  19
HETATM   19  O2  UNL     1      23.010   1.754  50.090  1.00  0.00    -0.368 OA
HETATM   20  C16 UNL     1      22.212   1.930  48.988  1.00  0.00     0.204 C 
ENDBRANCH   9  19
BRANCH   1  21
HETATM   21  O1  UNL     1      20.371   1.494  51.983  1.00  0.00    -0.356 OA
HETATM   22  C1  UNL     1      19.957   0.197  51.625  1.00  0.00     0.209 C 
ENDBRANCH   1  21
TORSDOF 4
ENDMDL
MODEL 9
REMARK VINA RESULT:      -6.5      3.054      6.480
REMARK  4 active torsions:
REMARK  status: ('A' for Active; 'I' for Inactive)
REMARK    1  A    between atoms: O1_2  and  C2_3 
REMARK    2  A    between atoms: C5_6  and  N1_7 
REMARK    3  A    between atoms: N1_7  and  C6_8 
REMARK    4  A    between atoms: C15_19  and  O2_20 
ROOT
HETATM    1  C2  UNL     1      26.108   1.718  53.723  1.00  0.00     0.091 A 
HETATM    2  C3  UNL     1      25.198   2.529  53.200  1.00  0.00     0.051 A 
HETATM    3  C4  UNL     1      24.359   1.343  53.037  1.00  0.00     0.036 A 
HETATM    4  C5  UNL     1      23.188   0.809  52.620  1.00  0.00     0.139 C 
HETATM    5  N2  UNL     1      22.733  -0.548  52.692  1.00  0.00    -0.224 NA
HETATM    6  C13 UNL     1      23.083  -1.336  53.681  1.00  0.00     0.234 C 
HETATM    7  N3  UNL     1      23.924  -1.069  54.819  1.00  0.00    -0.254 NA
HETATM    8  C14 UNL     1      24.952  -0.279  54.789  1.00  0.00     0.141 C 
HETATM    9  C15 UNL     1      25.395   0.439  53.616  1.00  0.00     0.173 A 
ENDROOT
BRANCH   4  10
HETATM   10  N1  UNL     1      22.345   1.841  52.072  1.00  0.00    -0.340 N 
HETATM   11  H5  UNL     1      21.787   2.353  52.783  1.00  0.00     0.167 HD
BRANCH  10  12
HETATM   12  C6  UNL     1      22.308   2.107  50.674  1.00  0.00     0.034 A 
HETATM   13  C7  UNL     1      21.741   1.160  49.854  1.00  0.00     0.029 A 
HETATM   14  C8  UNL     1      21.722   1.455  48.490  1.00  0.00     0.003 A 
HETATM   15  C9  UNL     1      22.260   2.650  48.051  1.00  0.00     0.007 A 
HETATM   16  C10 UNL     1      22.822   3.579  48.907  1.00  0.00    -0.060 A 
HETATM   17  C11 UNL     1      23.402   4.865  48.437  1.00  0.00     0.048 C 
HETATM   18  C12 UNL     1      22.852   3.307  50.264  1.00  0.00     0.036 A 
ENDBRANCH  10  12
ENDBRANCH   4  10
BRANCH   9  19
HETATM   19  O2  UNL     1      25.850  -0.377  52.553  1.00  0.00    -0.368 OA
HETATM   20  C16 UNL     1      26.762  -1.292  53.017  1.00  0.00     0.204 C 
ENDBRANCH   9  19
BRANCH   1  21
HETATM   21  O1  UNL     1      27.380   1.958  54.232  1.00  0.00    -0.356 OA
HETATM   22  C1  UNL     1      28.520   2.127  53.424  1.00  0.00     0.209 C 
ENDBRANCH   1  21
TORSDOF 4
ENDMDL
