MODEL 1
REMARK VINA RESULT:      -8.7      0.000      0.000
REMARK  7 active torsions:
REMARK  status: ('A' for Active; 'I' for Inactive)
REMARK    1  A    between atoms: C2_2  and  C3_3 
REMARK    2  A    between atoms: C4_4  and  C5_5 
REMARK    3  A    between atoms: C6_6  and  C7_7 
REMARK    4  A    between atoms: C9_9  and  C10_10 
REMARK       I    between atoms: N1_11  and  C11_12 
REMARK    5  A    between atoms: C11_12  and  C12_14 
REMARK    6  A    between atoms: C15_18  and  C16_19 
REMARK    7  A    between atoms: C22_25  and  O2_26 
ROOT
HETATM    1  C12 UNL     1      24.595   6.202  50.604  1.00  0.00     0.228 C 
HETATM    2  C13 UNL     1      23.161   6.271  50.942  1.00  0.00     0.068 C 
HETATM    3  N2  UNL     1      22.029   6.319  51.192  1.00  0.00    -0.197 NA
ENDROOT
BRANCH   1   4
HETATM    4  C11 UNL     1      24.854   4.957  49.835  1.00  0.00     0.255 C 
HETATM    5  N1  UNL     1      24.965   3.877  50.748  1.00  0.00    -0.225 NA
HETATM    6  C10 UNL     1      24.432   2.718  50.549  1.00  0.00     0.131 C 
HETATM    7  O1  UNL     1      24.840   5.533  48.705  1.00  0.00    -0.270 OA
BRANCH   6   8
HETATM    8  C9  UNL     1      24.632   1.705  51.575  1.00  0.00    -0.017 A 
HETATM    9  C8  UNL     1      23.551   1.213  52.271  1.00  0.00     0.027 A 
HETATM   10  C7  UNL     1      23.748   0.272  53.219  1.00  0.00    -0.001 A 
HETATM   11  C22 UNL     1      24.966  -0.259  53.568  1.00  0.00     0.087 A 
HETATM   12  C15 UNL     1      26.072   0.238  52.865  1.00  0.00     0.009 A 
HETATM   13  C14 UNL     1      25.883   1.210  51.881  1.00  0.00     0.028 A 
BRANCH  10  14
HETATM   14  C6  UNL     1      22.730  -0.344  54.032  1.00  0.00     0.014 C 
HETATM   15  C5  UNL     1      21.562  -0.587  53.525  1.00  0.00     0.001 C 
BRANCH  15  16
HETATM   16  C4  UNL     1      20.219  -1.073  53.585  1.00  0.00    -0.000 C 
HETATM   17  C3  UNL     1      19.164  -1.704  54.028  1.00  0.00    -0.004 C 
BRANCH  17  18
HETATM   18  C2  UNL     1      17.916  -1.602  53.212  1.00  0.00    -0.026 C 
HETATM   19  C1  UNL     1      17.643  -2.871  53.568  1.00  0.00     0.031 C 
ENDBRANCH  17  18
ENDBRANCH  15  16
ENDBRANCH  10  14
BRANCH  11  20
HETATM   20  O2  UNL     1      25.181  -1.235  54.549  1.00  0.00    -0.359 OA
HETATM   21  H18 UNL     1      26.096  -1.505  54.860  1.00  0.00     0.217 HD
ENDBRANCH  11  20
BRANCH  12  22
HETATM   22  C16 UNL     1      27.425  -0.220  53.125  1.00  0.00    -0.023 A 
HETATM   23  C17 UNL     1      28.257   0.777  53.619  1.00  0.00     0.012 A 
HETATM   24  C18 UNL     1      29.570   0.448  53.907  1.00  0.00     0.001 A 
HETATM   25  C19 UNL     1      29.975  -0.859  53.684  1.00  0.00     0.000 A 
HETATM   26  C20 UNL     1      29.144  -1.826  53.197  1.00  0.00     0.001 A 
HETATM   27  C21 UNL     1      27.812  -1.525  52.897  1.00  0.00     0.012 A 
ENDBRANCH  12  22
ENDBRANCH   6   8
ENDBRANCH   1   4
TORSDOF 7
ENDMDL
MODEL 2
REMARK VINA RESULT:      -8.6      1.190      2.035
REMARK  7 active torsions:
REMARK  status: ('A' for Active; 'I' for Inactive)
REMARK    1  A    between atoms: C2_2  and  C3_3 
REMARK    2  A    between atoms: C4_4  and  C5_5 
REMARK    3  A    between atoms: C6_6  and  C7_7 
REMARK    4  A    between atoms: C9_9  and  C10_10 
REMARK       I    between atoms: N1_11  and  C11_12 
REMARK    5  A    between atoms: C11_12  and  C12_14 
REMARK    6  A    between atoms: C15_18  and  C16_19 
REMARK    7  A    between atoms: C22_25  and  O2_26 
ROOT
HETATM    1  C12 UNL     1      25.962   5.675  49.564  1.00  0.00     0.228 C 
HETATM    2  C13 UNL     1      27.176   5.138  48.922  1.00  0.00     0.068 C 
HETATM    3  N2  UNL     1      28.127   4.698  48.422  1.00  0.00    -0.197 NA
ENDROOT
BRANCH   1   4
HETATM    4  C11 UNL     1      24.829   4.746  49.317  1.00  0.00     0.255 C 
HETATM    5  N1  UNL     1      24.894   3.692  50.264  1.00  0.00    -0.225 NA
HETATM    6  C10 UNL     1      23.861   3.221  50.878  1.00  0.00     0.131 C 
HETATM    7  O1  UNL     1      24.366   5.410  48.339  1.00  0.00    -0.270 OA
BRANCH   6   8
HETATM    8  C9  UNL     1      24.082   2.136  51.823  1.00  0.00    -0.017 A 
HETATM    9  C8  UNL     1      23.009   1.540  52.444  1.00  0.00     0.027 A 
HETATM   10  C7  UNL     1      23.226   0.533  53.318  1.00  0.00    -0.001 A 
HETATM   11  C22 UNL     1      24.458   0.031  53.659  1.00  0.00     0.087 A 
HETATM   12  C15 UNL     1      25.557   0.635  53.032  1.00  0.00     0.009 A 
HETATM   13  C14 UNL     1      25.347   1.675  52.126  1.00  0.00     0.028 A 
BRANCH  10  14
HETATM   14  C6  UNL     1      22.217  -0.194  54.046  1.00  0.00     0.014 C 
HETATM   15  C5  UNL     1      21.082  -0.459  53.482  1.00  0.00     0.001 C 
BRANCH  15  16
HETATM   16  C4  UNL     1      19.766  -1.018  53.458  1.00  0.00    -0.000 C 
HETATM   17  C3  UNL     1      18.463  -1.080  53.377  1.00  0.00    -0.004 C 
BRANCH  17  18
HETATM   18  C2  UNL     1      17.836  -2.433  53.490  1.00  0.00    -0.026 C 
HETATM   19  C1  UNL     1      16.799  -1.952  52.781  1.00  0.00     0.031 C 
ENDBRANCH  17  18
ENDBRANCH  15  16
ENDBRANCH  10  14
BRANCH  11  20
HETATM   20  O2  UNL     1      24.694  -1.012  54.563  1.00  0.00    -0.359 OA
HETATM   21  H18 UNL     1      24.894  -1.952  54.272  1.00  0.00     0.217 HD
ENDBRANCH  11  20
BRANCH  12  22
HETATM   22  C16 UNL     1      26.924   0.220  53.295  1.00  0.00    -0.023 A 
HETATM   23  C17 UNL     1      27.218  -1.045  52.802  1.00  0.00     0.012 A 
HETATM   24  C18 UNL     1      28.496  -1.539  52.993  1.00  0.00     0.001 A 
HETATM   25  C19 UNL     1      29.407  -0.739  53.666  1.00  0.00     0.000 A 
HETATM   26  C20 UNL     1      29.100   0.503  54.143  1.00  0.00     0.001 A 
HETATM   27  C21 UNL     1      27.818   1.029  53.966  1.00  0.00     0.012 A 
ENDBRANCH  12  22
ENDBRANCH   6   8
ENDBRANCH   1   4
TORSDOF 7
ENDMDL
MODEL 3
REMARK VINA RESULT:      -8.6      2.762      8.170
REMARK  7 active torsions:
REMARK  status: ('A' for Active; 'I' for Inactive)
REMARK    1  A    between atoms: C2_2  and  C3_3 
REMARK    2  A    between atoms: C4_4  and  C5_5 
REMARK    3  A    between atoms: C6_6  and  C7_7 
REMARK    4  A    between atoms: C9_9  and  C10_10 
REMARK       I    between atoms: N1_11  and  C11_12 
REMARK    5  A    between atoms: C11_12  and  C12_14 
REMARK    6  A    between atoms: C15_18  and  C16_19 
REMARK    7  A    between atoms: C22_25  and  O2_26 
ROOT
HETATM    1  C12 UNL     1      29.958  -0.201  53.731  1.00  0.00     0.228 C 
HETATM    2  C13 UNL     1      29.506   1.119  54.209  1.00  0.00     0.068 C 
HETATM    3  N2  UNL     1      29.136   2.157  54.574  1.00  0.00    -0.197 NA
ENDROOT
BRANCH   1   4
HETATM    4  C11 UNL     1      28.778  -1.087  53.559  1.00  0.00     0.255 C 
HETATM    5  N1  UNL     1      27.660  -0.287  53.211  1.00  0.00    -0.225 NA
HETATM    6  C10 UNL     1      26.804  -0.616  52.302  1.00  0.00     0.131 C 
HETATM    7  O1  UNL     1      29.413  -2.153  53.825  1.00  0.00    -0.270 OA
BRANCH   6   8
HETATM    8  C9  UNL     1      25.705   0.306  52.053  1.00  0.00    -0.017 A 
HETATM    9  C8  UNL     1      25.957   1.535  51.490  1.00  0.00     0.027 A 
HETATM   10  C7  UNL     1      24.929   2.382  51.262  1.00  0.00    -0.001 A 
HETATM   11  C22 UNL     1      23.611   2.123  51.551  1.00  0.00     0.087 A 
HETATM   12  C15 UNL     1      23.347   0.873  52.127  1.00  0.00     0.009 A 
HETATM   13  C14 UNL     1      24.399  -0.012  52.366  1.00  0.00     0.028 A 
BRANCH  10  14
HETATM   14  C6  UNL     1      25.022   3.697  50.681  1.00  0.00     0.014 C 
HETATM   15  C5  UNL     1      26.058   4.015  49.971  1.00  0.00     0.001 C 
BRANCH  15  16
HETATM   16  C4  UNL     1      26.835   4.913  49.175  1.00  0.00    -0.000 C 
HETATM   17  C3  UNL     1      27.763   5.335  48.358  1.00  0.00    -0.004 C 
BRANCH  17  18
HETATM   18  C2  UNL     1      27.778   6.795  48.038  1.00  0.00    -0.026 C 
HETATM   19  C1  UNL     1      29.070   6.650  47.689  1.00  0.00     0.031 C 
ENDBRANCH  17  18
ENDBRANCH  15  16
ENDBRANCH  10  14
BRANCH  11  20
HETATM   20  O2  UNL     1      22.538   2.993  51.318  1.00  0.00    -0.359 OA
HETATM   21  H18 UNL     1      21.640   2.880  51.751  1.00  0.00     0.217 HD
ENDBRANCH  11  20
BRANCH  12  22
HETATM   22  C16 UNL     1      22.004   0.457  52.494  1.00  0.00    -0.023 A 
HETATM   23  C17 UNL     1      21.918  -0.039  53.788  1.00  0.00     0.012 A 
HETATM   24  C18 UNL     1      20.681  -0.461  54.244  1.00  0.00     0.001 A 
HETATM   25  C19 UNL     1      19.602  -0.361  53.378  1.00  0.00     0.000 A 
HETATM   26  C20 UNL     1      19.706   0.129  52.109  1.00  0.00     0.001 A 
HETATM   27  C21 UNL     1      20.942   0.562  51.620  1.00  0.00     0.012 A 
ENDBRANCH  12  22
ENDBRANCH   6   8
ENDBRANCH   1   4
TORSDOF 7
ENDMDL
MODEL 4
REMARK VINA RESULT:      -8.6      2.684      6.293
REMARK  7 active torsions:
REMARK  status: ('A' for Active; 'I' for Inactive)
REMARK    1  A    between atoms: C2_2  and  C3_3 
REMARK    2  A    between atoms: C4_4  and  C5_5 
REMARK    3  A    between atoms: C6_6  and  C7_7 
REMARK    4  A    between atoms: C9_9  and  C10_10 
REMARK       I    between atoms: N1_11  and  C11_12 
REMARK    5  A    between atoms: C11_12  and  C12_14 
REMARK    6  A    between atoms: C15_18  and  C16_19 
REMARK    7  A    between atoms: C22_25  and  O2_26 
ROOT
HETATM    1  C12 UNL     1      29.087  -0.160  53.519  1.00  0.00     0.228 C 
HETATM    2  C13 UNL     1      29.055  -1.631  53.431  1.00  0.00     0.068 C 
HETATM    3  N2  UNL     1      29.021  -2.790  53.377  1.00  0.00    -0.197 NA
ENDROOT
BRANCH   1   4
HETATM    4  C11 UNL     1      27.834   0.317  54.160  1.00  0.00     0.255 C 
HETATM    5  N1  UNL     1      27.055   0.990  53.183  1.00  0.00    -0.225 NA
HETATM    6  C10 UNL     1      25.778   0.845  53.067  1.00  0.00     0.131 C 
HETATM    7  O1  UNL     1      28.123  -0.148  55.305  1.00  0.00    -0.270 OA
BRANCH   6   8
HETATM    8  C9  UNL     1      25.111   1.602  52.017  1.00  0.00    -0.017 A 
HETATM    9  C8  UNL     1      23.820   1.288  51.662  1.00  0.00     0.027 A 
HETATM   10  C7  UNL     1      23.210   1.998  50.687  1.00  0.00    -0.001 A 
HETATM   11  C22 UNL     1      23.777   3.039  49.993  1.00  0.00     0.087 A 
HETATM   12  C15 UNL     1      25.094   3.364  50.349  1.00  0.00     0.009 A 
HETATM   13  C14 UNL     1      25.735   2.639  51.355  1.00  0.00     0.028 A 
BRANCH  10  14
HETATM   14  C6  UNL     1      21.869   1.799  50.201  1.00  0.00     0.014 C 
HETATM   15  C5  UNL     1      21.028   1.104  50.899  1.00  0.00     0.001 C 
BRANCH  15  16
HETATM   16  C4  UNL     1      19.749   0.513  51.141  1.00  0.00    -0.000 C 
HETATM   17  C3  UNL     1      18.535   0.084  50.914  1.00  0.00    -0.004 C 
BRANCH  17  18
HETATM   18  C2  UNL     1      17.810  -0.548  52.058  1.00  0.00    -0.026 C 
HETATM   19  C1  UNL     1      16.697  -0.510  51.303  1.00  0.00     0.031 C 
ENDBRANCH  17  18
ENDBRANCH  15  16
ENDBRANCH  10  14
BRANCH  11  20
HETATM   20  O2  UNL     1      23.155   3.782  48.983  1.00  0.00    -0.359 OA
HETATM   21  H18 UNL     1      23.594   4.562  48.528  1.00  0.00     0.217 HD
ENDBRANCH  11  20
BRANCH  12  22
HETATM   22  C16 UNL     1      25.830   4.435  49.701  1.00  0.00    -0.023 A 
HETATM   23  C17 UNL     1      27.045   4.024  49.170  1.00  0.00     0.012 A 
HETATM   24  C18 UNL     1      27.828   4.966  48.525  1.00  0.00     0.001 A 
HETATM   25  C19 UNL     1      27.348   6.264  48.447  1.00  0.00     0.000 A 
HETATM   26  C20 UNL     1      26.150   6.650  48.975  1.00  0.00     0.001 A 
HETATM   27  C21 UNL     1      25.338   5.723  49.633  1.00  0.00     0.012 A 
ENDBRANCH  12  22
ENDBRANCH   6   8
ENDBRANCH   1   4
TORSDOF 7
ENDMDL
MODEL 5
REMARK VINA RESULT:      -8.5      3.105      8.620
REMARK  7 active torsions:
REMARK  status: ('A' for Active; 'I' for Inactive)
REMARK    1  A    between atoms: C2_2  and  C3_3 
REMARK    2  A    between atoms: C4_4  and  C5_5 
REMARK    3  A    between atoms: C6_6  and  C7_7 
REMARK    4  A    between atoms: C9_9  and  C10_10 
REMARK       I    between atoms: N1_11  and  C11_12 
REMARK    5  A    between atoms: C11_12  and  C12_14 
REMARK    6  A    between atoms: C15_18  and  C16_19 
REMARK    7  A    between atoms: C22_25  and  O2_26 
ROOT
HETATM    1  C12 UNL     1      29.512   0.036  53.480  1.00  0.00     0.228 C 
HETATM    2  C13 UNL     1      29.068  -1.369  53.453  1.00  0.00     0.068 C 
HETATM    3  N2  UNL     1      28.711  -2.474  53.448  1.00  0.00    -0.197 NA
ENDROOT
BRANCH   1   4
HETATM    4  C11 UNL     1      28.493   0.857  54.183  1.00  0.00     0.255 C 
HETATM    5  N1  UNL     1      27.536   1.300  53.234  1.00  0.00    -0.225 NA
HETATM    6  C10 UNL     1      26.264   1.306  53.454  1.00  0.00     0.131 C 
HETATM    7  O1  UNL     1      29.031   0.729  55.325  1.00  0.00    -0.270 OA
BRANCH   6   8
HETATM    8  C9  UNL     1      25.403   1.791  52.385  1.00  0.00    -0.017 A 
HETATM    9  C8  UNL     1      25.937   2.541  51.363  1.00  0.00     0.027 A 
HETATM   10  C7  UNL     1      25.129   2.984  50.375  1.00  0.00    -0.001 A 
HETATM   11  C22 UNL     1      23.778   2.750  50.292  1.00  0.00     0.087 A 
HETATM   12  C15 UNL     1      23.226   1.988  51.331  1.00  0.00     0.009 A 
HETATM   13  C14 UNL     1      24.050   1.523  52.357  1.00  0.00     0.028 A 
BRANCH  10  14
HETATM   14  C6  UNL     1      25.528   3.774  49.238  1.00  0.00     0.014 C 
HETATM   15  C5  UNL     1      26.704   4.319  49.214  1.00  0.00     0.001 C 
BRANCH  15  16
HETATM   16  C4  UNL     1      27.735   5.107  48.615  1.00  0.00    -0.000 C 
HETATM   17  C3  UNL     1      28.918   5.447  48.175  1.00  0.00    -0.004 C 
BRANCH  17  18
HETATM   18  C2  UNL     1      29.050   6.796  47.546  1.00  0.00    -0.026 C 
HETATM   19  C1  UNL     1      27.971   7.174  48.256  1.00  0.00     0.031 C 
ENDBRANCH  17  18
ENDBRANCH  15  16
ENDBRANCH  10  14
BRANCH  11  20
HETATM   20  O2  UNL     1      22.932   3.203  49.273  1.00  0.00    -0.359 OA
HETATM   21  H18 UNL     1      22.120   2.696  48.970  1.00  0.00     0.217 HD
ENDBRANCH  11  20
BRANCH  12  22
HETATM   22  C16 UNL     1      21.812   1.662  51.386  1.00  0.00    -0.023 A 
HETATM   23  C17 UNL     1      21.073   2.553  52.154  1.00  0.00     0.012 A 
HETATM   24  C18 UNL     1      19.711   2.339  52.271  1.00  0.00     0.001 A 
HETATM   25  C19 UNL     1      19.166   1.247  51.613  1.00  0.00     0.000 A 
HETATM   26  C20 UNL     1      19.908   0.382  50.863  1.00  0.00     0.001 A 
HETATM   27  C21 UNL     1      21.286   0.571  50.725  1.00  0.00     0.012 A 
ENDBRANCH  12  22
ENDBRANCH   6   8
ENDBRANCH   1   4
TORSDOF 7
ENDMDL
MODEL 6
REMARK VINA RESULT:      -8.3      2.568      5.769
REMARK  7 active torsions:
REMARK  status: ('A' for Active; 'I' for Inactive)
REMARK    1  A    between atoms: C2_2  and  C3_3 
REMARK    2  A    between atoms: C4_4  and  C5_5 
REMARK    3  A    between atoms: C6_6  and  C7_7 
REMARK    4  A    between atoms: C9_9  and  C10_10 
REMARK       I    between atoms: N1_11  and  C11_12 
REMARK    5  A    between atoms: C11_12  and  C12_14 
REMARK    6  A    between atoms: C15_18  and  C16_19 
REMARK    7  A    between atoms: C22_25  and  O2_26 
ROOT
HETATM    1  C12 UNL     1      29.659   0.063  53.655  1.00  0.00     0.228 C 
HETATM    2  C13 UNL     1      29.076   1.381  53.968  1.00  0.00     0.068 C 
HETATM    3  N2  UNL     1      28.604   2.414  54.205  1.00  0.00    -0.197 NA
ENDROOT
BRANCH   1   4
HETATM    4  C11 UNL     1      28.585  -0.964  53.689  1.00  0.00     0.255 C 
HETATM    5  N1  UNL     1      27.332  -0.313  53.553  1.00  0.00    -0.225 NA
HETATM    6  C10 UNL     1      26.376  -0.758  52.809  1.00  0.00     0.131 C 
HETATM    7  O1  UNL     1      29.385  -1.940  53.829  1.00  0.00    -0.270 OA
BRANCH   6   8
HETATM    8  C9  UNL     1      25.144   0.017  52.768  1.00  0.00    -0.017 A 
HETATM    9  C8  UNL     1      24.047  -0.404  53.483  1.00  0.00     0.027 A 
HETATM   10  C7  UNL     1      22.910   0.325  53.439  1.00  0.00    -0.001 A 
HETATM   11  C22 UNL     1      22.739   1.485  52.723  1.00  0.00     0.087 A 
HETATM   12  C15 UNL     1      23.853   1.919  51.991  1.00  0.00     0.009 A 
HETATM   13  C14 UNL     1      25.034   1.177  52.029  1.00  0.00     0.028 A 
BRANCH  10  14
HETATM   14  C6  UNL     1      21.680   0.025  54.126  1.00  0.00     0.014 C 
HETATM   15  C5  UNL     1      20.688  -0.494  53.474  1.00  0.00     0.001 C 
BRANCH  15  16
HETATM   16  C4  UNL     1      19.360  -1.013  53.367  1.00  0.00    -0.000 C 
HETATM   17  C3  UNL     1      18.361  -1.850  53.461  1.00  0.00    -0.004 C 
BRANCH  17  18
HETATM   18  C2  UNL     1      17.029  -1.380  52.973  1.00  0.00    -0.026 C 
HETATM   19  C1  UNL     1      17.680  -0.703  52.010  1.00  0.00     0.031 C 
ENDBRANCH  17  18
ENDBRANCH  15  16
ENDBRANCH  10  14
BRANCH  11  20
HETATM   20  O2  UNL     1      21.566   2.248  52.672  1.00  0.00    -0.359 OA
HETATM   21  H18 UNL     1      20.894   2.167  51.931  1.00  0.00     0.217 HD
ENDBRANCH  11  20
BRANCH  12  22
HETATM   22  C16 UNL     1      23.826   3.124  51.181  1.00  0.00    -0.023 A 
HETATM   23  C17 UNL     1      23.685   2.870  49.823  1.00  0.00     0.012 A 
HETATM   24  C18 UNL     1      23.643   3.949  48.958  1.00  0.00     0.001 A 
HETATM   25  C19 UNL     1      23.743   5.220  49.501  1.00  0.00     0.000 A 
HETATM   26  C20 UNL     1      23.880   5.452  50.839  1.00  0.00     0.001 A 
HETATM   27  C21 UNL     1      23.927   4.383  51.738  1.00  0.00     0.012 A 
ENDBRANCH  12  22
ENDBRANCH   6   8
ENDBRANCH   1   4
TORSDOF 7
ENDMDL
MODEL 7
REMARK VINA RESULT:      -8.2      1.901      6.718
REMARK  7 active torsions:
REMARK  status: ('A' for Active; 'I' for Inactive)
REMARK    1  A    between atoms: C2_2  and  C3_3 
REMARK    2  A    between atoms: C4_4  and  C5_5 
REMARK    3  A    between atoms: C6_6  and  C7_7 
REMARK    4  A    between atoms: C9_9  and  C10_10 
REMARK       I    between atoms: N1_11  and  C11_12 
REMARK    5  A    between atoms: C11_12  and  C12_14 
REMARK    6  A    between atoms: C15_18  and  C16_19 
REMARK    7  A    between atoms: C22_25  and  O2_26 
ROOT
HETATM    1  C12 UNL     1      24.048   6.355  49.615  1.00  0.00     0.228 C 
HETATM    2  C13 UNL     1      25.310   7.079  49.856  1.00  0.00     0.068 C 
HETATM    3  N2  UNL     1      26.295   7.659  50.056  1.00  0.00    -0.197 NA
ENDROOT
BRANCH   1   4
HETATM    4  C11 UNL     1      23.309   6.226  50.897  1.00  0.00     0.255 C 
HETATM    5  N1  UNL     1      23.156   4.847  51.194  1.00  0.00    -0.225 NA
HETATM    6  C10 UNL     1      23.319   4.350  52.374  1.00  0.00     0.131 C 
HETATM    7  O1  UNL     1      23.192   7.478  51.073  1.00  0.00    -0.270 OA
BRANCH   6   8
HETATM    8  C9  UNL     1      23.128   2.915  52.528  1.00  0.00    -0.017 A 
HETATM    9  C8  UNL     1      24.200   2.111  52.839  1.00  0.00     0.027 A 
HETATM   10  C7  UNL     1      24.011   0.781  52.981  1.00  0.00    -0.001 A 
HETATM   11  C22 UNL     1      22.808   0.133  52.838  1.00  0.00     0.087 A 
HETATM   12  C15 UNL     1      21.711   0.945  52.519  1.00  0.00     0.009 A 
HETATM   13  C14 UNL     1      21.892   2.321  52.371  1.00  0.00     0.028 A 
BRANCH  10  14
HETATM   14  C6  UNL     1      25.021  -0.193  53.305  1.00  0.00     0.014 C 
HETATM   15  C5  UNL     1      26.258   0.177  53.419  1.00  0.00     0.001 C 
BRANCH  15  16
HETATM   16  C4  UNL     1      27.645  -0.063  53.665  1.00  0.00    -0.000 C 
HETATM   17  C3  UNL     1      28.767  -0.199  54.322  1.00  0.00    -0.004 C 
BRANCH  17  18
HETATM   18  C2  UNL     1      29.986  -0.541  53.527  1.00  0.00    -0.026 C 
HETATM   19  C1  UNL     1      29.463  -1.769  53.356  1.00  0.00     0.031 C 
ENDBRANCH  17  18
ENDBRANCH  15  16
ENDBRANCH  10  14
BRANCH  11  20
HETATM   20  O2  UNL     1      22.600  -1.244  52.984  1.00  0.00    -0.359 OA
HETATM   21  H18 UNL     1      22.934  -1.767  53.773  1.00  0.00     0.217 HD
ENDBRANCH  11  20
BRANCH  12  22
HETATM   22  C16 UNL     1      20.376   0.405  52.330  1.00  0.00    -0.023 A 
HETATM   23  C17 UNL     1      19.843   0.686  51.078  1.00  0.00     0.012 A 
HETATM   24  C18 UNL     1      18.575   0.214  50.789  1.00  0.00     0.001 A 
HETATM   25  C19 UNL     1      17.913  -0.512  51.768  1.00  0.00     0.000 A 
HETATM   26  C20 UNL     1      18.453  -0.778  52.993  1.00  0.00     0.001 A 
HETATM   27  C21 UNL     1      19.732  -0.315  53.315  1.00  0.00     0.012 A 
ENDBRANCH  12  22
ENDBRANCH   6   8
ENDBRANCH   1   4
TORSDOF 7
ENDMDL
MODEL 8
REMARK VINA RESULT:      -8.1      2.658      6.016
REMARK  7 active torsions:
REMARK  status: ('A' for Active; 'I' for Inactive)
REMARK    1  A    between atoms: C2_2  and  C3_3 
REMARK    2  A    between atoms: C4_4  and  C5_5 
REMARK    3  A    between atoms: C6_6  and  C7_7 
REMARK    4  A    between atoms: C9_9  and  C10_10 
REMARK       I    between atoms: N1_11  and  C11_12 
REMARK    5  A    between atoms: C11_12  and  C12_14 
REMARK    6  A    between atoms: C15_18  and  C16_19 
REMARK    7  A    between atoms: C22_25  and  O2_26 
ROOT
HETATM    1  C12 UNL     1      19.035   0.357  51.756  1.00  0.00     0.228 C 
HETATM    2  C13 UNL     1      18.970   1.826  51.859  1.00  0.00     0.068 C 
HETATM    3  N2  UNL     1      18.921   2.982  51.958  1.00  0.00    -0.197 NA
ENDROOT
BRANCH   1   4
HETATM    4  C11 UNL     1      20.036  -0.156  52.726  1.00  0.00     0.255 C 
HETATM    5  N1  UNL     1      21.321   0.298  52.332  1.00  0.00    -0.225 NA
HETATM    6  C10 UNL     1      22.203   0.746  53.161  1.00  0.00     0.131 C 
HETATM    7  O1  UNL     1      19.181  -0.763  53.441  1.00  0.00    -0.270 OA
BRANCH   6   8
HETATM    8  C9  UNL     1      23.481   1.176  52.610  1.00  0.00    -0.017 A 
HETATM    9  C8  UNL     1      23.513   2.141  51.629  1.00  0.00     0.027 A 
HETATM   10  C7  UNL     1      24.705   2.533  51.127  1.00  0.00    -0.001 A 
HETATM   11  C22 UNL     1      25.928   2.042  51.514  1.00  0.00     0.087 A 
HETATM   12  C15 UNL     1      25.902   1.058  52.511  1.00  0.00     0.009 A 
HETATM   13  C14 UNL     1      24.679   0.644  53.040  1.00  0.00     0.028 A 
BRANCH  10  14
HETATM   14  C6  UNL     1      24.911   3.526  50.104  1.00  0.00     0.014 C 
HETATM   15  C5  UNL     1      23.891   4.079  49.528  1.00  0.00     0.001 C 
BRANCH  15  16
HETATM   16  C4  UNL     1      23.279   4.976  48.599  1.00  0.00    -0.000 C 
HETATM   17  C3  UNL     1      22.800   5.434  47.472  1.00  0.00    -0.004 C 
BRANCH  17  18
HETATM   18  C2  UNL     1      22.224   6.813  47.486  1.00  0.00    -0.026 C 
HETATM   19  C1  UNL     1      23.425   7.261  47.076  1.00  0.00     0.031 C 
ENDBRANCH  17  18
ENDBRANCH  15  16
ENDBRANCH  10  14
BRANCH  11  20
HETATM   20  O2  UNL     1      27.168   2.442  51.000  1.00  0.00    -0.359 OA
HETATM   21  H18 UNL     1      27.296   3.292  50.481  1.00  0.00     0.217 HD
ENDBRANCH  11  20
BRANCH  12  22
HETATM   22  C16 UNL     1      27.113   0.439  53.020  1.00  0.00    -0.023 A 
HETATM   23  C17 UNL     1      27.860   1.279  53.835  1.00  0.00     0.012 A 
HETATM   24  C18 UNL     1      29.034   0.789  54.379  1.00  0.00     0.001 A 
HETATM   25  C19 UNL     1      29.393  -0.516  54.076  1.00  0.00     0.000 A 
HETATM   26  C20 UNL     1      28.647  -1.328  53.272  1.00  0.00     0.001 A 
HETATM   27  C21 UNL     1      27.457  -0.861  52.708  1.00  0.00     0.012 A 
ENDBRANCH  12  22
ENDBRANCH   6   8
ENDBRANCH   1   4
TORSDOF 7
ENDMDL
MODEL 9
REMARK VINA RESULT:      -8.0      3.057      6.104
REMARK  7 active torsions:
REMARK  status: ('A' for Active; 'I' for Inactive)
REMARK    1  A    between atoms: C2_2  and  C3_3 
REMARK    2  A    between atoms: C4_4  and  C5_5 
REMARK    3  A    between atoms: C6_6  and  C7_7 
REMARK    4  A    between atoms: C9_9  and  C10_10 
REMARK       I    between atoms: N1_11  and  C11_12 
REMARK    5  A    between atoms: C11_12  and  C12_14 
REMARK    6  A    between atoms: C15_18  and  C16_19 
REMARK    7  A    between atoms: C22_25  and  O2_26 
ROOT
HETATM    1  C12 UNL     1      23.230  -1.260  55.541  1.00  0.00     0.228 C 
HETATM    2  C13 UNL     1      22.126  -1.314  54.565  1.00  0.00     0.068 C 
HETATM    3  N2  UNL     1      21.263  -1.342  53.789  1.00  0.00    -0.197 NA
ENDROOT
BRANCH   1   4
HETATM    4  C11 UNL     1      24.489  -0.909  54.833  1.00  0.00     0.255 C 
HETATM    5  N1  UNL     1      24.161  -0.149  53.680  1.00  0.00    -0.225 NA
HETATM    6  C10 UNL     1      24.818   0.898  53.308  1.00  0.00     0.131 C 
HETATM    7  O1  UNL     1      25.241  -1.499  55.667  1.00  0.00    -0.270 OA
BRANCH   6   8
HETATM    8  C9  UNL     1      24.366   1.576  52.101  1.00  0.00    -0.017 A 
HETATM    9  C8  UNL     1      23.125   1.292  51.580  1.00  0.00     0.027 A 
HETATM   10  C7  UNL     1      22.715   1.928  50.461  1.00  0.00    -0.001 A 
HETATM   11  C22 UNL     1      23.445   2.864  49.770  1.00  0.00     0.087 A 
HETATM   12  C15 UNL     1      24.712   3.159  50.294  1.00  0.00     0.009 A 
HETATM   13  C14 UNL     1      25.147   2.509  51.450  1.00  0.00     0.028 A 
BRANCH  10  14
HETATM   14  C6  UNL     1      21.452   1.747  49.793  1.00  0.00     0.014 C 
HETATM   15  C5  UNL     1      20.464   1.195  50.424  1.00  0.00     0.001 C 
BRANCH  15  16
HETATM   16  C4  UNL     1      19.121   0.714  50.525  1.00  0.00    -0.000 C 
HETATM   17  C3  UNL     1      17.994   0.149  50.182  1.00  0.00    -0.004 C 
BRANCH  17  18
HETATM   18  C2  UNL     1      16.909   0.111  51.210  1.00  0.00    -0.026 C 
HETATM   19  C1  UNL     1      17.760  -0.563  52.005  1.00  0.00     0.031 C 
ENDBRANCH  17  18
ENDBRANCH  15  16
ENDBRANCH  10  14
BRANCH  11  20
HETATM   20  O2  UNL     1      23.030   3.531  48.611  1.00  0.00    -0.359 OA
HETATM   21  H18 UNL     1      23.182   4.511  48.460  1.00  0.00     0.217 HD
ENDBRANCH  11  20
BRANCH  12  22
HETATM   22  C16 UNL     1      25.603   4.121  49.672  1.00  0.00    -0.023 A 
HETATM   23  C17 UNL     1      25.068   5.401  49.603  1.00  0.00     0.012 A 
HETATM   24  C18 UNL     1      25.837   6.400  49.031  1.00  0.00     0.001 A 
HETATM   25  C19 UNL     1      27.096   6.061  48.562  1.00  0.00     0.000 A 
HETATM   26  C20 UNL     1      27.606   4.797  48.637  1.00  0.00     0.001 A 
HETATM   27  C21 UNL     1      26.854   3.767  49.209  1.00  0.00     0.012 A 
ENDBRANCH  12  22
ENDBRANCH   6   8
ENDBRANCH   1   4
TORSDOF 7
ENDMDL
