MODEL 1
REMARK VINA RESULT:      -8.0      0.000      0.000
REMARK  6 active torsions:
REMARK  status: ('A' for Active; 'I' for Inactive)
REMARK    1  A    between atoms: O1_2  and  C2_3 
REMARK    2  A    between atoms: C5_6  and  O2_7 
REMARK    3  A    between atoms: O2_7  and  C6_8 
REMARK    4  A    between atoms: C10_14  and  O3_15 
REMARK    5  A    between atoms: C11_16  and  O4_17 
REMARK    6  A    between atoms: C17_23  and  O5_24 
ROOT
HETATM    1  C6  UNL     1      26.986   1.886  52.029  1.00  0.00     0.183 A 
HETATM    2  N1  UNL     1      28.128   2.500  52.426  1.00  0.00    -0.217 NA
HETATM    3  C7  UNL     1      28.679   2.324  53.640  1.00  0.00     0.236 A 
HETATM    4  N2  UNL     1      28.100   1.501  54.544  1.00  0.00    -0.241 NA
HETATM    5  C8  UNL     1      26.965   0.858  54.220  1.00  0.00     0.075 A 
HETATM    6  C9  UNL     1      26.349   0.003  55.140  1.00  0.00     0.072 A 
HETATM    7  C10 UNL     1      25.177  -0.644  54.768  1.00  0.00     0.101 A 
HETATM    8  C11 UNL     1      24.625  -0.449  53.513  1.00  0.00     0.102 A 
HETATM    9  C13 UNL     1      25.241   0.396  52.614  1.00  0.00     0.057 A 
HETATM   10  C14 UNL     1      26.401   1.045  52.962  1.00  0.00     0.049 A 
ENDROOT
BRANCH   1  11
HETATM   11  O2  UNL     1      26.396   2.043  50.797  1.00  0.00    -0.295 OA
BRANCH  11  12
HETATM   12  C5  UNL     1      25.951   3.221  50.247  1.00  0.00     0.059 C 
HETATM   13  C4  UNL     1      26.946   3.739  49.543  1.00  0.00     0.036 C 
HETATM   14  C3  UNL     1      26.885   5.008  48.788  1.00  0.00     0.042 C 
HETATM   15  C2  UNL     1      26.115   6.086  49.015  1.00  0.00     0.101 C 
HETATM   16  C17 UNL     1      25.132   6.230  50.109  1.00  0.00     0.098 C 
HETATM   17  C16 UNL     1      24.509   5.189  50.688  1.00  0.00     0.019 C 
HETATM   18  C15 UNL     1      24.573   3.730  50.469  1.00  0.00     0.095 C 
BRANCH  15  19
HETATM   19  O1  UNL     1      26.200   7.193  48.191  1.00  0.00    -0.353 OA
HETATM   20  C1  UNL     1      27.405   7.920  48.042  1.00  0.00     0.210 C 
ENDBRANCH  15  19
BRANCH  16  21
HETATM   21  O5  UNL     1      24.861   7.514  50.539  1.00  0.00    -0.353 OA
HETATM   22  C18 UNL     1      23.647   8.192  50.377  1.00  0.00     0.210 C 
ENDBRANCH  16  21
ENDBRANCH  11  12
ENDBRANCH   1  11
BRANCH   8  23
HETATM   23  O4  UNL     1      23.460  -1.184  53.341  1.00  0.00    -0.353 OA
HETATM   24  C12 UNL     1      22.237  -0.476  53.301  1.00  0.00     0.210 C 
ENDBRANCH   8  23
BRANCH   7  25
HETATM   25  O3  UNL     1      24.678  -1.453  55.764  1.00  0.00    -0.358 OA
HETATM   26  H8  UNL     1      25.099  -1.459  56.682  1.00  0.00     0.217 HD
ENDBRANCH   7  25
TORSDOF 6
ENDMDL
MODEL 2
REMARK VINA RESULT:      -7.5      1.304      2.294
REMARK  6 active torsions:
REMARK  status: ('A' for Active; 'I' for Inactive)
REMARK    1  A    between atoms: O1_2  and  C2_3 
REMARK    2  A    between atoms: C5_6  and  O2_7 
REMARK    3  A    between atoms: O2_7  and  C6_8 
REMARK    4  A    between atoms: C10_14  and  O3_15 
REMARK    5  A    between atoms: C11_16  and  O4_17 
REMARK    6  A    between atoms: C17_23  and  O5_24 
ROOT
HETATM    1  C6  UNL     1      26.709   1.943  52.210  1.00  0.00     0.183 A 
HETATM    2  N1  UNL     1      27.951   2.413  52.485  1.00  0.00    -0.217 NA
HETATM    3  C7  UNL     1      28.656   2.048  53.570  1.00  0.00     0.236 A 
HETATM    4  N2  UNL     1      28.140   1.171  54.461  1.00  0.00    -0.241 NA
HETATM    5  C8  UNL     1      26.913   0.664  54.253  1.00  0.00     0.075 A 
HETATM    6  C9  UNL     1      26.360  -0.244  55.163  1.00  0.00     0.072 A 
HETATM    7  C10 UNL     1      25.088  -0.747  54.914  1.00  0.00     0.101 A 
HETATM    8  C11 UNL     1      24.379  -0.359  53.790  1.00  0.00     0.102 A 
HETATM    9  C13 UNL     1      24.933   0.537  52.900  1.00  0.00     0.057 A 
HETATM   10  C14 UNL     1      26.189   1.045  53.128  1.00  0.00     0.049 A 
ENDROOT
BRANCH   1  11
HETATM   11  O2  UNL     1      25.961   2.295  51.111  1.00  0.00    -0.295 OA
BRANCH  11  12
HETATM   12  C5  UNL     1      25.568   3.564  50.759  1.00  0.00     0.059 C 
HETATM   13  C4  UNL     1      24.503   3.872  51.481  1.00  0.00     0.036 C 
HETATM   14  C3  UNL     1      23.765   5.151  51.411  1.00  0.00     0.042 C 
HETATM   15  C2  UNL     1      23.654   6.001  50.376  1.00  0.00     0.101 C 
HETATM   16  C17 UNL     1      24.270   5.826  49.044  1.00  0.00     0.098 C 
HETATM   17  C16 UNL     1      25.392   5.116  48.834  1.00  0.00     0.019 C 
HETATM   18  C15 UNL     1      26.288   4.361  49.733  1.00  0.00     0.095 C 
BRANCH  15  19
HETATM   19  O1  UNL     1      22.912   7.161  50.500  1.00  0.00    -0.353 OA
HETATM   20  C1  UNL     1      21.514   7.131  50.719  1.00  0.00     0.210 C 
ENDBRANCH  15  19
BRANCH  16  21
HETATM   21  O5  UNL     1      23.637   6.434  47.979  1.00  0.00    -0.353 OA
HETATM   22  C18 UNL     1      22.623   5.867  47.197  1.00  0.00     0.210 C 
ENDBRANCH  16  21
ENDBRANCH  11  12
ENDBRANCH   1  11
BRANCH   8  23
HETATM   23  O4  UNL     1      23.135  -0.973  53.727  1.00  0.00    -0.353 OA
HETATM   24  C12 UNL     1      21.994  -0.170  53.955  1.00  0.00     0.210 C 
ENDBRANCH   8  23
BRANCH   7  25
HETATM   25  O3  UNL     1      24.666  -1.628  55.884  1.00  0.00    -0.358 OA
HETATM   26  H8  UNL     1      25.327  -2.045  56.525  1.00  0.00     0.217 HD
ENDBRANCH   7  25
TORSDOF 6
ENDMDL
MODEL 3
REMARK VINA RESULT:      -7.5      2.462      3.950
REMARK  6 active torsions:
REMARK  status: ('A' for Active; 'I' for Inactive)
REMARK    1  A    between atoms: O1_2  and  C2_3 
REMARK    2  A    between atoms: C5_6  and  O2_7 
REMARK    3  A    between atoms: O2_7  and  C6_8 
REMARK    4  A    between atoms: C10_14  and  O3_15 
REMARK    5  A    between atoms: C11_16  and  O4_17 
REMARK    6  A    between atoms: C17_23  and  O5_24 
ROOT
HETATM    1  C6  UNL     1      22.718   1.037  51.848  1.00  0.00     0.183 A 
HETATM    2  N1  UNL     1      21.375   1.228  51.866  1.00  0.00    -0.217 NA
HETATM    3  C7  UNL     1      20.578   0.776  52.849  1.00  0.00     0.236 A 
HETATM    4  N2  UNL     1      21.095   0.091  53.894  1.00  0.00    -0.241 NA
HETATM    5  C8  UNL     1      22.419  -0.136  53.944  1.00  0.00     0.075 A 
HETATM    6  C9  UNL     1      22.976  -0.843  55.015  1.00  0.00     0.072 A 
HETATM    7  C10 UNL     1      24.349  -1.058  55.030  1.00  0.00     0.101 A 
HETATM    8  C11 UNL     1      25.154  -0.585  54.008  1.00  0.00     0.102 A 
HETATM    9  C13 UNL     1      24.595   0.111  52.956  1.00  0.00     0.057 A 
HETATM   10  C14 UNL     1      23.239   0.334  52.923  1.00  0.00     0.049 A 
ENDROOT
BRANCH   1  11
HETATM   11  O2  UNL     1      23.562   1.484  50.860  1.00  0.00    -0.295 OA
BRANCH  11  12
HETATM   12  C5  UNL     1      24.275   2.659  50.861  1.00  0.00     0.059 C 
HETATM   13  C4  UNL     1      23.417   3.652  51.032  1.00  0.00     0.036 C 
HETATM   14  C3  UNL     1      23.772   5.086  51.093  1.00  0.00     0.042 C 
HETATM   15  C2  UNL     1      24.819   5.717  50.534  1.00  0.00     0.101 C 
HETATM   16  C17 UNL     1      25.871   5.083  49.711  1.00  0.00     0.098 C 
HETATM   17  C16 UNL     1      26.223   3.791  49.824  1.00  0.00     0.019 C 
HETATM   18  C15 UNL     1      25.751   2.692  50.691  1.00  0.00     0.095 C 
BRANCH  15  19
HETATM   19  O1  UNL     1      24.986   7.079  50.702  1.00  0.00    -0.353 OA
HETATM   20  C1  UNL     1      23.897   7.979  50.624  1.00  0.00     0.210 C 
ENDBRANCH  15  19
BRANCH  16  21
HETATM   21  O5  UNL     1      26.507   5.886  48.785  1.00  0.00    -0.353 OA
HETATM   22  C18 UNL     1      27.847   5.782  48.396  1.00  0.00     0.210 C 
ENDBRANCH  16  21
ENDBRANCH  11  12
ENDBRANCH   1  11
BRANCH   8  23
HETATM   23  O4  UNL     1      26.490  -0.904  54.212  1.00  0.00    -0.353 OA
HETATM   24  C12 UNL     1      27.369   0.146  54.565  1.00  0.00     0.210 C 
ENDBRANCH   8  23
BRANCH   7  25
HETATM   25  O3  UNL     1      24.763  -1.764  56.138  1.00  0.00    -0.358 OA
HETATM   26  H8  UNL     1      25.227  -1.296  56.903  1.00  0.00     0.217 HD
ENDBRANCH   7  25
TORSDOF 6
ENDMDL
MODEL 4
REMARK VINA RESULT:      -7.3      1.828      3.081
REMARK  6 active torsions:
REMARK  status: ('A' for Active; 'I' for Inactive)
REMARK    1  A    between atoms: O1_2  and  C2_3 
REMARK    2  A    between atoms: C5_6  and  O2_7 
REMARK    3  A    between atoms: O2_7  and  C6_8 
REMARK    4  A    between atoms: C10_14  and  O3_15 
REMARK    5  A    between atoms: C11_16  and  O4_17 
REMARK    6  A    between atoms: C17_23  and  O5_24 
ROOT
HETATM    1  C6  UNL     1      24.786   1.085  51.951  1.00  0.00     0.183 A 
HETATM    2  N1  UNL     1      26.042   0.679  52.262  1.00  0.00    -0.217 NA
HETATM    3  C7  UNL     1      26.311  -0.212  53.232  1.00  0.00     0.236 A 
HETATM    4  N2  UNL     1      25.311  -0.757  53.962  1.00  0.00    -0.241 NA
HETATM    5  C8  UNL     1      24.040  -0.401  53.709  1.00  0.00     0.075 A 
HETATM    6  C9  UNL     1      22.990  -0.952  54.452  1.00  0.00     0.072 A 
HETATM    7  C10 UNL     1      21.689  -0.558  54.161  1.00  0.00     0.101 A 
HETATM    8  C11 UNL     1      21.432   0.360  53.158  1.00  0.00     0.102 A 
HETATM    9  C13 UNL     1      22.474   0.897  52.432  1.00  0.00     0.057 A 
HETATM   10  C14 UNL     1      23.768   0.521  52.704  1.00  0.00     0.049 A 
ENDROOT
BRANCH   1  11
HETATM   11  O2  UNL     1      24.475   1.993  50.967  1.00  0.00    -0.295 OA
BRANCH  11  12
HETATM   12  C5  UNL     1      25.052   3.226  50.776  1.00  0.00     0.059 C 
HETATM   13  C4  UNL     1      24.154   4.145  51.093  1.00  0.00     0.036 C 
HETATM   14  C3  UNL     1      24.370   5.606  51.028  1.00  0.00     0.042 C 
HETATM   15  C2  UNL     1      25.210   6.298  50.239  1.00  0.00     0.101 C 
HETATM   16  C17 UNL     1      26.125   5.717  49.233  1.00  0.00     0.098 C 
HETATM   17  C16 UNL     1      26.618   4.470  49.312  1.00  0.00     0.019 C 
HETATM   18  C15 UNL     1      26.449   3.381  50.295  1.00  0.00     0.095 C 
BRANCH  15  19
HETATM   19  O1  UNL     1      25.273   7.676  50.322  1.00  0.00    -0.353 OA
HETATM   20  C1  UNL     1      24.219   8.500  49.859  1.00  0.00     0.210 C 
ENDBRANCH  15  19
BRANCH  16  21
HETATM   21  O5  UNL     1      26.471   6.523  48.166  1.00  0.00    -0.353 OA
HETATM   22  C18 UNL     1      27.772   6.898  47.813  1.00  0.00     0.210 C 
ENDBRANCH  16  21
ENDBRANCH  11  12
ENDBRANCH   1  11
BRANCH   8  23
HETATM   23  O4  UNL     1      20.074   0.616  53.027  1.00  0.00    -0.353 OA
HETATM   24  C12 UNL     1      19.431   0.168  51.850  1.00  0.00     0.210 C 
ENDBRANCH   8  23
BRANCH   7  25
HETATM   25  O3  UNL     1      20.756  -1.176  54.964  1.00  0.00    -0.358 OA
HETATM   26  H8  UNL     1      20.084  -0.631  55.485  1.00  0.00     0.217 HD
ENDBRANCH   7  25
TORSDOF 6
ENDMDL
MODEL 5
REMARK VINA RESULT:      -7.2      3.479      6.039
REMARK  6 active torsions:
REMARK  status: ('A' for Active; 'I' for Inactive)
REMARK    1  A    between atoms: O1_2  and  C2_3 
REMARK    2  A    between atoms: C5_6  and  O2_7 
REMARK    3  A    between atoms: O2_7  and  C6_8 
REMARK    4  A    between atoms: C10_14  and  O3_15 
REMARK    5  A    between atoms: C11_16  and  O4_17 
REMARK    6  A    between atoms: C17_23  and  O5_24 
ROOT
HETATM    1  C6  UNL     1      24.456   2.600  52.148  1.00  0.00     0.183 A 
HETATM    2  N1  UNL     1      24.890   3.398  51.141  1.00  0.00    -0.217 NA
HETATM    3  C7  UNL     1      26.148   3.374  50.668  1.00  0.00     0.236 A 
HETATM    4  N2  UNL     1      27.063   2.527  51.192  1.00  0.00    -0.241 NA
HETATM    5  C8  UNL     1      26.704   1.705  52.194  1.00  0.00     0.075 A 
HETATM    6  C9  UNL     1      27.635   0.821  52.751  1.00  0.00     0.072 A 
HETATM    7  C10 UNL     1      27.226  -0.012  53.786  1.00  0.00     0.101 A 
HETATM    8  C11 UNL     1      25.926   0.028  54.259  1.00  0.00     0.102 A 
HETATM    9  C13 UNL     1      25.016   0.903  53.703  1.00  0.00     0.057 A 
HETATM   10  C14 UNL     1      25.400   1.736  52.679  1.00  0.00     0.049 A 
ENDROOT
BRANCH   1  11
HETATM   11  O2  UNL     1      23.179   2.599  52.656  1.00  0.00    -0.295 OA
BRANCH  11  12
HETATM   12  C5  UNL     1      22.029   2.267  51.981  1.00  0.00     0.059 C 
HETATM   13  C4  UNL     1      21.120   3.191  52.252  1.00  0.00     0.036 C 
HETATM   14  C3  UNL     1      19.739   3.209  51.725  1.00  0.00     0.042 C 
HETATM   15  C2  UNL     1      18.975   2.176  51.332  1.00  0.00     0.101 C 
HETATM   16  C17 UNL     1      19.374   0.752  51.348  1.00  0.00     0.098 C 
HETATM   17  C16 UNL     1      20.649   0.338  51.256  1.00  0.00     0.019 C 
HETATM   18  C15 UNL     1      21.933   1.057  51.125  1.00  0.00     0.095 C 
BRANCH  15  19
HETATM   19  O1  UNL     1      17.693   2.391  50.863  1.00  0.00    -0.353 OA
HETATM   20  C1  UNL     1      16.704   3.019  51.658  1.00  0.00     0.210 C 
ENDBRANCH  15  19
BRANCH  16  21
HETATM   21  O5  UNL     1      18.360  -0.178  51.465  1.00  0.00    -0.353 OA
HETATM   22  C18 UNL     1      18.055  -0.915  52.615  1.00  0.00     0.210 C 
ENDBRANCH  16  21
ENDBRANCH  11  12
ENDBRANCH   1  11
BRANCH   8  23
HETATM   23  O4  UNL     1      25.723  -0.880  55.289  1.00  0.00    -0.353 OA
HETATM   24  C12 UNL     1      24.391  -1.251  55.585  1.00  0.00     0.210 C 
ENDBRANCH   8  23
BRANCH   7  25
HETATM   25  O3  UNL     1      28.237  -0.829  54.239  1.00  0.00    -0.358 OA
HETATM   26  H8  UNL     1      28.146  -1.325  55.114  1.00  0.00     0.217 HD
ENDBRANCH   7  25
TORSDOF 6
ENDMDL
MODEL 6
REMARK VINA RESULT:      -7.2      3.513      6.276
REMARK  6 active torsions:
REMARK  status: ('A' for Active; 'I' for Inactive)
REMARK    1  A    between atoms: O1_2  and  C2_3 
REMARK    2  A    between atoms: C5_6  and  O2_7 
REMARK    3  A    between atoms: O2_7  and  C6_8 
REMARK    4  A    between atoms: C10_14  and  O3_15 
REMARK    5  A    between atoms: C11_16  and  O4_17 
REMARK    6  A    between atoms: C17_23  and  O5_24 
ROOT
HETATM    1  C6  UNL     1      23.969   0.109  53.035  1.00  0.00     0.183 A 
HETATM    2  N1  UNL     1      23.746  -0.736  54.072  1.00  0.00    -0.217 NA
HETATM    3  C7  UNL     1      24.660  -0.996  55.023  1.00  0.00     0.236 A 
HETATM    4  N2  UNL     1      25.877  -0.408  54.987  1.00  0.00    -0.241 NA
HETATM    5  C8  UNL     1      26.169   0.443  53.987  1.00  0.00     0.075 A 
HETATM    6  C9  UNL     1      27.423   1.061  53.929  1.00  0.00     0.072 A 
HETATM    7  C10 UNL     1      27.687   1.934  52.880  1.00  0.00     0.101 A 
HETATM    8  C11 UNL     1      26.733   2.188  51.910  1.00  0.00     0.102 A 
HETATM    9  C13 UNL     1      25.501   1.573  51.976  1.00  0.00     0.057 A 
HETATM   10  C14 UNL     1      25.219   0.707  53.006  1.00  0.00     0.049 A 
ENDROOT
BRANCH   1  11
HETATM   11  O2  UNL     1      23.060   0.397  52.046  1.00  0.00    -0.295 OA
BRANCH  11  12
HETATM   12  C5  UNL     1      21.805   0.932  52.217  1.00  0.00     0.059 C 
HETATM   13  C4  UNL     1      20.941   0.142  51.599  1.00  0.00     0.036 C 
HETATM   14  C3  UNL     1      19.480   0.357  51.539  1.00  0.00     0.042 C 
HETATM   15  C2  UNL     1      18.797   1.512  51.610  1.00  0.00     0.101 C 
HETATM   16  C17 UNL     1      19.389   2.857  51.770  1.00  0.00     0.098 C 
HETATM   17  C16 UNL     1      20.575   3.080  52.362  1.00  0.00     0.019 C 
HETATM   18  C15 UNL     1      21.574   2.185  52.980  1.00  0.00     0.095 C 
BRANCH  15  19
HETATM   19  O1  UNL     1      17.417   1.515  51.534  1.00  0.00    -0.353 OA
HETATM   20  C1  UNL     1      16.684   0.339  51.244  1.00  0.00     0.210 C 
ENDBRANCH  15  19
BRANCH  16  21
HETATM   21  O5  UNL     1      18.662   3.921  51.274  1.00  0.00    -0.353 OA
HETATM   22  C18 UNL     1      18.825   4.506  50.013  1.00  0.00     0.210 C 
ENDBRANCH  16  21
ENDBRANCH  11  12
ENDBRANCH   1  11
BRANCH   8  23
HETATM   23  O4  UNL     1      27.194   3.085  50.955  1.00  0.00    -0.353 OA
HETATM   24  C12 UNL     1      26.246   3.644  50.067  1.00  0.00     0.210 C 
ENDBRANCH   8  23
BRANCH   7  25
HETATM   25  O3  UNL     1      28.953   2.472  52.944  1.00  0.00    -0.358 OA
HETATM   26  H8  UNL     1      29.260   2.973  53.766  1.00  0.00     0.217 HD
ENDBRANCH   7  25
TORSDOF 6
ENDMDL
MODEL 7
REMARK VINA RESULT:      -7.1      2.166      2.735
REMARK  6 active torsions:
REMARK  status: ('A' for Active; 'I' for Inactive)
REMARK    1  A    between atoms: O1_2  and  C2_3 
REMARK    2  A    between atoms: C5_6  and  O2_7 
REMARK    3  A    between atoms: O2_7  and  C6_8 
REMARK    4  A    between atoms: C10_14  and  O3_15 
REMARK    5  A    between atoms: C11_16  and  O4_17 
REMARK    6  A    between atoms: C17_23  and  O5_24 
ROOT
HETATM    1  C6  UNL     1      24.910   1.155  51.959  1.00  0.00     0.183 A 
HETATM    2  N1  UNL     1      26.252   1.335  51.872  1.00  0.00    -0.217 NA
HETATM    3  C7  UNL     1      27.128   0.795  52.736  1.00  0.00     0.236 A 
HETATM    4  N2  UNL     1      26.696   0.025  53.761  1.00  0.00    -0.241 NA
HETATM    5  C8  UNL     1      25.379  -0.198  53.910  1.00  0.00     0.075 A 
HETATM    6  C9  UNL     1      24.911  -0.991  54.963  1.00  0.00     0.072 A 
HETATM    7  C10 UNL     1      23.541  -1.198  55.084  1.00  0.00     0.101 A 
HETATM    8  C11 UNL     1      22.655  -0.633  54.183  1.00  0.00     0.102 A 
HETATM    9  C13 UNL     1      23.128   0.147  53.149  1.00  0.00     0.057 A 
HETATM   10  C14 UNL     1      24.478   0.364  53.012  1.00  0.00     0.049 A 
ENDROOT
BRANCH   1  11
HETATM   11  O2  UNL     1      23.987   1.692  51.093  1.00  0.00    -0.295 OA
BRANCH  11  12
HETATM   12  C5  UNL     1      23.931   2.995  50.660  1.00  0.00     0.059 C 
HETATM   13  C4  UNL     1      23.700   3.761  51.714  1.00  0.00     0.036 C 
HETATM   14  C3  UNL     1      23.567   5.233  51.686  1.00  0.00     0.042 C 
HETATM   15  C2  UNL     1      23.162   6.021  50.676  1.00  0.00     0.101 C 
HETATM   16  C17 UNL     1      22.749   5.560  49.333  1.00  0.00     0.098 C 
HETATM   17  C16 UNL     1      23.188   4.421  48.773  1.00  0.00     0.019 C 
HETATM   18  C15 UNL     1      24.112   3.364  49.233  1.00  0.00     0.095 C 
BRANCH  15  19
HETATM   19  O1  UNL     1      23.101   7.392  50.839  1.00  0.00    -0.353 OA
HETATM   20  C1  UNL     1      24.195   8.231  50.518  1.00  0.00     0.210 C 
ENDBRANCH  15  19
BRANCH  16  21
HETATM   21  O5  UNL     1      21.863   6.364  48.643  1.00  0.00    -0.353 OA
HETATM   22  C18 UNL     1      22.112   6.989  47.415  1.00  0.00     0.210 C 
ENDBRANCH  16  21
ENDBRANCH  11  12
ENDBRANCH   1  11
BRANCH   8  23
HETATM   23  O4  UNL     1      21.339  -0.961  54.479  1.00  0.00    -0.353 OA
HETATM   24  C12 UNL     1      20.323  -0.112  53.981  1.00  0.00     0.210 C 
ENDBRANCH   8  23
BRANCH   7  25
HETATM   25  O3  UNL     1      23.218  -1.995  56.159  1.00  0.00    -0.358 OA
HETATM   26  H8  UNL     1      22.833  -2.918  56.020  1.00  0.00     0.217 HD
ENDBRANCH   7  25
TORSDOF 6
ENDMDL
MODEL 8
REMARK VINA RESULT:      -7.0      4.258      7.822
REMARK  6 active torsions:
REMARK  status: ('A' for Active; 'I' for Inactive)
REMARK    1  A    between atoms: O1_2  and  C2_3 
REMARK    2  A    between atoms: C5_6  and  O2_7 
REMARK    3  A    between atoms: O2_7  and  C6_8 
REMARK    4  A    between atoms: C10_14  and  O3_15 
REMARK    5  A    between atoms: C11_16  and  O4_17 
REMARK    6  A    between atoms: C17_23  and  O5_24 
ROOT
HETATM    1  C6  UNL     1      29.048   7.235  48.371  1.00  0.00     0.183 A 
HETATM    2  N1  UNL     1      28.849   8.518  48.763  1.00  0.00    -0.217 NA
HETATM    3  C7  UNL     1      29.827   9.302  49.250  1.00  0.00     0.236 A 
HETATM    4  N2  UNL     1      31.088   8.831  49.374  1.00  0.00    -0.241 NA
HETATM    5  C8  UNL     1      31.360   7.566  49.005  1.00  0.00     0.075 A 
HETATM    6  C9  UNL     1      32.658   7.058  49.125  1.00  0.00     0.072 A 
HETATM    7  C10 UNL     1      32.899   5.746  48.733  1.00  0.00     0.101 A 
HETATM    8  C11 UNL     1      31.878   4.955  48.234  1.00  0.00     0.102 A 
HETATM    9  C13 UNL     1      30.603   5.466  48.120  1.00  0.00     0.057 A 
HETATM   10  C14 UNL     1      30.344   6.761  48.502  1.00  0.00     0.049 A 
ENDROOT
BRANCH   1  11
HETATM   11  O2  UNL     1      28.073   6.406  47.870  1.00  0.00    -0.295 OA
BRANCH  11  12
HETATM   12  C5  UNL     1      27.008   5.881  48.563  1.00  0.00     0.059 C 
HETATM   13  C4  UNL     1      27.294   4.620  48.846  1.00  0.00     0.036 C 
HETATM   14  C3  UNL     1      26.412   3.691  49.585  1.00  0.00     0.042 C 
HETATM   15  C2  UNL     1      25.071   3.700  49.678  1.00  0.00     0.101 C 
HETATM   16  C17 UNL     1      24.167   4.678  49.037  1.00  0.00     0.098 C 
HETATM   17  C16 UNL     1      24.534   5.932  48.722  1.00  0.00     0.019 C 
HETATM   18  C15 UNL     1      25.798   6.680  48.882  1.00  0.00     0.095 C 
BRANCH  15  19
HETATM   19  O1  UNL     1      24.415   2.738  50.423  1.00  0.00    -0.353 OA
HETATM   20  C1  UNL     1      24.224   2.877  51.818  1.00  0.00     0.210 C 
ENDBRANCH  15  19
BRANCH  16  21
HETATM   21  O5  UNL     1      22.884   4.251  48.757  1.00  0.00    -0.353 OA
HETATM   22  C18 UNL     1      22.305   4.180  47.484  1.00  0.00     0.210 C 
ENDBRANCH  16  21
ENDBRANCH  11  12
ENDBRANCH   1  11
BRANCH   8  23
HETATM   23  O4  UNL     1      32.327   3.683  47.902  1.00  0.00    -0.353 OA
HETATM   24  C12 UNL     1      32.068   3.217  46.593  1.00  0.00     0.210 C 
ENDBRANCH   8  23
BRANCH   7  25
HETATM   25  O3  UNL     1      34.214   5.375  48.903  1.00  0.00    -0.358 OA
HETATM   26  H8  UNL     1      34.451   4.527  49.398  1.00  0.00     0.217 HD
ENDBRANCH   7  25
TORSDOF 6
ENDMDL
MODEL 9
REMARK VINA RESULT:      -6.9      2.146      7.250
REMARK  6 active torsions:
REMARK  status: ('A' for Active; 'I' for Inactive)
REMARK    1  A    between atoms: O1_2  and  C2_3 
REMARK    2  A    between atoms: C5_6  and  O2_7 
REMARK    3  A    between atoms: O2_7  and  C6_8 
REMARK    4  A    between atoms: C10_14  and  O3_15 
REMARK    5  A    between atoms: C11_16  and  O4_17 
REMARK    6  A    between atoms: C17_23  and  O5_24 
ROOT
HETATM    1  C6  UNL     1      25.807   3.718  49.943  1.00  0.00     0.183 A 
HETATM    2  N1  UNL     1      27.016   3.748  49.328  1.00  0.00    -0.217 NA
HETATM    3  C7  UNL     1      27.523   4.849  48.748  1.00  0.00     0.236 A 
HETATM    4  N2  UNL     1      26.829   6.010  48.752  1.00  0.00    -0.241 NA
HETATM    5  C8  UNL     1      25.622   6.055  49.343  1.00  0.00     0.075 A 
HETATM    6  C9  UNL     1      24.886   7.245  49.359  1.00  0.00     0.072 A 
HETATM    7  C10 UNL     1      23.643   7.252  49.979  1.00  0.00     0.101 A 
HETATM    8  C11 UNL     1      23.138   6.107  50.571  1.00  0.00     0.102 A 
HETATM    9  C13 UNL     1      23.871   4.939  50.550  1.00  0.00     0.057 A 
HETATM   10  C14 UNL     1      25.103   4.912  49.942  1.00  0.00     0.049 A 
ENDROOT
BRANCH   1  11
HETATM   11  O2  UNL     1      25.258   2.611  50.545  1.00  0.00    -0.295 OA
BRANCH  11  12
HETATM   12  C5  UNL     1      25.646   2.050  51.738  1.00  0.00     0.059 C 
HETATM   13  C4  UNL     1      26.817   1.461  51.546  1.00  0.00     0.036 C 
HETATM   14  C3  UNL     1      27.587   0.737  52.579  1.00  0.00     0.042 C 
HETATM   15  C2  UNL     1      27.134   0.105  53.676  1.00  0.00     0.101 C 
HETATM   16  C17 UNL     1      25.719  -0.000  54.090  1.00  0.00     0.098 C 
HETATM   17  C16 UNL     1      24.780   0.901  53.757  1.00  0.00     0.019 C 
HETATM   18  C15 UNL     1      24.818   2.149  52.967  1.00  0.00     0.095 C 
BRANCH  15  19
HETATM   19  O1  UNL     1      28.016  -0.524  54.535  1.00  0.00    -0.353 OA
HETATM   20  C1  UNL     1      29.381  -0.699  54.205  1.00  0.00     0.210 C 
ENDBRANCH  15  19
BRANCH  16  21
HETATM   21  O5  UNL     1      25.374  -1.095  54.859  1.00  0.00    -0.353 OA
HETATM   22  C18 UNL     1      24.159  -1.272  55.531  1.00  0.00     0.210 C 
ENDBRANCH  16  21
ENDBRANCH  11  12
ENDBRANCH   1  11
BRANCH   8  23
HETATM   23  O4  UNL     1      21.887   6.325  51.134  1.00  0.00    -0.353 OA
HETATM   24  C12 UNL     1      20.812   5.532  50.671  1.00  0.00     0.210 C 
ENDBRANCH   8  23
BRANCH   7  25
HETATM   25  O3  UNL     1      23.028   8.483  49.923  1.00  0.00    -0.358 OA
HETATM   26  H8  UNL     1      23.315   9.171  49.241  1.00  0.00     0.217 HD
ENDBRANCH   7  25
TORSDOF 6
ENDMDL
