MODEL 1
REMARK VINA RESULT:      -6.9      0.000      0.000
REMARK  8 active torsions:
REMARK  status: ('A' for Active; 'I' for Inactive)
REMARK    1  A    between atoms: O1_2  and  C2_3 
REMARK    2  A    between atoms: C3_4  and  C4_5 
REMARK    3  A    between atoms: C5_6  and  C6_7 
REMARK    4  A    between atoms: C6_7  and  C7_8 
REMARK    5  A    between atoms: C7_8  and  P1_9 
REMARK    6  A    between atoms: P1_9  and  O2_10 
REMARK    7  A    between atoms: C10_15  and  N3_16 
REMARK    8  A    between atoms: N3_16  and  C11_17 
ROOT
HETATM    1  C4  UNL     1      23.013   0.612  52.791  1.00  0.00     0.041 A 
HETATM    2  C5  UNL     1      21.816   0.554  53.432  1.00  0.00     0.079 A 
HETATM    3  N1  UNL     1      21.719  -0.255  54.500  1.00  0.00    -0.241 NA
HETATM    4  C9  UNL     1      22.789  -0.967  54.897  1.00  0.00     0.236 A 
HETATM    5  N2  UNL     1      23.951  -0.883  54.240  1.00  0.00    -0.224 NA
HETATM    6  C10 UNL     1      24.110  -0.100  53.175  1.00  0.00     0.142 A 
ENDROOT
BRANCH   6   7
HETATM    7  N3  UNL     1      25.314   0.027  52.443  1.00  0.00    -0.340 N 
HETATM    8  H11 UNL     1      25.312  -0.197  51.422  1.00  0.00     0.167 HD
BRANCH   7   9
HETATM    9  C11 UNL     1      26.595   0.431  52.890  1.00  0.00     0.034 A 
HETATM   10  C12 UNL     1      26.918   1.767  53.161  1.00  0.00     0.029 A 
HETATM   11  C13 UNL     1      28.145   2.172  53.592  1.00  0.00     0.003 A 
HETATM   12  C14 UNL     1      29.155   1.269  53.789  1.00  0.00     0.007 A 
HETATM   13  C15 UNL     1      28.900  -0.072  53.538  1.00  0.00    -0.060 A 
HETATM   14  C16 UNL     1      30.016  -1.018  53.761  1.00  0.00     0.048 C 
HETATM   15  C17 UNL     1      27.657  -0.418  53.109  1.00  0.00     0.036 A 
ENDBRANCH   7   9
ENDBRANCH   6   7
BRANCH   1  16
HETATM   16  C3  UNL     1      23.122   1.478  51.643  1.00  0.00     0.041 C 
HETATM   17  C2  UNL     1      23.420   2.753  51.641  1.00  0.00     0.135 C 
BRANCH  17  18
HETATM   18  O1  UNL     1      23.621   3.876  50.886  1.00  0.00    -0.368 OA
HETATM   19  C1  UNL     1      23.690   5.137  51.570  1.00  0.00     0.208 C 
ENDBRANCH  17  18
ENDBRANCH   1  16
BRANCH   2  20
HETATM   20  C6  UNL     1      20.597   1.267  53.104  1.00  0.00     0.091 C 
BRANCH  20  21
HETATM   21  C7  UNL     1      19.675   0.377  52.765  1.00  0.00    -0.086 C 
BRANCH  21  22
HETATM   22  P1  UNL     1      18.288  -0.417  52.298  1.00  0.00     0.163 P 
BRANCH  22  23
HETATM   23  O2  UNL     1      17.367  -1.153  53.601  1.00  0.00    -0.350 OA
HETATM   24  C8  UNL     1      17.835  -2.487  53.637  1.00  0.00     0.209 C 
ENDBRANCH  22  23
ENDBRANCH  21  22
ENDBRANCH  20  21
ENDBRANCH   2  20
TORSDOF 8
ENDMDL
MODEL 2
REMARK VINA RESULT:      -6.9      3.491      4.509
REMARK  8 active torsions:
REMARK  status: ('A' for Active; 'I' for Inactive)
REMARK    1  A    between atoms: O1_2  and  C2_3 
REMARK    2  A    between atoms: C3_4  and  C4_5 
REMARK    3  A    between atoms: C5_6  and  C6_7 
REMARK    4  A    between atoms: C6_7  and  C7_8 
REMARK    5  A    between atoms: C7_8  and  P1_9 
REMARK    6  A    between atoms: P1_9  and  O2_10 
REMARK    7  A    between atoms: C10_15  and  N3_16 
REMARK    8  A    between atoms: N3_16  and  C11_17 
ROOT
HETATM    1  C4  UNL     1      25.128   3.392  50.633  1.00  0.00     0.041 A 
HETATM    2  C5  UNL     1      23.928   3.896  50.237  1.00  0.00     0.079 A 
HETATM    3  N1  UNL     1      22.954   3.981  51.158  1.00  0.00    -0.241 NA
HETATM    4  C9  UNL     1      23.190   3.576  52.419  1.00  0.00     0.236 A 
HETATM    5  N2  UNL     1      24.384   3.086  52.770  1.00  0.00    -0.224 NA
HETATM    6  C10 UNL     1      25.389   2.976  51.904  1.00  0.00     0.142 A 
ENDROOT
BRANCH   6   7
HETATM    7  N3  UNL     1      26.671   2.465  52.220  1.00  0.00    -0.340 N 
HETATM    8  H11 UNL     1      27.478   3.126  52.281  1.00  0.00     0.167 HD
BRANCH   7   9
HETATM    9  C11 UNL     1      27.062   1.130  52.482  1.00  0.00     0.034 A 
HETATM   10  C12 UNL     1      26.230   0.032  52.228  1.00  0.00     0.029 A 
HETATM   11  C13 UNL     1      26.592  -1.259  52.475  1.00  0.00     0.003 A 
HETATM   12  C14 UNL     1      27.822  -1.557  52.998  1.00  0.00     0.007 A 
HETATM   13  C15 UNL     1      28.693  -0.513  53.273  1.00  0.00    -0.060 A 
HETATM   14  C16 UNL     1      30.012  -0.874  53.838  1.00  0.00     0.048 C 
HETATM   15  C17 UNL     1      28.279   0.754  53.007  1.00  0.00     0.036 A 
ENDBRANCH   7   9
ENDBRANCH   6   7
BRANCH   1  16
HETATM   16  C3  UNL     1      26.178   3.298  49.648  1.00  0.00     0.041 C 
HETATM   17  C2  UNL     1      27.024   4.235  49.303  1.00  0.00     0.135 C 
BRANCH  17  18
HETATM   18  O1  UNL     1      28.081   4.581  48.507  1.00  0.00    -0.368 OA
HETATM   19  C1  UNL     1      28.315   5.979  48.277  1.00  0.00     0.208 C 
ENDBRANCH  17  18
ENDBRANCH   1  16
BRANCH   2  20
HETATM   20  C6  UNL     1      23.553   4.363  48.917  1.00  0.00     0.091 C 
BRANCH  20  21
HETATM   21  C7  UNL     1      22.716   3.480  48.389  1.00  0.00    -0.086 C 
BRANCH  21  22
HETATM   22  P1  UNL     1      21.395   2.572  47.940  1.00  0.00     0.163 P 
BRANCH  22  23
HETATM   23  O2  UNL     1      21.483   0.864  48.347  1.00  0.00    -0.350 OA
HETATM   24  C8  UNL     1      21.440   0.848  49.760  1.00  0.00     0.209 C 
ENDBRANCH  22  23
ENDBRANCH  21  22
ENDBRANCH  20  21
ENDBRANCH   2  20
TORSDOF 8
ENDMDL
MODEL 3
REMARK VINA RESULT:      -6.9      4.026      5.228
REMARK  8 active torsions:
REMARK  status: ('A' for Active; 'I' for Inactive)
REMARK    1  A    between atoms: O1_2  and  C2_3 
REMARK    2  A    between atoms: C3_4  and  C4_5 
REMARK    3  A    between atoms: C5_6  and  C6_7 
REMARK    4  A    between atoms: C6_7  and  C7_8 
REMARK    5  A    between atoms: C7_8  and  P1_9 
REMARK    6  A    between atoms: P1_9  and  O2_10 
REMARK    7  A    between atoms: C10_15  and  N3_16 
REMARK    8  A    between atoms: N3_16  and  C11_17 
ROOT
HETATM    1  C4  UNL     1      25.124   3.023  50.623  1.00  0.00     0.041 A 
HETATM    2  C5  UNL     1      23.847   3.184  50.184  1.00  0.00     0.079 A 
HETATM    3  N1  UNL     1      22.860   3.077  51.087  1.00  0.00    -0.241 NA
HETATM    4  C9  UNL     1      23.157   2.819  52.374  1.00  0.00     0.236 A 
HETATM    5  N2  UNL     1      24.426   2.667  52.767  1.00  0.00    -0.224 NA
HETATM    6  C10 UNL     1      25.449   2.761  51.920  1.00  0.00     0.142 A 
ENDROOT
BRANCH   6   7
HETATM    7  N3  UNL     1      26.809   2.609  52.281  1.00  0.00    -0.340 N 
HETATM    8  H11 UNL     1      27.436   3.444  52.255  1.00  0.00     0.167 HD
BRANCH   7   9
HETATM    9  C11 UNL     1      27.499   1.444  52.695  1.00  0.00     0.034 A 
HETATM   10  C12 UNL     1      28.717   1.489  53.386  1.00  0.00     0.029 A 
HETATM   11  C13 UNL     1      29.393   0.378  53.793  1.00  0.00     0.003 A 
HETATM   12  C14 UNL     1      28.903  -0.875  53.539  1.00  0.00     0.007 A 
HETATM   13  C15 UNL     1      27.700  -0.988  52.857  1.00  0.00    -0.060 A 
HETATM   14  C16 UNL     1      27.203  -2.359  52.601  1.00  0.00     0.048 C 
HETATM   15  C17 UNL     1      27.069   0.154  52.476  1.00  0.00     0.036 A 
ENDBRANCH   7   9
ENDBRANCH   6   7
BRANCH   1  16
HETATM   16  C3  UNL     1      26.189   3.137  49.656  1.00  0.00     0.041 C 
HETATM   17  C2  UNL     1      26.836   4.223  49.319  1.00  0.00     0.135 C 
BRANCH  17  18
HETATM   18  O1  UNL     1      27.816   4.770  48.537  1.00  0.00    -0.368 OA
HETATM   19  C1  UNL     1      27.808   6.195  48.355  1.00  0.00     0.208 C 
ENDBRANCH  17  18
ENDBRANCH   1  16
BRANCH   2  20
HETATM   20  C6  UNL     1      23.401   3.463  48.833  1.00  0.00     0.091 C 
BRANCH  20  21
HETATM   21  C7  UNL     1      23.107   4.754  48.753  1.00  0.00    -0.086 C 
BRANCH  21  22
HETATM   22  P1  UNL     1      22.835   6.371  49.039  1.00  0.00     0.163 P 
BRANCH  22  23
HETATM   23  O2  UNL     1      22.986   6.874  50.716  1.00  0.00    -0.350 OA
HETATM   24  C8  UNL     1      24.365   6.736  50.990  1.00  0.00     0.209 C 
ENDBRANCH  22  23
ENDBRANCH  21  22
ENDBRANCH  20  21
ENDBRANCH   2  20
TORSDOF 8
ENDMDL
MODEL 4
REMARK VINA RESULT:      -6.8      2.461      2.928
REMARK  8 active torsions:
REMARK  status: ('A' for Active; 'I' for Inactive)
REMARK    1  A    between atoms: O1_2  and  C2_3 
REMARK    2  A    between atoms: C3_4  and  C4_5 
REMARK    3  A    between atoms: C5_6  and  C6_7 
REMARK    4  A    between atoms: C6_7  and  C7_8 
REMARK    5  A    between atoms: C7_8  and  P1_9 
REMARK    6  A    between atoms: P1_9  and  O2_10 
REMARK    7  A    between atoms: C10_15  and  N3_16 
REMARK    8  A    between atoms: N3_16  and  C11_17 
ROOT
HETATM    1  C4  UNL     1      24.317   1.590  52.266  1.00  0.00     0.041 A 
HETATM    2  C5  UNL     1      23.205   1.385  51.511  1.00  0.00     0.079 A 
HETATM    3  N1  UNL     1      22.390   0.378  51.864  1.00  0.00    -0.241 NA
HETATM    4  C9  UNL     1      22.691  -0.382  52.932  1.00  0.00     0.236 A 
HETATM    5  N2  UNL     1      23.795  -0.149  53.650  1.00  0.00    -0.224 NA
HETATM    6  C10 UNL     1      24.642   0.833  53.352  1.00  0.00     0.142 A 
ENDROOT
BRANCH   6   7
HETATM    7  N3  UNL     1      25.823   1.124  54.075  1.00  0.00    -0.340 N 
HETATM    8  H11 UNL     1      25.774   1.792  54.877  1.00  0.00     0.167 HD
BRANCH   7   9
HETATM    9  C11 UNL     1      27.136   0.630  53.880  1.00  0.00     0.034 A 
HETATM   10  C12 UNL     1      28.273   1.443  53.969  1.00  0.00     0.029 A 
HETATM   11  C13 UNL     1      29.543   0.982  53.785  1.00  0.00     0.003 A 
HETATM   12  C14 UNL     1      29.778  -0.335  53.495  1.00  0.00     0.007 A 
HETATM   13  C15 UNL     1      28.693  -1.193  53.393  1.00  0.00    -0.060 A 
HETATM   14  C16 UNL     1      28.987  -2.609  53.079  1.00  0.00     0.048 C 
HETATM   15  C17 UNL     1      27.449  -0.679  53.587  1.00  0.00     0.036 A 
ENDBRANCH   7   9
ENDBRANCH   6   7
BRANCH   1  16
HETATM   16  C3  UNL     1      25.196   2.670  51.892  1.00  0.00     0.041 C 
HETATM   17  C2  UNL     1      26.120   2.652  50.964  1.00  0.00     0.135 C 
BRANCH  17  18
HETATM   18  O1  UNL     1      27.099   3.353  50.316  1.00  0.00    -0.368 OA
HETATM   19  C1  UNL     1      26.705   4.193  49.219  1.00  0.00     0.208 C 
ENDBRANCH  17  18
ENDBRANCH   1  16
BRANCH   2  20
HETATM   20  C6  UNL     1      22.774   2.130  50.345  1.00  0.00     0.091 C 
BRANCH  20  21
HETATM   21  C7  UNL     1      21.879   3.028  50.735  1.00  0.00    -0.086 C 
BRANCH  21  22
HETATM   22  P1  UNL     1      20.928   4.101  51.581  1.00  0.00     0.163 P 
BRANCH  22  23
HETATM   23  O2  UNL     1      19.613   3.380  52.497  1.00  0.00    -0.350 OA
HETATM   24  C8  UNL     1      19.245   2.249  51.733  1.00  0.00     0.209 C 
ENDBRANCH  22  23
ENDBRANCH  21  22
ENDBRANCH  20  21
ENDBRANCH   2  20
TORSDOF 8
ENDMDL
MODEL 5
REMARK VINA RESULT:      -6.7      3.120      7.334
REMARK  8 active torsions:
REMARK  status: ('A' for Active; 'I' for Inactive)
REMARK    1  A    between atoms: O1_2  and  C2_3 
REMARK    2  A    between atoms: C3_4  and  C4_5 
REMARK    3  A    between atoms: C5_6  and  C6_7 
REMARK    4  A    between atoms: C6_7  and  C7_8 
REMARK    5  A    between atoms: C7_8  and  P1_9 
REMARK    6  A    between atoms: P1_9  and  O2_10 
REMARK    7  A    between atoms: C10_15  and  N3_16 
REMARK    8  A    between atoms: N3_16  and  C11_17 
ROOT
HETATM    1  C4  UNL     1      23.853   1.081  52.474  1.00  0.00     0.041 A 
HETATM    2  C5  UNL     1      25.130   0.621  52.548  1.00  0.00     0.079 A 
HETATM    3  N1  UNL     1      25.392  -0.353  53.434  1.00  0.00    -0.241 NA
HETATM    4  C9  UNL     1      24.402  -0.837  54.206  1.00  0.00     0.236 A 
HETATM    5  N2  UNL     1      23.157  -0.359  54.104  1.00  0.00    -0.224 NA
HETATM    6  C10 UNL     1      22.835   0.606  53.246  1.00  0.00     0.142 A 
ENDROOT
BRANCH   6   7
HETATM    7  N3  UNL     1      21.537   1.149  53.097  1.00  0.00    -0.340 N 
HETATM    8  H11 UNL     1      21.397   2.174  53.244  1.00  0.00     0.167 HD
BRANCH   7   9
HETATM    9  C11 UNL     1      20.326   0.496  52.763  1.00  0.00     0.034 A 
HETATM   10  C12 UNL     1      19.737  -0.476  53.583  1.00  0.00     0.029 A 
HETATM   11  C13 UNL     1      18.572  -1.113  53.276  1.00  0.00     0.003 A 
HETATM   12  C14 UNL     1      17.899  -0.829  52.118  1.00  0.00     0.007 A 
HETATM   13  C15 UNL     1      18.431   0.124  51.261  1.00  0.00    -0.060 A 
HETATM   14  C16 UNL     1      17.676   0.403  50.019  1.00  0.00     0.048 C 
HETATM   15  C17 UNL     1      19.595   0.728  51.619  1.00  0.00     0.036 A 
ENDBRANCH   7   9
ENDBRANCH   6   7
BRANCH   1  16
HETATM   16  C3  UNL     1      23.566   2.128  51.525  1.00  0.00     0.041 C 
HETATM   17  C2  UNL     1      23.066   1.990  50.323  1.00  0.00     0.135 C 
BRANCH  17  18
HETATM   18  O1  UNL     1      22.661   2.616  49.177  1.00  0.00    -0.368 OA
HETATM   19  C1  UNL     1      22.108   1.803  48.130  1.00  0.00     0.208 C 
ENDBRANCH  17  18
ENDBRANCH   1  16
BRANCH   2  20
HETATM   20  C6  UNL     1      26.277   1.058  51.776  1.00  0.00     0.091 C 
BRANCH  20  21
HETATM   21  C7  UNL     1      27.241   1.396  52.622  1.00  0.00    -0.086 C 
BRANCH  21  22
HETATM   22  P1  UNL     1      28.404   2.180  53.518  1.00  0.00     0.163 P 
BRANCH  22  23
HETATM   23  O2  UNL     1      28.905   1.355  54.987  1.00  0.00    -0.350 OA
HETATM   24  C8  UNL     1      28.697  -0.013  54.697  1.00  0.00     0.209 C 
ENDBRANCH  22  23
ENDBRANCH  21  22
ENDBRANCH  20  21
ENDBRANCH   2  20
TORSDOF 8
ENDMDL
MODEL 6
REMARK VINA RESULT:      -6.7      3.074      7.271
REMARK  8 active torsions:
REMARK  status: ('A' for Active; 'I' for Inactive)
REMARK    1  A    between atoms: O1_2  and  C2_3 
REMARK    2  A    between atoms: C3_4  and  C4_5 
REMARK    3  A    between atoms: C5_6  and  C6_7 
REMARK    4  A    between atoms: C6_7  and  C7_8 
REMARK    5  A    between atoms: C7_8  and  P1_9 
REMARK    6  A    between atoms: P1_9  and  O2_10 
REMARK    7  A    between atoms: C10_15  and  N3_16 
REMARK    8  A    between atoms: N3_16  and  C11_17 
ROOT
HETATM    1  C4  UNL     1      23.635   0.507  52.989  1.00  0.00     0.041 A 
HETATM    2  C5  UNL     1      24.782  -0.134  53.339  1.00  0.00     0.079 A 
HETATM    3  N1  UNL     1      24.730  -0.984  54.378  1.00  0.00    -0.241 NA
HETATM    4  C9  UNL     1      23.567  -1.172  55.027  1.00  0.00     0.236 A 
HETATM    5  N2  UNL     1      22.459  -0.523  54.653  1.00  0.00    -0.224 NA
HETATM    6  C10 UNL     1      22.446   0.331  53.633  1.00  0.00     0.142 A 
ENDROOT
BRANCH   6   7
HETATM    7  N3  UNL     1      21.306   1.045  53.195  1.00  0.00    -0.340 N 
HETATM    8  H11 UNL     1      21.271   2.080  53.337  1.00  0.00     0.167 HD
BRANCH   7   9
HETATM    9  C11 UNL     1      20.137   0.561  52.560  1.00  0.00     0.034 A 
HETATM   10  C12 UNL     1      19.718   1.005  51.299  1.00  0.00     0.029 A 
HETATM   11  C13 UNL     1      18.596   0.548  50.675  1.00  0.00     0.003 A 
HETATM   12  C14 UNL     1      17.797  -0.394  51.265  1.00  0.00     0.007 A 
HETATM   13  C15 UNL     1      18.157  -0.875  52.515  1.00  0.00    -0.060 A 
HETATM   14  C16 UNL     1      17.268  -1.893  53.120  1.00  0.00     0.048 C 
HETATM   15  C17 UNL     1      19.286  -0.384  53.091  1.00  0.00     0.036 A 
ENDBRANCH   7   9
ENDBRANCH   6   7
BRANCH   1  16
HETATM   16  C3  UNL     1      23.686   1.420  51.875  1.00  0.00     0.041 C 
HETATM   17  C2  UNL     1      24.002   2.690  51.908  1.00  0.00     0.135 C 
BRANCH  17  18
HETATM   18  O1  UNL     1      24.172   3.842  51.191  1.00  0.00    -0.368 OA
HETATM   19  C1  UNL     1      23.489   5.021  51.647  1.00  0.00     0.208 C 
ENDBRANCH  17  18
ENDBRANCH   1  16
BRANCH   2  20
HETATM   20  C6  UNL     1      26.088  -0.016  52.722  1.00  0.00     0.091 C 
BRANCH  20  21
HETATM   21  C7  UNL     1      26.994   0.080  53.686  1.00  0.00    -0.086 C 
BRANCH  21  22
HETATM   22  P1  UNL     1      28.387   0.175  54.592  1.00  0.00     0.163 P 
BRANCH  22  23
HETATM   23  O2  UNL     1      29.023   1.797  54.825  1.00  0.00    -0.350 OA
HETATM   24  C8  UNL     1      28.681   2.472  53.631  1.00  0.00     0.209 C 
ENDBRANCH  22  23
ENDBRANCH  21  22
ENDBRANCH  20  21
ENDBRANCH   2  20
TORSDOF 8
ENDMDL
MODEL 7
REMARK VINA RESULT:      -6.7      2.862      4.088
REMARK  8 active torsions:
REMARK  status: ('A' for Active; 'I' for Inactive)
REMARK    1  A    between atoms: O1_2  and  C2_3 
REMARK    2  A    between atoms: C3_4  and  C4_5 
REMARK    3  A    between atoms: C5_6  and  C6_7 
REMARK    4  A    between atoms: C6_7  and  C7_8 
REMARK    5  A    between atoms: C7_8  and  P1_9 
REMARK    6  A    between atoms: P1_9  and  O2_10 
REMARK    7  A    between atoms: C10_15  and  N3_16 
REMARK    8  A    between atoms: N3_16  and  C11_17 
ROOT
HETATM    1  C4  UNL     1      24.056   2.084  51.707  1.00  0.00     0.041 A 
HETATM    2  C5  UNL     1      23.245   2.212  50.623  1.00  0.00     0.079 A 
HETATM    3  N1  UNL     1      23.718   2.895  49.568  1.00  0.00    -0.241 NA
HETATM    4  C9  UNL     1      24.956   3.421  49.614  1.00  0.00     0.236 A 
HETATM    5  N2  UNL     1      25.724   3.274  50.699  1.00  0.00    -0.224 NA
HETATM    6  C10 UNL     1      25.312   2.608  51.776  1.00  0.00     0.142 A 
ENDROOT
BRANCH   6   7
HETATM    7  N3  UNL     1      26.081   2.423  52.949  1.00  0.00    -0.340 N 
HETATM    8  H11 UNL     1      25.868   3.005  53.791  1.00  0.00     0.167 HD
BRANCH   7   9
HETATM    9  C11 UNL     1      27.151   1.527  53.186  1.00  0.00     0.034 A 
HETATM   10  C12 UNL     1      28.384   1.938  53.707  1.00  0.00     0.029 A 
HETATM   11  C13 UNL     1      29.423   1.088  53.941  1.00  0.00     0.003 A 
HETATM   12  C14 UNL     1      29.313  -0.249  53.669  1.00  0.00     0.007 A 
HETATM   13  C15 UNL     1      28.116  -0.721  53.150  1.00  0.00    -0.060 A 
HETATM   14  C16 UNL     1      28.035  -2.172  52.870  1.00  0.00     0.048 C 
HETATM   15  C17 UNL     1      27.113   0.172  52.938  1.00  0.00     0.036 A 
ENDBRANCH   7   9
ENDBRANCH   6   7
BRANCH   1  16
HETATM   16  C3  UNL     1      23.553   1.351  52.843  1.00  0.00     0.041 C 
HETATM   17  C2  UNL     1      23.475   0.051  52.973  1.00  0.00     0.135 C 
BRANCH  17  18
HETATM   18  O1  UNL     1      23.111  -0.995  53.774  1.00  0.00    -0.368 OA
HETATM   19  C1  UNL     1      22.072  -0.767  54.740  1.00  0.00     0.208 C 
ENDBRANCH  17  18
ENDBRANCH   1  16
BRANCH   2  20
HETATM   20  C6  UNL     1      21.902   1.695  50.453  1.00  0.00     0.091 C 
BRANCH  20  21
HETATM   21  C7  UNL     1      21.052   2.706  50.568  1.00  0.00    -0.086 C 
BRANCH  21  22
HETATM   22  P1  UNL     1      20.154   4.015  51.071  1.00  0.00     0.163 P 
BRANCH  22  23
HETATM   23  O2  UNL     1      18.786   3.635  52.106  1.00  0.00    -0.350 OA
HETATM   24  C8  UNL     1      17.660   3.892  51.290  1.00  0.00     0.209 C 
ENDBRANCH  22  23
ENDBRANCH  21  22
ENDBRANCH  20  21
ENDBRANCH   2  20
TORSDOF 8
ENDMDL
MODEL 8
REMARK VINA RESULT:      -6.6      2.861      7.810
REMARK  8 active torsions:
REMARK  status: ('A' for Active; 'I' for Inactive)
REMARK    1  A    between atoms: O1_2  and  C2_3 
REMARK    2  A    between atoms: C3_4  and  C4_5 
REMARK    3  A    between atoms: C5_6  and  C6_7 
REMARK    4  A    between atoms: C6_7  and  C7_8 
REMARK    5  A    between atoms: C7_8  and  P1_9 
REMARK    6  A    between atoms: P1_9  and  O2_10 
REMARK    7  A    between atoms: C10_15  and  N3_16 
REMARK    8  A    between atoms: N3_16  and  C11_17 
ROOT
HETATM    1  C4  UNL     1      21.356   0.141  53.260  1.00  0.00     0.041 A 
HETATM    2  C5  UNL     1      22.703  -0.020  53.356  1.00  0.00     0.079 A 
HETATM    3  N1  UNL     1      23.158  -1.006  54.146  1.00  0.00    -0.241 NA
HETATM    4  C9  UNL     1      22.286  -1.790  54.805  1.00  0.00     0.236 A 
HETATM    5  N2  UNL     1      20.968  -1.600  54.685  1.00  0.00    -0.224 NA
HETATM    6  C10 UNL     1      20.455  -0.641  53.919  1.00  0.00     0.142 A 
ENDROOT
BRANCH   6   7
HETATM    7  N3  UNL     1      19.071  -0.394  53.756  1.00  0.00    -0.340 N 
HETATM    8  H11 UNL     1      18.698   0.559  53.968  1.00  0.00     0.167 HD
BRANCH   7   9
HETATM    9  C11 UNL     1      18.049  -1.276  53.329  1.00  0.00     0.034 A 
HETATM   10  C12 UNL     1      17.047  -0.897  52.427  1.00  0.00     0.029 A 
HETATM   11  C13 UNL     1      16.058  -1.735  52.006  1.00  0.00     0.003 A 
HETATM   12  C14 UNL     1      15.990  -3.026  52.456  1.00  0.00     0.007 A 
HETATM   13  C15 UNL     1      16.953  -3.463  53.353  1.00  0.00    -0.060 A 
HETATM   14  C16 UNL     1      16.847  -4.865  53.817  1.00  0.00     0.048 C 
HETATM   15  C17 UNL     1      17.917  -2.585  53.738  1.00  0.00     0.036 A 
ENDBRANCH   7   9
ENDBRANCH   6   7
BRANCH   1  16
HETATM   16  C3  UNL     1      20.862   1.199  52.413  1.00  0.00     0.041 C 
HETATM   17  C2  UNL     1      20.449   2.383  52.788  1.00  0.00     0.135 C 
BRANCH  17  18
HETATM   18  O1  UNL     1      19.944   3.591  52.395  1.00  0.00    -0.368 OA
HETATM   19  C1  UNL     1      20.422   4.146  51.159  1.00  0.00     0.208 C 
ENDBRANCH  17  18
ENDBRANCH   1  16
BRANCH   2  20
HETATM   20  C6  UNL     1      23.739   0.754  52.700  1.00  0.00     0.091 C 
BRANCH  20  21
HETATM   21  C7  UNL     1      24.871   0.065  52.760  1.00  0.00    -0.086 C 
BRANCH  21  22
HETATM   22  P1  UNL     1      26.434  -0.491  52.628  1.00  0.00     0.163 P 
BRANCH  22  23
HETATM   23  O2  UNL     1      27.208  -0.927  54.144  1.00  0.00    -0.350 OA
HETATM   24  C8  UNL     1      27.608   0.314  54.691  1.00  0.00     0.209 C 
ENDBRANCH  22  23
ENDBRANCH  21  22
ENDBRANCH  20  21
ENDBRANCH   2  20
TORSDOF 8
ENDMDL
MODEL 9
REMARK VINA RESULT:      -6.6      3.810      5.670
REMARK  8 active torsions:
REMARK  status: ('A' for Active; 'I' for Inactive)
REMARK    1  A    between atoms: O1_2  and  C2_3 
REMARK    2  A    between atoms: C3_4  and  C4_5 
REMARK    3  A    between atoms: C5_6  and  C6_7 
REMARK    4  A    between atoms: C6_7  and  C7_8 
REMARK    5  A    between atoms: C7_8  and  P1_9 
REMARK    6  A    between atoms: P1_9  and  O2_10 
REMARK    7  A    between atoms: C10_15  and  N3_16 
REMARK    8  A    between atoms: N3_16  and  C11_17 
ROOT
HETATM    1  C4  UNL     1      25.231   2.206  51.309  1.00  0.00     0.041 A 
HETATM    2  C5  UNL     1      24.169   1.836  52.073  1.00  0.00     0.079 A 
HETATM    3  N1  UNL     1      22.953   2.269  51.702  1.00  0.00    -0.241 NA
HETATM    4  C9  UNL     1      22.825   3.039  50.606  1.00  0.00     0.236 A 
HETATM    5  N2  UNL     1      23.894   3.381  49.879  1.00  0.00    -0.224 NA
HETATM    6  C10 UNL     1      25.124   2.985  50.195  1.00  0.00     0.142 A 
ENDROOT
BRANCH   6   7
HETATM    7  N3  UNL     1      26.289   3.318  49.464  1.00  0.00    -0.340 N 
HETATM    8  H11 UNL     1      26.932   2.552  49.160  1.00  0.00     0.167 HD
BRANCH   7   9
HETATM    9  C11 UNL     1      26.755   4.590  49.053  1.00  0.00     0.034 A 
HETATM   10  C12 UNL     1      25.948   5.735  49.072  1.00  0.00     0.029 A 
HETATM   11  C13 UNL     1      26.381   6.967  48.681  1.00  0.00     0.003 A 
HETATM   12  C14 UNL     1      27.662   7.153  48.235  1.00  0.00     0.007 A 
HETATM   13  C15 UNL     1      28.512   6.057  48.192  1.00  0.00    -0.060 A 
HETATM   14  C16 UNL     1      29.889   6.298  47.705  1.00  0.00     0.048 C 
HETATM   15  C17 UNL     1      28.027   4.853  48.595  1.00  0.00     0.036 A 
ENDBRANCH   7   9
ENDBRANCH   6   7
BRANCH   1  16
HETATM   16  C3  UNL     1      26.539   1.745  51.703  1.00  0.00     0.041 C 
HETATM   17  C2  UNL     1      27.387   2.354  52.493  1.00  0.00     0.135 C 
BRANCH  17  18
HETATM   18  O1  UNL     1      28.615   2.316  53.094  1.00  0.00    -0.368 OA
HETATM   19  C1  UNL     1      29.104   1.040  53.536  1.00  0.00     0.208 C 
ENDBRANCH  17  18
ENDBRANCH   1  16
BRANCH   2  20
HETATM   20  C6  UNL     1      24.178   1.016  53.268  1.00  0.00     0.091 C 
BRANCH  20  21
HETATM   21  C7  UNL     1      23.178   0.149  53.182  1.00  0.00    -0.086 C 
BRANCH  21  22
HETATM   22  P1  UNL     1      21.926  -0.909  53.472  1.00  0.00     0.163 P 
BRANCH  22  23
HETATM   23  O2  UNL     1      21.769  -1.451  55.136  1.00  0.00    -0.350 OA
HETATM   24  C8  UNL     1      23.104  -1.548  55.590  1.00  0.00     0.209 C 
ENDBRANCH  22  23
ENDBRANCH  21  22
ENDBRANCH  20  21
ENDBRANCH   2  20
TORSDOF 8
ENDMDL
