MODEL 1
REMARK VINA RESULT:      -7.6      0.000      0.000
REMARK  4 active torsions:
REMARK  status: ('A' for Active; 'I' for Inactive)
REMARK    1  A    between atoms: C3_3  and  C4_4 
REMARK    2  A    between atoms: C5_5  and  C6_6 
REMARK    3  A    between atoms: C6_6  and  N1_7 
REMARK    4  A    between atoms: N1_7  and  C7_8 
ROOT
HETATM    1  C7  UNL     1      25.089   2.921  51.338  1.00  0.00     0.154 A 
HETATM    2  N2  UNL     1      23.780   3.128  51.023  1.00  0.00    -0.222 NA
HETATM    3  C8  UNL     1      22.816   2.333  51.499  1.00  0.00     0.236 A 
HETATM    4  N3  UNL     1      23.041   1.287  52.308  1.00  0.00    -0.240 NA
HETATM    5  C9  UNL     1      24.330   1.049  52.644  1.00  0.00     0.088 A 
HETATM    6  C10 UNL     1      25.391   1.843  52.179  1.00  0.00     0.104 A 
HETATM    7  N4  UNL     1      26.794   1.731  52.416  1.00  0.00    -0.372 N 
HETATM    8  C11 UNL     1      27.255   1.152  53.672  1.00  0.00     0.157 A 
HETATM    9  C12 UNL     1      28.241   0.052  53.681  1.00  0.00     0.024 A 
HETATM   10 BR1  UNL     1      29.869  -0.905  53.594  1.00  0.00    -0.052 Br
HETATM   11  C13 UNL     1      26.822  -0.190  53.880  1.00  0.00    -0.015 A 
HETATM   12  C14 UNL     1      25.469  -0.701  54.102  1.00  0.00     0.013 C 
HETATM   13  C15 UNL     1      24.392  -0.126  53.538  1.00  0.00     0.035 C 
HETATM   14  H12 UNL     1      27.309   2.100  51.592  1.00  0.00     0.161 HD
ENDROOT
BRANCH   1  15
HETATM   15  N1  UNL     1      26.070   3.814  50.814  1.00  0.00    -0.369 N 
HETATM   16  H10 UNL     1      26.634   4.561  51.253  1.00  0.00     0.161 HD
BRANCH  15  17
HETATM   17  C6  UNL     1      26.374   3.721  49.425  1.00  0.00     0.148 C 
BRANCH  17  18
HETATM   18  C5  UNL     1      26.933   5.006  48.880  1.00  0.00    -0.007 C 
HETATM   19  C4  UNL     1      28.187   5.151  48.480  1.00  0.00    -0.003 C 
BRANCH  19  20
HETATM   20  C3  UNL     1      28.668   6.422  47.961  1.00  0.00    -0.005 C 
HETATM   21  C2  UNL     1      29.938   6.585  47.635  1.00  0.00    -0.031 C 
HETATM   22  C1  UNL     1      30.922   5.496  47.777  1.00  0.00     0.036 C 
ENDBRANCH  19  20
ENDBRANCH  17  18
ENDBRANCH  15  17
ENDBRANCH   1  15
TORSDOF 4
ENDMDL
MODEL 2
REMARK VINA RESULT:      -7.4      2.455      3.625
REMARK  4 active torsions:
REMARK  status: ('A' for Active; 'I' for Inactive)
REMARK    1  A    between atoms: C3_3  and  C4_4 
REMARK    2  A    between atoms: C5_5  and  C6_6 
REMARK    3  A    between atoms: C6_6  and  N1_7 
REMARK    4  A    between atoms: N1_7  and  C7_8 
ROOT
HETATM    1  C7  UNL     1      26.642   2.281  52.425  1.00  0.00     0.154 A 
HETATM    2  N2  UNL     1      27.977   2.347  52.687  1.00  0.00    -0.222 NA
HETATM    3  C8  UNL     1      28.552   1.532  53.576  1.00  0.00     0.236 A 
HETATM    4  N3  UNL     1      27.888   0.599  54.276  1.00  0.00    -0.240 NA
HETATM    5  C9  UNL     1      26.558   0.504  54.043  1.00  0.00     0.088 A 
HETATM    6  C10 UNL     1      25.890   1.329  53.124  1.00  0.00     0.104 A 
HETATM    7  N4  UNL     1      24.509   1.377  52.767  1.00  0.00    -0.372 N 
HETATM    8  C11 UNL     1      23.713   0.158  52.854  1.00  0.00     0.157 A 
HETATM    9  C12 UNL     1      22.431   0.142  53.588  1.00  0.00     0.024 A 
HETATM   10 BR1  UNL     1      20.609   0.382  54.030  1.00  0.00    -0.052 Br
HETATM   11  C13 UNL     1      23.651  -0.396  54.166  1.00  0.00    -0.015 A 
HETATM   12  C14 UNL     1      24.718  -0.995  54.968  1.00  0.00     0.013 C 
HETATM   13  C15 UNL     1      25.992  -0.569  54.886  1.00  0.00     0.035 C 
HETATM   14  H12 UNL     1      24.263   2.346  52.487  1.00  0.00     0.161 HD
ENDROOT
BRANCH   1  15
HETATM   15  N1  UNL     1      26.089   3.166  51.452  1.00  0.00    -0.369 N 
HETATM   16  H10 UNL     1      25.445   3.971  51.531  1.00  0.00     0.161 HD
BRANCH  15  17
HETATM   17  C6  UNL     1      26.441   2.950  50.088  1.00  0.00     0.148 C 
BRANCH  17  18
HETATM   18  C5  UNL     1      26.550   4.239  49.320  1.00  0.00    -0.007 C 
HETATM   19  C4  UNL     1      27.699   4.758  48.916  1.00  0.00    -0.003 C 
BRANCH  19  20
HETATM   20  C3  UNL     1      27.738   6.010  48.175  1.00  0.00    -0.005 C 
HETATM   21  C2  UNL     1      28.885   6.513  47.753  1.00  0.00    -0.031 C 
HETATM   22  C1  UNL     1      30.170   5.836  48.008  1.00  0.00     0.036 C 
ENDBRANCH  19  20
ENDBRANCH  17  18
ENDBRANCH  15  17
ENDBRANCH   1  15
TORSDOF 4
ENDMDL
MODEL 3
REMARK VINA RESULT:      -7.4      4.869      6.633
REMARK  4 active torsions:
REMARK  status: ('A' for Active; 'I' for Inactive)
REMARK    1  A    between atoms: C3_3  and  C4_4 
REMARK    2  A    between atoms: C5_5  and  C6_6 
REMARK    3  A    between atoms: C6_6  and  N1_7 
REMARK    4  A    between atoms: N1_7  and  C7_8 
ROOT
HETATM    1  C7  UNL     1      23.921  -0.242  53.567  1.00  0.00     0.154 A 
HETATM    2  N2  UNL     1      24.179  -0.911  54.726  1.00  0.00    -0.222 NA
HETATM    3  C8  UNL     1      23.195  -1.458  55.445  1.00  0.00     0.236 A 
HETATM    4  N3  UNL     1      21.898  -1.403  55.105  1.00  0.00    -0.240 NA
HETATM    5  C9  UNL     1      21.603  -0.745  53.959  1.00  0.00     0.088 A 
HETATM    6  C10 UNL     1      22.585  -0.146  53.156  1.00  0.00     0.104 A 
HETATM    7  N4  UNL     1      22.456   0.590  51.940  1.00  0.00    -0.372 N 
HETATM    8  C11 UNL     1      21.346   0.284  51.044  1.00  0.00     0.157 A 
HETATM    9  C12 UNL     1      20.459   1.356  50.547  1.00  0.00     0.024 A 
HETATM   10 BR1  UNL     1      19.783   2.815  49.553  1.00  0.00    -0.052 Br
HETATM   11  C13 UNL     1      20.062   0.476  51.633  1.00  0.00    -0.015 A 
HETATM   12  C14 UNL     1      19.427  -0.262  52.726  1.00  0.00     0.013 C 
HETATM   13  C15 UNL     1      20.142  -0.788  53.737  1.00  0.00     0.035 C 
HETATM   14  H12 UNL     1      23.224   1.286  51.880  1.00  0.00     0.161 HD
ENDROOT
BRANCH   1  15
HETATM   15  N1  UNL     1      25.015   0.306  52.833  1.00  0.00    -0.369 N 
HETATM   16  H10 UNL     1      25.433   0.057  51.921  1.00  0.00     0.161 HD
BRANCH  15  17
HETATM   17  C6  UNL     1      25.717   1.402  53.413  1.00  0.00     0.148 C 
BRANCH  17  18
HETATM   18  C5  UNL     1      27.209   1.217  53.345  1.00  0.00    -0.007 C 
HETATM   19  C4  UNL     1      27.869   0.306  54.044  1.00  0.00    -0.003 C 
BRANCH  19  20
HETATM   20  C3  UNL     1      29.314   0.177  53.933  1.00  0.00    -0.005 C 
HETATM   21  C2  UNL     1      29.867  -0.960  53.548  1.00  0.00    -0.031 C 
HETATM   22  C1  UNL     1      29.053  -2.143  53.212  1.00  0.00     0.036 C 
ENDBRANCH  19  20
ENDBRANCH  17  18
ENDBRANCH  15  17
ENDBRANCH   1  15
TORSDOF 4
ENDMDL
MODEL 4
REMARK VINA RESULT:      -7.0      2.493      6.399
REMARK  4 active torsions:
REMARK  status: ('A' for Active; 'I' for Inactive)
REMARK    1  A    between atoms: C3_3  and  C4_4 
REMARK    2  A    between atoms: C5_5  and  C6_6 
REMARK    3  A    between atoms: C6_6  and  N1_7 
REMARK    4  A    between atoms: N1_7  and  C7_8 
ROOT
HETATM    1  C7  UNL     1      25.212   3.311  51.412  1.00  0.00     0.154 A 
HETATM    2  N2  UNL     1      23.939   3.346  51.895  1.00  0.00    -0.222 NA
HETATM    3  C8  UNL     1      23.065   4.269  51.482  1.00  0.00     0.236 A 
HETATM    4  N3  UNL     1      23.350   5.221  50.581  1.00  0.00    -0.240 NA
HETATM    5  C9  UNL     1      24.608   5.219  50.079  1.00  0.00     0.088 A 
HETATM    6  C10 UNL     1      25.576   4.280  50.468  1.00  0.00     0.104 A 
HETATM    7  N4  UNL     1      26.936   4.139  50.060  1.00  0.00    -0.372 N 
HETATM    8  C11 UNL     1      27.320   4.569  48.720  1.00  0.00     0.157 A 
HETATM    9  C12 UNL     1      28.462   5.483  48.517  1.00  0.00     0.024 A 
HETATM   10 BR1  UNL     1      30.222   6.151  48.343  1.00  0.00    -0.052 Br
HETATM   11  C13 UNL     1      27.088   5.954  48.472  1.00  0.00    -0.015 A 
HETATM   12  C14 UNL     1      25.819   6.676  48.377  1.00  0.00     0.013 C 
HETATM   13  C15 UNL     1      24.744   6.321  49.104  1.00  0.00     0.035 C 
HETATM   14  H12 UNL     1      27.485   3.728  50.840  1.00  0.00     0.161 HD
ENDROOT
BRANCH   1  15
HETATM   15  N1  UNL     1      26.095   2.291  51.877  1.00  0.00    -0.369 N 
HETATM   16  H10 UNL     1      27.104   2.294  52.101  1.00  0.00     0.161 HD
BRANCH  15  17
HETATM   17  C6  UNL     1      25.550   0.990  52.084  1.00  0.00     0.148 C 
BRANCH  17  18
HETATM   18  C5  UNL     1      26.609  -0.077  52.064  1.00  0.00    -0.007 C 
HETATM   19  C4  UNL     1      27.100  -0.646  53.154  1.00  0.00    -0.003 C 
BRANCH  19  20
HETATM   20  C3  UNL     1      28.125  -1.675  53.068  1.00  0.00    -0.005 C 
HETATM   21  C2  UNL     1      29.394  -1.390  53.301  1.00  0.00    -0.031 C 
HETATM   22  C1  UNL     1      29.831  -0.027  53.657  1.00  0.00     0.036 C 
ENDBRANCH  19  20
ENDBRANCH  17  18
ENDBRANCH  15  17
ENDBRANCH   1  15
TORSDOF 4
ENDMDL
MODEL 5
REMARK VINA RESULT:      -7.0      3.431      5.327
REMARK  4 active torsions:
REMARK  status: ('A' for Active; 'I' for Inactive)
REMARK    1  A    between atoms: C3_3  and  C4_4 
REMARK    2  A    between atoms: C5_5  and  C6_6 
REMARK    3  A    between atoms: C6_6  and  N1_7 
REMARK    4  A    between atoms: N1_7  and  C7_8 
ROOT
HETATM    1  C7  UNL     1      24.432   2.909  50.592  1.00  0.00     0.154 A 
HETATM    2  N2  UNL     1      24.402   3.412  49.327  1.00  0.00    -0.222 NA
HETATM    3  C8  UNL     1      23.414   3.105  48.480  1.00  0.00     0.236 A 
HETATM    4  N3  UNL     1      22.390   2.296  48.787  1.00  0.00    -0.240 NA
HETATM    5  C9  UNL     1      22.385   1.776  50.037  1.00  0.00     0.088 A 
HETATM    6  C10 UNL     1      23.390   2.055  50.976  1.00  0.00     0.104 A 
HETATM    7  N4  UNL     1      23.551   1.589  52.315  1.00  0.00    -0.372 N 
HETATM    8  C11 UNL     1      22.365   1.255  53.095  1.00  0.00     0.157 A 
HETATM    9  C12 UNL     1      22.254  -0.049  53.781  1.00  0.00     0.024 A 
HETATM   10 BR1  UNL     1      22.467  -1.442  55.041  1.00  0.00    -0.052 Br
HETATM   11  C13 UNL     1      21.576   0.214  52.523  1.00  0.00    -0.015 A 
HETATM   12  C14 UNL     1      20.801   0.218  51.282  1.00  0.00     0.013 C 
HETATM   13  C15 UNL     1      21.191   0.921  50.204  1.00  0.00     0.035 C 
HETATM   14  H12 UNL     1      24.564   1.550  52.543  1.00  0.00     0.161 HD
ENDROOT
BRANCH   1  15
HETATM   15  N1  UNL     1      25.502   3.287  51.456  1.00  0.00    -0.369 N 
HETATM   16  H10 UNL     1      25.595   4.039  52.160  1.00  0.00     0.161 HD
BRANCH  15  17
HETATM   17  C6  UNL     1      26.710   2.534  51.381  1.00  0.00     0.148 C 
BRANCH  17  18
HETATM   18  C5  UNL     1      27.152   2.037  52.731  1.00  0.00    -0.007 C 
HETATM   19  C4  UNL     1      27.355   0.760  53.013  1.00  0.00    -0.003 C 
BRANCH  19  20
HETATM   20  C3  UNL     1      27.784   0.343  54.339  1.00  0.00    -0.005 C 
HETATM   21  C2  UNL     1      28.960  -0.231  54.523  1.00  0.00    -0.031 C 
HETATM   22  C1  UNL     1      29.889  -0.474  53.403  1.00  0.00     0.036 C 
ENDBRANCH  19  20
ENDBRANCH  17  18
ENDBRANCH  15  17
ENDBRANCH   1  15
TORSDOF 4
ENDMDL
MODEL 6
REMARK VINA RESULT:      -6.9      3.283      5.013
REMARK  4 active torsions:
REMARK  status: ('A' for Active; 'I' for Inactive)
REMARK    1  A    between atoms: C3_3  and  C4_4 
REMARK    2  A    between atoms: C5_5  and  C6_6 
REMARK    3  A    between atoms: C6_6  and  N1_7 
REMARK    4  A    between atoms: N1_7  and  C7_8 
ROOT
HETATM    1  C7  UNL     1      26.920   2.389  52.624  1.00  0.00     0.154 A 
HETATM    2  N2  UNL     1      28.233   2.471  52.978  1.00  0.00    -0.222 NA
HETATM    3  C8  UNL     1      28.754   1.661  53.905  1.00  0.00     0.236 A 
HETATM    4  N3  UNL     1      28.055   0.720  54.556  1.00  0.00    -0.240 NA
HETATM    5  C9  UNL     1      26.745   0.609  54.231  1.00  0.00     0.088 A 
HETATM    6  C10 UNL     1      26.133   1.426  53.269  1.00  0.00     0.104 A 
HETATM    7  N4  UNL     1      24.779   1.458  52.817  1.00  0.00    -0.372 N 
HETATM    8  C11 UNL     1      23.995   0.229  52.847  1.00  0.00     0.157 A 
HETATM    9  C12 UNL     1      22.665   0.196  53.491  1.00  0.00     0.024 A 
HETATM   10 BR1  UNL     1      20.814   0.413  53.805  1.00  0.00    -0.052 Br
HETATM   11  C13 UNL     1      23.848  -0.327  54.152  1.00  0.00    -0.015 A 
HETATM   12  C14 UNL     1      24.864  -0.914  55.026  1.00  0.00     0.013 C 
HETATM   13  C15 UNL     1      26.135  -0.473  55.033  1.00  0.00     0.035 C 
HETATM   14  H12 UNL     1      24.541   2.425  52.521  1.00  0.00     0.161 HD
ENDROOT
BRANCH   1  15
HETATM   15  N1  UNL     1      26.425   3.268  51.615  1.00  0.00    -0.369 N 
HETATM   16  H10 UNL     1      25.890   4.151  51.665  1.00  0.00     0.161 HD
BRANCH  15  17
HETATM   17  C6  UNL     1      26.669   2.917  50.256  1.00  0.00     0.148 C 
BRANCH  17  18
HETATM   18  C5  UNL     1      25.445   3.090  49.398  1.00  0.00    -0.007 C 
HETATM   19  C4  UNL     1      24.258   3.431  49.874  1.00  0.00    -0.003 C 
BRANCH  19  20
HETATM   20  C3  UNL     1      23.111   3.583  48.990  1.00  0.00    -0.005 C 
HETATM   21  C2  UNL     1      22.137   2.690  48.983  1.00  0.00    -0.031 C 
HETATM   22  C1  UNL     1      22.162   1.507  49.863  1.00  0.00     0.036 C 
ENDBRANCH  19  20
ENDBRANCH  17  18
ENDBRANCH  15  17
ENDBRANCH   1  15
TORSDOF 4
ENDMDL
MODEL 7
REMARK VINA RESULT:      -6.9      3.417      5.067
REMARK  4 active torsions:
REMARK  status: ('A' for Active; 'I' for Inactive)
REMARK    1  A    between atoms: C3_3  and  C4_4 
REMARK    2  A    between atoms: C5_5  and  C6_6 
REMARK    3  A    between atoms: C6_6  and  N1_7 
REMARK    4  A    between atoms: N1_7  and  C7_8 
ROOT
HETATM    1  C7  UNL     1      24.804   0.718  52.741  1.00  0.00     0.154 A 
HETATM    2  N2  UNL     1      25.820   0.320  53.556  1.00  0.00    -0.222 NA
HETATM    3  C8  UNL     1      25.602  -0.507  54.583  1.00  0.00     0.236 A 
HETATM    4  N3  UNL     1      24.399  -1.008  54.899  1.00  0.00    -0.240 NA
HETATM    5  C9  UNL     1      23.364  -0.634  54.111  1.00  0.00     0.088 A 
HETATM    6  C10 UNL     1      23.520   0.231  53.017  1.00  0.00     0.104 A 
HETATM    7  N4  UNL     1      22.551   0.737  52.099  1.00  0.00    -0.372 N 
HETATM    8  C11 UNL     1      21.374  -0.070  51.798  1.00  0.00     0.157 A 
HETATM    9  C12 UNL     1      20.017   0.504  51.904  1.00  0.00     0.024 A 
HETATM   10 BR1  UNL     1      18.438   1.469  51.520  1.00  0.00    -0.052 Br
HETATM   11  C13 UNL     1      20.567  -0.356  52.938  1.00  0.00    -0.015 A 
HETATM   12  C14 UNL     1      20.876  -1.182  54.106  1.00  0.00     0.013 C 
HETATM   13  C15 UNL     1      22.126  -1.280  54.595  1.00  0.00     0.035 C 
HETATM   14  H12 UNL     1      22.852   1.674  51.768  1.00  0.00     0.161 HD
ENDROOT
BRANCH   1  15
HETATM   15  N1  UNL     1      25.101   1.588  51.649  1.00  0.00    -0.369 N 
HETATM   16  H10 UNL     1      24.497   2.131  51.009  1.00  0.00     0.161 HD
BRANCH  15  17
HETATM   17  C6  UNL     1      26.472   1.784  51.315  1.00  0.00     0.148 C 
BRANCH  17  18
HETATM   18  C5  UNL     1      26.727   3.157  50.754  1.00  0.00    -0.007 C 
HETATM   19  C4  UNL     1      26.556   3.473  49.480  1.00  0.00    -0.003 C 
BRANCH  19  20
HETATM   20  C3  UNL     1      26.819   4.821  48.998  1.00  0.00    -0.005 C 
HETATM   21  C2  UNL     1      25.827   5.653  48.735  1.00  0.00    -0.031 C 
HETATM   22  C1  UNL     1      24.417   5.262  48.914  1.00  0.00     0.036 C 
ENDBRANCH  19  20
ENDBRANCH  17  18
ENDBRANCH  15  17
ENDBRANCH   1  15
TORSDOF 4
ENDMDL
MODEL 8
REMARK VINA RESULT:      -6.8      1.853      2.666
REMARK  4 active torsions:
REMARK  status: ('A' for Active; 'I' for Inactive)
REMARK    1  A    between atoms: C3_3  and  C4_4 
REMARK    2  A    between atoms: C5_5  and  C6_6 
REMARK    3  A    between atoms: C6_6  and  N1_7 
REMARK    4  A    between atoms: N1_7  and  C7_8 
ROOT
HETATM    1  C7  UNL     1      22.447   2.619  51.080  1.00  0.00     0.154 A 
HETATM    2  N2  UNL     1      21.154   3.048  51.090  1.00  0.00    -0.222 NA
HETATM    3  C8  UNL     1      20.257   2.530  51.934  1.00  0.00     0.236 A 
HETATM    4  N3  UNL     1      20.536   1.568  52.826  1.00  0.00    -0.240 NA
HETATM    5  C9  UNL     1      21.812   1.115  52.846  1.00  0.00     0.088 A 
HETATM    6  C10 UNL     1      22.804   1.613  51.988  1.00  0.00     0.104 A 
HETATM    7  N4  UNL     1      24.178   1.249  51.862  1.00  0.00    -0.372 N 
HETATM    8  C11 UNL     1      24.887   0.747  53.034  1.00  0.00     0.157 A 
HETATM    9  C12 UNL     1      25.642  -0.521  52.976  1.00  0.00     0.024 A 
HETATM   10 BR1  UNL     1      26.998  -1.792  52.632  1.00  0.00    -0.052 Br
HETATM   11  C13 UNL     1      24.323  -0.444  53.580  1.00  0.00    -0.015 A 
HETATM   12  C14 UNL     1      23.029  -0.637  54.236  1.00  0.00     0.013 C 
HETATM   13  C15 UNL     1      21.941   0.071  53.884  1.00  0.00     0.035 C 
HETATM   14  H12 UNL     1      24.483   1.401  50.881  1.00  0.00     0.161 HD
ENDROOT
BRANCH   1  15
HETATM   15  N1  UNL     1      23.364   3.223  50.169  1.00  0.00    -0.369 N 
HETATM   16  H10 UNL     1      23.697   2.941  49.231  1.00  0.00     0.161 HD
BRANCH  15  17
HETATM   17  C6  UNL     1      23.983   4.443  50.565  1.00  0.00     0.148 C 
BRANCH  17  18
HETATM   18  C5  UNL     1      25.460   4.446  50.283  1.00  0.00    -0.007 C 
HETATM   19  C4  UNL     1      25.975   4.522  49.065  1.00  0.00    -0.003 C 
BRANCH  19  20
HETATM   20  C3  UNL     1      27.415   4.521  48.857  1.00  0.00    -0.005 C 
HETATM   21  C2  UNL     1      28.041   5.607  48.439  1.00  0.00    -0.031 C 
HETATM   22  C1  UNL     1      27.318   6.863  48.166  1.00  0.00     0.036 C 
ENDBRANCH  19  20
ENDBRANCH  17  18
ENDBRANCH  15  17
ENDBRANCH   1  15
TORSDOF 4
ENDMDL
MODEL 9
REMARK VINA RESULT:      -6.8      1.653      2.275
REMARK  4 active torsions:
REMARK  status: ('A' for Active; 'I' for Inactive)
REMARK    1  A    between atoms: C3_3  and  C4_4 
REMARK    2  A    between atoms: C5_5  and  C6_6 
REMARK    3  A    between atoms: C6_6  and  N1_7 
REMARK    4  A    between atoms: N1_7  and  C7_8 
ROOT
HETATM    1  C7  UNL     1      23.402   1.555  51.251  1.00  0.00     0.154 A 
HETATM    2  N2  UNL     1      22.095   1.212  51.083  1.00  0.00    -0.222 NA
HETATM    3  C8  UNL     1      21.500   0.326  51.887  1.00  0.00     0.236 A 
HETATM    4  N3  UNL     1      22.117  -0.293  52.905  1.00  0.00    -0.240 NA
HETATM    5  C9  UNL     1      23.418   0.022  53.103  1.00  0.00     0.088 A 
HETATM    6  C10 UNL     1      24.105   0.943  52.297  1.00  0.00     0.104 A 
HETATM    7  N4  UNL     1      25.463   1.378  52.350  1.00  0.00    -0.372 N 
HETATM    8  C11 UNL     1      26.151   1.391  53.636  1.00  0.00     0.157 A 
HETATM    9  C12 UNL     1      27.465   0.735  53.797  1.00  0.00     0.024 A 
HETATM   10 BR1  UNL     1      29.323   0.391  53.736  1.00  0.00    -0.052 Br
HETATM   11  C13 UNL     1      26.236   0.109  54.255  1.00  0.00    -0.015 A 
HETATM   12  C14 UNL     1      25.166  -0.729  54.797  1.00  0.00     0.013 C 
HETATM   13  C15 UNL     1      23.932  -0.740  54.260  1.00  0.00     0.035 C 
HETATM   14  H12 UNL     1      25.778   1.631  51.393  1.00  0.00     0.161 HD
ENDROOT
BRANCH   1  15
HETATM   15  N1  UNL     1      23.977   2.521  50.372  1.00  0.00    -0.369 N 
HETATM   16  H10 UNL     1      24.941   2.656  50.023  1.00  0.00     0.161 HD
BRANCH  15  17
HETATM   17  C6  UNL     1      23.118   3.528  49.844  1.00  0.00     0.148 C 
BRANCH  17  18
HETATM   18  C5  UNL     1      23.888   4.659  49.220  1.00  0.00    -0.007 C 
HETATM   19  C4  UNL     1      25.043   5.106  49.688  1.00  0.00    -0.003 C 
BRANCH  19  20
HETATM   20  C3  UNL     1      25.741   6.206  49.037  1.00  0.00    -0.005 C 
HETATM   21  C2  UNL     1      26.962   6.045  48.556  1.00  0.00    -0.031 C 
HETATM   22  C1  UNL     1      27.670   4.755  48.651  1.00  0.00     0.036 C 
ENDBRANCH  19  20
ENDBRANCH  17  18
ENDBRANCH  15  17
ENDBRANCH   1  15
TORSDOF 4
ENDMDL
