MODEL 1
REMARK VINA RESULT:      -6.9      0.000      0.000
REMARK  6 active torsions:
REMARK  status: ('A' for Active; 'I' for Inactive)
REMARK    1  A    between atoms: S1_2  and  N1_4 
REMARK    2  A    between atoms: S1_2  and  C9_15 
REMARK    3  A    between atoms: N1_4  and  C1_5 
REMARK    4  A    between atoms: C1_5  and  S2_6 
REMARK    5  A    between atoms: C1_5  and  C2_7 
REMARK    6  A    between atoms: C2_7  and  C3_8 
ROOT
HETATM    1  N1  UNL     1      26.885   0.384  54.235  1.00  0.00    -0.301 N 
HETATM    2  H1  UNL     1      26.659   0.531  55.230  1.00  0.00     0.173 HD
ENDROOT
BRANCH   1   3
HETATM    3  S1  UNL     1      27.330   1.778  53.379  1.00  0.00     0.259 S 
HETATM    4  O1  UNL     1      27.965   2.830  54.234  1.00  0.00    -0.201 OA
HETATM    5  O2  UNL     1      28.317   1.386  52.317  1.00  0.00    -0.201 OA
BRANCH   3   6
HETATM    6  C9  UNL     1      25.919   2.393  52.544  1.00  0.00     0.079 A 
HETATM    7  C10 UNL     1      25.727   2.393  51.191  1.00  0.00     0.026 A 
HETATM    8  C11 UNL     1      24.574   2.904  50.633  1.00  0.00     0.020 A 
HETATM    9  C12 UNL     1      23.556   3.441  51.398  1.00  0.00     0.011 A 
HETATM   10 BR2  UNL     1      21.942   4.161  50.682  1.00  0.00    -0.051 Br
HETATM   11  C13 UNL     1      23.699   3.467  52.786  1.00  0.00     0.020 A 
HETATM   12  C14 UNL     1      24.864   2.945  53.279  1.00  0.00     0.026 A 
ENDBRANCH   3   6
ENDBRANCH   1   3
BRANCH   1  13
HETATM   13  C1  UNL     1      25.961  -0.498  53.556  1.00  0.00     0.156 C 
BRANCH  13  14
HETATM   14  S2  UNL     1      26.797  -1.902  52.784  1.00  0.00    -0.156 SA
HETATM   15  H3  UNL     1      26.067  -3.073  53.071  1.00  0.00     0.103 HD
ENDBRANCH  13  14
BRANCH  13  16
HETATM   16  C2  UNL     1      24.915  -0.914  54.551  1.00  0.00     0.075 C 
BRANCH  16  17
HETATM   17  C3  UNL     1      23.532  -0.762  54.118  1.00  0.00    -0.055 A 
HETATM   18  C4  UNL     1      23.182  -0.198  52.902  1.00  0.00     0.008 A 
HETATM   19  C5  UNL     1      21.880  -0.040  52.461  1.00  0.00     0.019 A 
HETATM   20  C6  UNL     1      20.853  -0.476  53.290  1.00  0.00     0.011 A 
HETATM   21 BR1  UNL     1      19.053  -0.266  52.695  1.00  0.00    -0.051 Br
HETATM   22  C7  UNL     1      21.146  -1.048  54.514  1.00  0.00     0.019 A 
HETATM   23  C8  UNL     1      22.471  -1.176  54.895  1.00  0.00     0.008 A 
ENDBRANCH  16  17
ENDBRANCH  13  16
ENDBRANCH   1  13
TORSDOF 6
ENDMDL
MODEL 2
REMARK VINA RESULT:      -6.6      4.388      5.424
REMARK  6 active torsions:
REMARK  status: ('A' for Active; 'I' for Inactive)
REMARK    1  A    between atoms: S1_2  and  N1_4 
REMARK    2  A    between atoms: S1_2  and  C9_15 
REMARK    3  A    between atoms: N1_4  and  C1_5 
REMARK    4  A    between atoms: C1_5  and  S2_6 
REMARK    5  A    between atoms: C1_5  and  C2_7 
REMARK    6  A    between atoms: C2_7  and  C3_8 
ROOT
HETATM    1  N1  UNL     1      20.881   0.828  52.085  1.00  0.00    -0.301 N 
HETATM    2  H1  UNL     1      21.042   0.158  51.320  1.00  0.00     0.173 HD
ENDROOT
BRANCH   1   3
HETATM    3  S1  UNL     1      20.538   2.416  51.598  1.00  0.00     0.259 S 
HETATM    4  O1  UNL     1      19.476   2.504  50.548  1.00  0.00    -0.201 OA
HETATM    5  O2  UNL     1      20.070   3.189  52.797  1.00  0.00    -0.201 OA
BRANCH   3   6
HETATM    6  C9  UNL     1      22.028   3.170  51.071  1.00  0.00     0.079 A 
HETATM    7  C10 UNL     1      22.565   4.320  51.576  1.00  0.00     0.026 A 
HETATM    8  C11 UNL     1      23.748   4.831  51.087  1.00  0.00     0.020 A 
HETATM    9  C12 UNL     1      24.455   4.220  50.069  1.00  0.00     0.011 A 
HETATM   10 BR2  UNL     1      26.095   4.880  49.354  1.00  0.00    -0.051 Br
HETATM   11  C13 UNL     1      23.953   3.041  49.516  1.00  0.00     0.020 A 
HETATM   12  C14 UNL     1      22.776   2.584  50.043  1.00  0.00     0.026 A 
ENDBRANCH   3   6
ENDBRANCH   1   3
BRANCH   1  13
HETATM   13  C1  UNL     1      21.822   0.699  53.176  1.00  0.00     0.156 C 
BRANCH  13  14
HETATM   14  S2  UNL     1      21.056   0.020  54.666  1.00  0.00    -0.156 SA
HETATM   15  H3  UNL     1      21.771   0.482  55.789  1.00  0.00     0.103 HD
ENDBRANCH  13  14
BRANCH  13  16
HETATM   16  C2  UNL     1      22.977  -0.125  52.684  1.00  0.00     0.075 C 
BRANCH  16  17
HETATM   17  C3  UNL     1      24.302   0.441  52.908  1.00  0.00    -0.055 A 
HETATM   18  C4  UNL     1      24.506   1.773  53.231  1.00  0.00     0.008 A 
HETATM   19  C5  UNL     1      25.748   2.341  53.450  1.00  0.00     0.019 A 
HETATM   20  C6  UNL     1      26.867   1.525  53.341  1.00  0.00     0.011 A 
HETATM   21 BR1  UNL     1      28.586   2.294  53.641  1.00  0.00    -0.051 Br
HETATM   22  C7  UNL     1      26.721   0.188  53.022  1.00  0.00     0.019 A 
HETATM   23  C8  UNL     1      25.449  -0.318  52.815  1.00  0.00     0.008 A 
ENDBRANCH  16  17
ENDBRANCH  13  16
ENDBRANCH   1  13
TORSDOF 6
ENDMDL
MODEL 3
REMARK VINA RESULT:      -6.4      4.250      5.328
REMARK  6 active torsions:
REMARK  status: ('A' for Active; 'I' for Inactive)
REMARK    1  A    between atoms: S1_2  and  N1_4 
REMARK    2  A    between atoms: S1_2  and  C9_15 
REMARK    3  A    between atoms: N1_4  and  C1_5 
REMARK    4  A    between atoms: C1_5  and  S2_6 
REMARK    5  A    between atoms: C1_5  and  C2_7 
REMARK    6  A    between atoms: C2_7  and  C3_8 
ROOT
HETATM    1  N1  UNL     1      22.907   2.059  51.171  1.00  0.00    -0.301 N 
HETATM    2  H1  UNL     1      23.662   1.510  50.736  1.00  0.00     0.173 HD
ENDROOT
BRANCH   1   3
HETATM    3  S1  UNL     1      23.034   3.739  50.988  1.00  0.00     0.259 S 
HETATM    4  O1  UNL     1      21.904   4.345  50.216  1.00  0.00    -0.201 OA
HETATM    5  O2  UNL     1      23.051   4.365  52.353  1.00  0.00    -0.201 OA
BRANCH   3   6
HETATM    6  C9  UNL     1      24.582   4.104  50.255  1.00  0.00     0.079 A 
HETATM    7  C10 UNL     1      25.612   3.223  50.081  1.00  0.00     0.026 A 
HETATM    8  C11 UNL     1      26.795   3.615  49.490  1.00  0.00     0.020 A 
HETATM    9  C12 UNL     1      27.008   4.904  49.042  1.00  0.00     0.011 A 
HETATM   10 BR2  UNL     1      28.620   5.502  48.219  1.00  0.00    -0.051 Br
HETATM   11  C13 UNL     1      25.989   5.846  49.194  1.00  0.00     0.020 A 
HETATM   12  C14 UNL     1      24.840   5.398  49.787  1.00  0.00     0.026 A 
ENDBRANCH   3   6
ENDBRANCH   1   3
BRANCH   1  13
HETATM   13  C1  UNL     1      22.548   1.600  52.496  1.00  0.00     0.156 C 
BRANCH  13  14
HETATM   14  S2  UNL     1      20.761   1.426  52.699  1.00  0.00    -0.156 SA
HETATM   15  H3  UNL     1      20.174   1.288  51.425  1.00  0.00     0.103 HD
ENDBRANCH  13  14
BRANCH  13  16
HETATM   16  C2  UNL     1      23.294   0.322  52.751  1.00  0.00     0.075 C 
BRANCH  16  17
HETATM   17  C3  UNL     1      24.716   0.463  53.037  1.00  0.00    -0.055 A 
HETATM   18  C4  UNL     1      25.288   1.660  53.437  1.00  0.00     0.008 A 
HETATM   19  C5  UNL     1      26.632   1.827  53.717  1.00  0.00     0.019 A 
HETATM   20  C6  UNL     1      27.468   0.725  53.589  1.00  0.00     0.011 A 
HETATM   21 BR1  UNL     1      29.323   0.941  53.971  1.00  0.00    -0.051 Br
HETATM   22  C7  UNL     1      26.950  -0.494  53.193  1.00  0.00     0.019 A 
HETATM   23  C8  UNL     1      25.595  -0.594  52.929  1.00  0.00     0.008 A 
ENDBRANCH  16  17
ENDBRANCH  13  16
ENDBRANCH   1  13
TORSDOF 6
ENDMDL
MODEL 4
REMARK VINA RESULT:      -6.4      4.163      6.571
REMARK  6 active torsions:
REMARK  status: ('A' for Active; 'I' for Inactive)
REMARK    1  A    between atoms: S1_2  and  N1_4 
REMARK    2  A    between atoms: S1_2  and  C9_15 
REMARK    3  A    between atoms: N1_4  and  C1_5 
REMARK    4  A    between atoms: C1_5  and  S2_6 
REMARK    5  A    between atoms: C1_5  and  C2_7 
REMARK    6  A    between atoms: C2_7  and  C3_8 
ROOT
HETATM    1  N1  UNL     1      21.957   1.466  52.850  1.00  0.00    -0.301 N 
HETATM    2  H1  UNL     1      21.870   2.254  53.508  1.00  0.00     0.173 HD
ENDROOT
BRANCH   1   3
HETATM    3  S1  UNL     1      21.400  -0.027  53.429  1.00  0.00     0.259 S 
HETATM    4  O1  UNL     1      22.310  -1.171  53.110  1.00  0.00    -0.201 OA
HETATM    5  O2  UNL     1      21.273   0.062  54.923  1.00  0.00    -0.201 OA
BRANCH   3   6
HETATM    6  C9  UNL     1      19.785  -0.297  52.809  1.00  0.00     0.079 A 
HETATM    7  C10 UNL     1      19.263   0.252  51.671  1.00  0.00     0.026 A 
HETATM    8  C11 UNL     1      17.973  -0.027  51.271  1.00  0.00     0.020 A 
HETATM    9  C12 UNL     1      17.140  -0.868  51.984  1.00  0.00     0.011 A 
HETATM   10 BR2  UNL     1      15.351  -1.289  51.479  1.00  0.00    -0.051 Br
HETATM   11  C13 UNL     1      17.622  -1.457  53.154  1.00  0.00     0.020 A 
HETATM   12  C14 UNL     1      18.908  -1.142  53.500  1.00  0.00     0.026 A 
ENDBRANCH   3   6
ENDBRANCH   1   3
BRANCH   1  13
HETATM   13  C1  UNL     1      23.223   1.432  52.152  1.00  0.00     0.156 C 
BRANCH  13  14
HETATM   14  S2  UNL     1      23.128   2.206  50.521  1.00  0.00    -0.156 SA
HETATM   15  H3  UNL     1      23.469   3.568  50.650  1.00  0.00     0.103 HD
ENDBRANCH  13  14
BRANCH  13  16
HETATM   16  C2  UNL     1      24.251   2.069  53.044  1.00  0.00     0.075 C 
BRANCH  16  17
HETATM   17  C3  UNL     1      25.520   1.361  53.155  1.00  0.00    -0.055 A 
HETATM   18  C4  UNL     1      26.677   1.962  53.626  1.00  0.00     0.008 A 
HETATM   19  C5  UNL     1      27.896   1.319  53.745  1.00  0.00     0.019 A 
HETATM   20  C6  UNL     1      27.970  -0.016  53.369  1.00  0.00     0.011 A 
HETATM   21 BR1  UNL     1      29.644  -0.915  53.528  1.00  0.00    -0.051 Br
HETATM   22  C7  UNL     1      26.845  -0.664  52.893  1.00  0.00     0.019 A 
HETATM   23  C8  UNL     1      25.655   0.036  52.799  1.00  0.00     0.008 A 
ENDBRANCH  16  17
ENDBRANCH  13  16
ENDBRANCH   1  13
TORSDOF 6
ENDMDL
MODEL 5
REMARK VINA RESULT:      -6.2      4.064      5.047
REMARK  6 active torsions:
REMARK  status: ('A' for Active; 'I' for Inactive)
REMARK    1  A    between atoms: S1_2  and  N1_4 
REMARK    2  A    between atoms: S1_2  and  C9_15 
REMARK    3  A    between atoms: N1_4  and  C1_5 
REMARK    4  A    between atoms: C1_5  and  S2_6 
REMARK    5  A    between atoms: C1_5  and  C2_7 
REMARK    6  A    between atoms: C2_7  and  C3_8 
ROOT
HETATM    1  N1  UNL     1      22.269   4.684  50.182  1.00  0.00    -0.301 N 
HETATM    2  H1  UNL     1      22.688   4.132  49.419  1.00  0.00     0.173 HD
ENDROOT
BRANCH   1   3
HETATM    3  S1  UNL     1      23.262   4.921  51.535  1.00  0.00     0.259 S 
HETATM    4  O1  UNL     1      24.087   6.167  51.464  1.00  0.00    -0.201 OA
HETATM    5  O2  UNL     1      22.388   5.012  52.753  1.00  0.00    -0.201 OA
BRANCH   3   6
HETATM    6  C9  UNL     1      24.263   3.499  51.747  1.00  0.00     0.079 A 
HETATM    7  C10 UNL     1      25.164   3.013  50.842  1.00  0.00     0.026 A 
HETATM    8  C11 UNL     1      25.904   1.881  51.108  1.00  0.00     0.020 A 
HETATM    9  C12 UNL     1      25.782   1.177  52.291  1.00  0.00     0.011 A 
HETATM   10 BR2  UNL     1      26.777  -0.393  52.713  1.00  0.00    -0.051 Br
HETATM   11  C13 UNL     1      24.876   1.628  53.252  1.00  0.00     0.020 A 
HETATM   12  C14 UNL     1      24.171   2.757  52.930  1.00  0.00     0.026 A 
ENDBRANCH   3   6
ENDBRANCH   1   3
BRANCH   1  13
HETATM   13  C1  UNL     1      20.896   4.329  50.468  1.00  0.00     0.156 C 
BRANCH  13  14
HETATM   14  S2  UNL     1      19.718   5.425  49.645  1.00  0.00    -0.156 SA
HETATM   15  H3  UNL     1      18.424   4.887  49.795  1.00  0.00     0.103 HD
ENDBRANCH  13  14
BRANCH  13  16
HETATM   16  C2  UNL     1      20.714   2.886  50.094  1.00  0.00     0.075 C 
BRANCH  16  17
HETATM   17  C3  UNL     1      20.961   1.918  51.155  1.00  0.00    -0.055 A 
HETATM   18  C4  UNL     1      21.717   0.772  50.967  1.00  0.00     0.008 A 
HETATM   19  C5  UNL     1      21.971  -0.165  51.953  1.00  0.00     0.019 A 
HETATM   20  C6  UNL     1      21.435   0.054  53.216  1.00  0.00     0.011 A 
HETATM   21 BR1  UNL     1      21.778  -1.229  54.584  1.00  0.00    -0.051 Br
HETATM   22  C7  UNL     1      20.674   1.182  53.458  1.00  0.00     0.019 A 
HETATM   23  C8  UNL     1      20.457   2.081  52.428  1.00  0.00     0.008 A 
ENDBRANCH  16  17
ENDBRANCH  13  16
ENDBRANCH   1  13
TORSDOF 6
ENDMDL
MODEL 6
REMARK VINA RESULT:      -6.1      4.460      6.200
REMARK  6 active torsions:
REMARK  status: ('A' for Active; 'I' for Inactive)
REMARK    1  A    between atoms: S1_2  and  N1_4 
REMARK    2  A    between atoms: S1_2  and  C9_15 
REMARK    3  A    between atoms: N1_4  and  C1_5 
REMARK    4  A    between atoms: C1_5  and  S2_6 
REMARK    5  A    between atoms: C1_5  and  C2_7 
REMARK    6  A    between atoms: C2_7  and  C3_8 
ROOT
HETATM    1  N1  UNL     1      21.791   4.641  50.529  1.00  0.00    -0.301 N 
HETATM    2  H1  UNL     1      21.611   5.117  51.426  1.00  0.00     0.173 HD
ENDROOT
BRANCH   1   3
HETATM    3  S1  UNL     1      20.706   3.399  50.138  1.00  0.00     0.259 S 
HETATM    4  O1  UNL     1      19.272   3.824  50.165  1.00  0.00    -0.201 OA
HETATM    5  O2  UNL     1      21.021   2.916  48.750  1.00  0.00    -0.201 OA
BRANCH   3   6
HETATM    6  C9  UNL     1      20.997   2.047  51.212  1.00  0.00     0.079 A 
HETATM    7  C10 UNL     1      21.617   0.877  50.876  1.00  0.00     0.026 A 
HETATM    8  C11 UNL     1      21.796  -0.129  51.802  1.00  0.00     0.020 A 
HETATM    9  C12 UNL     1      21.365  -0.017  53.110  1.00  0.00     0.011 A 
HETATM   10 BR2  UNL     1      21.585  -1.372  54.433  1.00  0.00    -0.051 Br
HETATM   11  C13 UNL     1      20.725   1.158  53.509  1.00  0.00     0.020 A 
HETATM   12  C14 UNL     1      20.578   2.119  52.546  1.00  0.00     0.026 A 
ENDBRANCH   3   6
ENDBRANCH   1   3
BRANCH   1  13
HETATM   13  C1  UNL     1      23.188   4.347  50.300  1.00  0.00     0.156 C 
BRANCH  13  14
HETATM   14  S2  UNL     1      23.961   5.525  49.169  1.00  0.00    -0.156 SA
HETATM   15  H3  UNL     1      23.337   6.778  49.330  1.00  0.00     0.103 HD
ENDBRANCH  13  14
BRANCH  13  16
HETATM   16  C2  UNL     1      23.866   4.290  51.639  1.00  0.00     0.075 C 
BRANCH  16  17
HETATM   17  C3  UNL     1      24.603   3.065  51.927  1.00  0.00    -0.055 A 
HETATM   18  C4  UNL     1      24.332   2.264  53.024  1.00  0.00     0.008 A 
HETATM   19  C5  UNL     1      25.011   1.097  53.324  1.00  0.00     0.019 A 
HETATM   20  C6  UNL     1      26.033   0.698  52.472  1.00  0.00     0.011 A 
HETATM   21 BR1  UNL     1      26.978  -0.908  52.873  1.00  0.00    -0.051 Br
HETATM   22  C7  UNL     1      26.345   1.461  51.361  1.00  0.00     0.019 A 
HETATM   23  C8  UNL     1      25.626   2.618  51.118  1.00  0.00     0.008 A 
ENDBRANCH  16  17
ENDBRANCH  13  16
ENDBRANCH   1  13
TORSDOF 6
ENDMDL
MODEL 7
REMARK VINA RESULT:      -6.1      4.575      5.683
REMARK  6 active torsions:
REMARK  status: ('A' for Active; 'I' for Inactive)
REMARK    1  A    between atoms: S1_2  and  N1_4 
REMARK    2  A    between atoms: S1_2  and  C9_15 
REMARK    3  A    between atoms: N1_4  and  C1_5 
REMARK    4  A    between atoms: C1_5  and  S2_6 
REMARK    5  A    between atoms: C1_5  and  C2_7 
REMARK    6  A    between atoms: C2_7  and  C3_8 
ROOT
HETATM    1  N1  UNL     1      25.665   6.093  50.378  1.00  0.00    -0.301 N 
HETATM    2  H1  UNL     1      25.700   5.661  51.312  1.00  0.00     0.173 HD
ENDROOT
BRANCH   1   3
HETATM    3  S1  UNL     1      24.268   6.994  50.047  1.00  0.00     0.259 S 
HETATM    4  O1  UNL     1      24.266   8.351  50.677  1.00  0.00    -0.201 OA
HETATM    5  O2  UNL     1      24.161   7.173  48.559  1.00  0.00    -0.201 OA
BRANCH   3   6
HETATM    6  C9  UNL     1      22.872   6.055  50.536  1.00  0.00     0.079 A 
HETATM    7  C10 UNL     1      22.726   5.401  51.726  1.00  0.00     0.026 A 
HETATM    8  C11 UNL     1      21.581   4.687  52.013  1.00  0.00     0.020 A 
HETATM    9  C12 UNL     1      20.527   4.590  51.125  1.00  0.00     0.011 A 
HETATM   10 BR2  UNL     1      18.923   3.618  51.466  1.00  0.00    -0.051 Br
HETATM   11  C13 UNL     1      20.623   5.239  49.893  1.00  0.00     0.020 A 
HETATM   12  C14 UNL     1      21.781   5.931  49.667  1.00  0.00     0.026 A 
ENDBRANCH   3   6
ENDBRANCH   1   3
BRANCH   1  13
HETATM   13  C1  UNL     1      26.110   5.216  49.317  1.00  0.00     0.156 C 
BRANCH  13  14
HETATM   14  S2  UNL     1      27.593   5.834  48.491  1.00  0.00    -0.156 SA
HETATM   15  H3  UNL     1      28.572   6.104  49.469  1.00  0.00     0.103 HD
ENDBRANCH  13  14
BRANCH  13  16
HETATM   16  C2  UNL     1      26.295   3.847  49.907  1.00  0.00     0.075 C 
BRANCH  16  17
HETATM   17  C3  UNL     1      25.076   3.076  50.119  1.00  0.00    -0.055 A 
HETATM   18  C4  UNL     1      24.052   3.018  49.187  1.00  0.00     0.008 A 
HETATM   19  C5  UNL     1      22.884   2.296  49.356  1.00  0.00     0.019 A 
HETATM   20  C6  UNL     1      22.723   1.581  50.536  1.00  0.00     0.011 A 
HETATM   21 BR1  UNL     1      21.118   0.582  50.783  1.00  0.00    -0.051 Br
HETATM   22  C7  UNL     1      23.714   1.605  51.500  1.00  0.00     0.019 A 
HETATM   23  C8  UNL     1      24.859   2.347  51.268  1.00  0.00     0.008 A 
ENDBRANCH  16  17
ENDBRANCH  13  16
ENDBRANCH   1  13
TORSDOF 6
ENDMDL
MODEL 8
REMARK VINA RESULT:      -6.1      3.963      4.657
REMARK  6 active torsions:
REMARK  status: ('A' for Active; 'I' for Inactive)
REMARK    1  A    between atoms: S1_2  and  N1_4 
REMARK    2  A    between atoms: S1_2  and  C9_15 
REMARK    3  A    between atoms: N1_4  and  C1_5 
REMARK    4  A    between atoms: C1_5  and  S2_6 
REMARK    5  A    between atoms: C1_5  and  C2_7 
REMARK    6  A    between atoms: C2_7  and  C3_8 
ROOT
HETATM    1  N1  UNL     1      25.751   3.318  51.413  1.00  0.00    -0.301 N 
HETATM    2  H1  UNL     1      25.946   3.898  52.241  1.00  0.00     0.173 HD
ENDROOT
BRANCH   1   3
HETATM    3  S1  UNL     1      24.943   4.108  50.149  1.00  0.00     0.259 S 
HETATM    4  O1  UNL     1      24.232   3.176  49.218  1.00  0.00    -0.201 OA
HETATM    5  O2  UNL     1      23.923   5.035  50.745  1.00  0.00    -0.201 OA
BRANCH   3   6
HETATM    6  C9  UNL     1      26.094   5.115  49.296  1.00  0.00     0.079 A 
HETATM    7  C10 UNL     1      25.875   6.396  48.872  1.00  0.00     0.026 A 
HETATM    8  C11 UNL     1      26.853   7.104  48.206  1.00  0.00     0.020 A 
HETATM    9  C12 UNL     1      28.098   6.570  47.931  1.00  0.00     0.011 A 
HETATM   10 BR2  UNL     1      29.486   7.501  47.015  1.00  0.00    -0.051 Br
HETATM   11  C13 UNL     1      28.376   5.265  48.342  1.00  0.00     0.020 A 
HETATM   12  C14 UNL     1      27.366   4.615  48.998  1.00  0.00     0.026 A 
ENDBRANCH   3   6
ENDBRANCH   1   3
BRANCH   1  13
HETATM   13  C1  UNL     1      25.264   1.994  51.735  1.00  0.00     0.156 C 
BRANCH  13  14
HETATM   14  S2  UNL     1      26.608   0.823  52.033  1.00  0.00    -0.156 SA
HETATM   15  H3  UNL     1      26.150  -0.170  52.922  1.00  0.00     0.103 HD
ENDBRANCH  13  14
BRANCH  13  16
HETATM   16  C2  UNL     1      24.332   2.125  52.905  1.00  0.00     0.075 C 
BRANCH  16  17
HETATM   17  C3  UNL     1      22.983   1.610  52.703  1.00  0.00    -0.055 A 
HETATM   18  C4  UNL     1      22.644   0.284  52.920  1.00  0.00     0.008 A 
HETATM   19  C5  UNL     1      21.376  -0.236  52.739  1.00  0.00     0.019 A 
HETATM   20  C6  UNL     1      20.372   0.625  52.311  1.00  0.00     0.011 A 
HETATM   21 BR1  UNL     1      18.618  -0.079  52.057  1.00  0.00    -0.051 Br
HETATM   22  C7  UNL     1      20.655   1.958  52.081  1.00  0.00     0.019 A 
HETATM   23  C8  UNL     1      21.946   2.415  52.282  1.00  0.00     0.008 A 
ENDBRANCH  16  17
ENDBRANCH  13  16
ENDBRANCH   1  13
TORSDOF 6
ENDMDL
MODEL 9
REMARK VINA RESULT:      -6.1      3.607      4.903
REMARK  6 active torsions:
REMARK  status: ('A' for Active; 'I' for Inactive)
REMARK    1  A    between atoms: S1_2  and  N1_4 
REMARK    2  A    between atoms: S1_2  and  C9_15 
REMARK    3  A    between atoms: N1_4  and  C1_5 
REMARK    4  A    between atoms: C1_5  and  S2_6 
REMARK    5  A    between atoms: C1_5  and  C2_7 
REMARK    6  A    between atoms: C2_7  and  C3_8 
ROOT
HETATM    1  N1  UNL     1      23.608   1.115  51.794  1.00  0.00    -0.301 N 
HETATM    2  H1  UNL     1      24.078   0.331  51.319  1.00  0.00     0.173 HD
ENDROOT
BRANCH   1   3
HETATM    3  S1  UNL     1      24.333   2.632  51.577  1.00  0.00     0.259 S 
HETATM    4  O1  UNL     1      24.150   3.556  52.740  1.00  0.00    -0.201 OA
HETATM    5  O2  UNL     1      25.807   2.428  51.372  1.00  0.00    -0.201 OA
BRANCH   3   6
HETATM    6  C9  UNL     1      23.718   3.335  50.095  1.00  0.00     0.079 A 
HETATM    7  C10 UNL     1      23.920   4.620  49.675  1.00  0.00     0.026 A 
HETATM    8  C11 UNL     1      23.389   5.074  48.487  1.00  0.00     0.020 A 
HETATM    9  C12 UNL     1      22.630   4.270  47.658  1.00  0.00     0.011 A 
HETATM   10 BR2  UNL     1      21.871   4.844  46.006  1.00  0.00    -0.051 Br
HETATM   11  C13 UNL     1      22.392   2.949  48.038  1.00  0.00     0.020 A 
HETATM   12  C14 UNL     1      22.945   2.556  49.227  1.00  0.00     0.026 A 
ENDBRANCH   3   6
ENDBRANCH   1   3
BRANCH   1  13
HETATM   13  C1  UNL     1      23.193   0.808  53.146  1.00  0.00     0.156 C 
BRANCH  13  14
HETATM   14  S2  UNL     1      21.395   0.752  53.315  1.00  0.00    -0.156 SA
HETATM   15  H3  UNL     1      20.855   0.138  52.167  1.00  0.00     0.103 HD
ENDBRANCH  13  14
BRANCH  13  16
HETATM   16  C2  UNL     1      23.859  -0.478  53.544  1.00  0.00     0.075 C 
BRANCH  16  17
HETATM   17  C3  UNL     1      25.317  -0.455  53.574  1.00  0.00    -0.055 A 
HETATM   18  C4  UNL     1      26.039   0.338  54.450  1.00  0.00     0.008 A 
HETATM   19  C5  UNL     1      27.420   0.382  54.504  1.00  0.00     0.019 A 
HETATM   20  C6  UNL     1      28.134  -0.421  53.623  1.00  0.00     0.011 A 
HETATM   21 BR1  UNL     1      30.040  -0.370  53.686  1.00  0.00    -0.051 Br
HETATM   22  C7  UNL     1      27.463  -1.232  52.728  1.00  0.00     0.019 A 
HETATM   23  C8  UNL     1      26.079  -1.230  52.726  1.00  0.00     0.008 A 
ENDBRANCH  16  17
ENDBRANCH  13  16
ENDBRANCH   1  13
TORSDOF 6
ENDMDL
