MODEL 1
REMARK VINA RESULT:      -8.1      0.000      0.000
REMARK  9 active torsions:
REMARK  status: ('A' for Active; 'I' for Inactive)
REMARK    1  A    between atoms: O1_1  and  C1_2 
REMARK    2  A    between atoms: C2_3  and  C3_4 
REMARK    3  A    between atoms: C3_4  and  C4_5 
REMARK    4  A    between atoms: C4_5  and  C5_6 
REMARK    5  A    between atoms: C5_6  and  C6_7 
REMARK    6  A    between atoms: C6_7  and  C7_8 
REMARK    7  A    between atoms: C11_13  and  C12_14 
REMARK    8  A    between atoms: C12_14  and  C13_15 
REMARK    9  A    between atoms: C13_15  and  C14_16 
ROOT
HETATM    1  C1  UNL     1      25.981   2.956  50.829  1.00  0.00     0.078 A 
HETATM    2  C2  UNL     1      25.837   3.708  49.676  1.00  0.00    -0.024 A 
HETATM    3  C8  UNL     1      24.578   3.702  49.132  1.00  0.00     0.010 A 
HETATM    4  C9  UNL     1      23.520   3.023  49.650  1.00  0.00     0.001 A 
HETATM    5  C10 UNL     1      23.732   2.296  50.796  1.00  0.00     0.010 A 
HETATM    6  C11 UNL     1      24.951   2.226  51.435  1.00  0.00    -0.024 A 
ENDROOT
BRANCH   6   7
HETATM    7  C12 UNL     1      25.283   1.479  52.669  1.00  0.00     0.043 C 
BRANCH   7   8
HETATM    8  C13 UNL     1      25.889   0.138  52.394  1.00  0.00     0.032 C 
BRANCH   8   9
HETATM    9  C14 UNL     1      26.314  -0.623  53.632  1.00  0.00     0.111 C 
HETATM   10  C15 UNL     1      27.020   0.246  54.606  1.00  0.00     0.054 C 
HETATM   11  C16 UNL     1      28.310   0.810  54.232  1.00  0.00    -0.025 C 
HETATM   12  C17 UNL     1      29.518   0.435  53.825  1.00  0.00    -0.004 C 
HETATM   13  C18 UNL     1      30.002  -0.940  53.585  1.00  0.00     0.001 C 
HETATM   14  C19 UNL     1      29.429  -2.100  53.282  1.00  0.00     0.019 C 
HETATM   15  C20 UNL     1      28.026  -2.454  53.065  1.00  0.00     0.111 C 
HETATM   16  N1  UNL     1      26.905  -1.836  53.223  1.00  0.00    -0.296 NA
ENDBRANCH   8   9
ENDBRANCH   7   8
ENDBRANCH   6   7
BRANCH   1  17
HETATM   17  O1  UNL     1      27.254   2.933  51.422  1.00  0.00    -0.360 OA
HETATM   18  H1  UNL     1      27.798   2.082  51.490  1.00  0.00     0.217 HD
ENDBRANCH   1  17
BRANCH   2  19
HETATM   19  C3  UNL     1      27.028   4.438  49.135  1.00  0.00     0.041 C 
BRANCH  19  20
HETATM   20  C4  UNL     1      26.623   5.827  48.734  1.00  0.00     0.005 C 
BRANCH  20  21
HETATM   21  C5  UNL     1      27.757   6.670  48.222  1.00  0.00     0.005 C 
BRANCH  21  22
HETATM   22  C6  UNL     1      29.034   5.867  48.205  1.00  0.00     0.038 C 
BRANCH  22  23
HETATM   23  C7  UNL     1      30.179   6.761  47.859  1.00  0.00     0.054 C 
HETATM   24  S1  UNL     1      30.869   7.655  48.727  1.00  0.00    -0.097 SA
ENDBRANCH  22  23
ENDBRANCH  21  22
ENDBRANCH  20  21
ENDBRANCH  19  20
ENDBRANCH   2  19
TORSDOF 9
ENDMDL
MODEL 2
REMARK VINA RESULT:      -7.7      2.152      2.672
REMARK  9 active torsions:
REMARK  status: ('A' for Active; 'I' for Inactive)
REMARK    1  A    between atoms: O1_1  and  C1_2 
REMARK    2  A    between atoms: C2_3  and  C3_4 
REMARK    3  A    between atoms: C3_4  and  C4_5 
REMARK    4  A    between atoms: C4_5  and  C5_6 
REMARK    5  A    between atoms: C5_6  and  C6_7 
REMARK    6  A    between atoms: C6_7  and  C7_8 
REMARK    7  A    between atoms: C11_13  and  C12_14 
REMARK    8  A    between atoms: C12_14  and  C13_15 
REMARK    9  A    between atoms: C13_15  and  C14_16 
ROOT
HETATM    1  C1  UNL     1      25.921   3.150  50.738  1.00  0.00     0.078 A 
HETATM    2  C2  UNL     1      25.685   3.898  49.596  1.00  0.00    -0.024 A 
HETATM    3  C8  UNL     1      24.416   3.794  49.087  1.00  0.00     0.010 A 
HETATM    4  C9  UNL     1      23.431   3.026  49.626  1.00  0.00     0.001 A 
HETATM    5  C10 UNL     1      23.732   2.310  50.758  1.00  0.00     0.010 A 
HETATM    6  C11 UNL     1      24.970   2.334  51.363  1.00  0.00    -0.024 A 
ENDROOT
BRANCH   6   7
HETATM    7  C12 UNL     1      25.396   1.606  52.580  1.00  0.00     0.043 C 
BRANCH   7   8
HETATM    8  C13 UNL     1      25.944   0.245  52.284  1.00  0.00     0.032 C 
BRANCH   8   9
HETATM    9  C14 UNL     1      26.282  -0.574  53.512  1.00  0.00     0.111 C 
HETATM   10  C15 UNL     1      26.976   0.232  54.546  1.00  0.00     0.054 C 
HETATM   11  C16 UNL     1      28.303   0.756  54.250  1.00  0.00    -0.025 C 
HETATM   12  C17 UNL     1      29.512   0.346  53.883  1.00  0.00    -0.004 C 
HETATM   13  C18 UNL     1      29.954  -1.038  53.615  1.00  0.00     0.001 C 
HETATM   14  C19 UNL     1      29.350  -2.163  53.246  1.00  0.00     0.019 C 
HETATM   15  C20 UNL     1      27.946  -2.452  52.955  1.00  0.00     0.111 C 
HETATM   16  N1  UNL     1      26.844  -1.795  53.086  1.00  0.00    -0.296 NA
ENDBRANCH   8   9
ENDBRANCH   7   8
ENDBRANCH   6   7
BRANCH   1  17
HETATM   17  O1  UNL     1      27.208   3.226  51.296  1.00  0.00    -0.360 OA
HETATM   18  H1  UNL     1      27.976   3.675  50.812  1.00  0.00     0.217 HD
ENDBRANCH   1  17
BRANCH   2  19
HETATM   19  C3  UNL     1      26.797   4.726  49.032  1.00  0.00     0.041 C 
BRANCH  19  20
HETATM   20  C4  UNL     1      26.297   6.117  48.762  1.00  0.00     0.005 C 
BRANCH  20  21
HETATM   21  C5  UNL     1      25.821   6.842  49.989  1.00  0.00     0.005 C 
BRANCH  21  22
HETATM   22  C6  UNL     1      24.526   7.558  49.699  1.00  0.00     0.038 C 
BRANCH  22  23
HETATM   23  C7  UNL     1      23.563   7.318  50.815  1.00  0.00     0.054 C 
HETATM   24  S1  UNL     1      22.315   6.635  50.746  1.00  0.00    -0.097 SA
ENDBRANCH  22  23
ENDBRANCH  21  22
ENDBRANCH  20  21
ENDBRANCH  19  20
ENDBRANCH   2  19
TORSDOF 9
ENDMDL
MODEL 3
REMARK VINA RESULT:      -7.6      4.057      5.065
REMARK  9 active torsions:
REMARK  status: ('A' for Active; 'I' for Inactive)
REMARK    1  A    between atoms: O1_1  and  C1_2 
REMARK    2  A    between atoms: C2_3  and  C3_4 
REMARK    3  A    between atoms: C3_4  and  C4_5 
REMARK    4  A    between atoms: C4_5  and  C5_6 
REMARK    5  A    between atoms: C5_6  and  C6_7 
REMARK    6  A    between atoms: C6_7  and  C7_8 
REMARK    7  A    between atoms: C11_13  and  C12_14 
REMARK    8  A    between atoms: C12_14  and  C13_15 
REMARK    9  A    between atoms: C13_15  and  C14_16 
ROOT
HETATM    1  C1  UNL     1      22.719   2.309  51.670  1.00  0.00     0.078 A 
HETATM    2  C2  UNL     1      21.742   1.532  51.070  1.00  0.00    -0.024 A 
HETATM    3  C8  UNL     1      21.592   0.276  51.601  1.00  0.00     0.010 A 
HETATM    4  C9  UNL     1      22.324  -0.213  52.638  1.00  0.00     0.001 A 
HETATM    5  C10 UNL     1      23.276   0.611  53.187  1.00  0.00     0.010 A 
HETATM    6  C11 UNL     1      23.519   1.891  52.740  1.00  0.00    -0.024 A 
ENDROOT
BRANCH   6   7
HETATM    7  C12 UNL     1      24.513   2.857  53.261  1.00  0.00     0.043 C 
BRANCH   7   8
HETATM    8  C13 UNL     1      25.727   2.193  53.833  1.00  0.00     0.032 C 
BRANCH   8   9
HETATM    9  C14 UNL     1      26.925   2.174  52.908  1.00  0.00     0.111 C 
HETATM   10  C15 UNL     1      26.760   1.201  51.801  1.00  0.00     0.054 C 
HETATM   11  C16 UNL     1      26.698  -0.219  52.123  1.00  0.00    -0.025 C 
HETATM   12  C17 UNL     1      27.400  -1.167  52.734  1.00  0.00    -0.004 C 
HETATM   13  C18 UNL     1      28.712  -1.031  53.399  1.00  0.00     0.001 C 
HETATM   14  C19 UNL     1      29.382  -0.031  53.961  1.00  0.00     0.019 C 
HETATM   15  C20 UNL     1      29.041   1.381  54.133  1.00  0.00     0.111 C 
HETATM   16  N1  UNL     1      28.092   2.139  53.699  1.00  0.00    -0.296 NA
ENDBRANCH   8   9
ENDBRANCH   7   8
ENDBRANCH   6   7
BRANCH   1  17
HETATM   17  O1  UNL     1      22.908   3.603  51.158  1.00  0.00    -0.360 OA
HETATM   18  H1  UNL     1      23.831   3.990  51.007  1.00  0.00     0.217 HD
ENDBRANCH   1  17
BRANCH   2  19
HETATM   19  C3  UNL     1      20.961   2.105  49.928  1.00  0.00     0.041 C 
BRANCH  19  20
HETATM   20  C4  UNL     1      21.288   1.353  48.670  1.00  0.00     0.005 C 
BRANCH  20  21
HETATM   21  C5  UNL     1      22.419   1.948  47.880  1.00  0.00     0.005 C 
BRANCH  21  22
HETATM   22  C6  UNL     1      22.292   3.450  47.842  1.00  0.00     0.038 C 
BRANCH  22  23
HETATM   23  C7  UNL     1      21.381   3.845  46.726  1.00  0.00     0.054 C 
HETATM   24  S1  UNL     1      21.675   3.850  45.332  1.00  0.00    -0.097 SA
ENDBRANCH  22  23
ENDBRANCH  21  22
ENDBRANCH  20  21
ENDBRANCH  19  20
ENDBRANCH   2  19
TORSDOF 9
ENDMDL
MODEL 4
REMARK VINA RESULT:      -7.5      5.684      8.243
REMARK  9 active torsions:
REMARK  status: ('A' for Active; 'I' for Inactive)
REMARK    1  A    between atoms: O1_1  and  C1_2 
REMARK    2  A    between atoms: C2_3  and  C3_4 
REMARK    3  A    between atoms: C3_4  and  C4_5 
REMARK    4  A    between atoms: C4_5  and  C5_6 
REMARK    5  A    between atoms: C5_6  and  C6_7 
REMARK    6  A    between atoms: C6_7  and  C7_8 
REMARK    7  A    between atoms: C11_13  and  C12_14 
REMARK    8  A    between atoms: C12_14  and  C13_15 
REMARK    9  A    between atoms: C13_15  and  C14_16 
ROOT
HETATM    1  C1  UNL     1      21.667   0.627  52.849  1.00  0.00     0.078 A 
HETATM    2  C2  UNL     1      20.749  -0.318  53.274  1.00  0.00    -0.024 A 
HETATM    3  C8  UNL     1      21.253  -1.280  54.112  1.00  0.00     0.010 A 
HETATM    4  C9  UNL     1      22.549  -1.342  54.522  1.00  0.00     0.001 A 
HETATM    5  C10 UNL     1      23.406  -0.372  54.063  1.00  0.00     0.010 A 
HETATM    6  C11 UNL     1      23.018   0.645  53.219  1.00  0.00    -0.024 A 
ENDROOT
BRANCH   6   7
HETATM    7  C12 UNL     1      23.857   1.735  52.671  1.00  0.00     0.043 C 
BRANCH   7   8
HETATM    8  C13 UNL     1      25.189   1.840  53.345  1.00  0.00     0.032 C 
BRANCH   8   9
HETATM    9  C14 UNL     1      26.370   1.858  52.397  1.00  0.00     0.111 C 
HETATM   10  C15 UNL     1      26.468   0.608  51.605  1.00  0.00     0.054 C 
HETATM   11  C16 UNL     1      26.754  -0.639  52.300  1.00  0.00    -0.025 C 
HETATM   12  C17 UNL     1      27.659  -1.184  53.107  1.00  0.00    -0.004 C 
HETATM   13  C18 UNL     1      28.885  -0.557  53.640  1.00  0.00     0.001 C 
HETATM   14  C19 UNL     1      29.279   0.691  53.875  1.00  0.00     0.019 C 
HETATM   15  C20 UNL     1      28.596   1.970  53.677  1.00  0.00     0.111 C 
HETATM   16  N1  UNL     1      27.496   2.326  53.105  1.00  0.00    -0.296 NA
ENDBRANCH   8   9
ENDBRANCH   7   8
ENDBRANCH   6   7
BRANCH   1  17
HETATM   17  O1  UNL     1      21.196   1.633  51.989  1.00  0.00    -0.360 OA
HETATM   18  H1  UNL     1      21.382   1.617  50.994  1.00  0.00     0.217 HD
ENDBRANCH   1  17
BRANCH   2  19
HETATM   19  C3  UNL     1      19.333  -0.218  52.797  1.00  0.00     0.041 C 
BRANCH  19  20
HETATM   20  C4  UNL     1      18.535  -1.359  53.358  1.00  0.00     0.005 C 
BRANCH  20  21
HETATM   21  C5  UNL     1      17.131  -1.439  52.829  1.00  0.00     0.005 C 
BRANCH  21  22
HETATM   22  C6  UNL     1      16.982  -0.559  51.614  1.00  0.00     0.038 C 
BRANCH  22  23
HETATM   23  C7  UNL     1      15.615   0.042  51.599  1.00  0.00     0.054 C 
HETATM   24  S1  UNL     1      14.891   0.569  52.707  1.00  0.00    -0.097 SA
ENDBRANCH  22  23
ENDBRANCH  21  22
ENDBRANCH  20  21
ENDBRANCH  19  20
ENDBRANCH   2  19
TORSDOF 9
ENDMDL
MODEL 5
REMARK VINA RESULT:      -7.5      4.770      6.535
REMARK  9 active torsions:
REMARK  status: ('A' for Active; 'I' for Inactive)
REMARK    1  A    between atoms: O1_1  and  C1_2 
REMARK    2  A    between atoms: C2_3  and  C3_4 
REMARK    3  A    between atoms: C3_4  and  C4_5 
REMARK    4  A    between atoms: C4_5  and  C5_6 
REMARK    5  A    between atoms: C5_6  and  C6_7 
REMARK    6  A    between atoms: C6_7  and  C7_8 
REMARK    7  A    between atoms: C11_13  and  C12_14 
REMARK    8  A    between atoms: C12_14  and  C13_15 
REMARK    9  A    between atoms: C13_15  and  C14_16 
ROOT
HETATM    1  C1  UNL     1      22.980   1.839  51.492  1.00  0.00     0.078 A 
HETATM    2  C2  UNL     1      22.074   0.944  50.948  1.00  0.00    -0.024 A 
HETATM    3  C8  UNL     1      21.773  -0.133  51.742  1.00  0.00     0.010 A 
HETATM    4  C9  UNL     1      22.301  -0.349  52.977  1.00  0.00     0.001 A 
HETATM    5  C10 UNL     1      23.194   0.577  53.457  1.00  0.00     0.010 A 
HETATM    6  C11 UNL     1      23.574   1.700  52.753  1.00  0.00    -0.024 A 
ENDROOT
BRANCH   6   7
HETATM    7  C12 UNL     1      24.521   2.756  53.177  1.00  0.00     0.043 C 
BRANCH   7   8
HETATM    8  C13 UNL     1      25.755   2.208  53.822  1.00  0.00     0.032 C 
BRANCH   8   9
HETATM    9  C14 UNL     1      26.967   2.161  52.916  1.00  0.00     0.111 C 
HETATM   10  C15 UNL     1      26.793   1.199  51.800  1.00  0.00     0.054 C 
HETATM   11  C16 UNL     1      26.687  -0.220  52.111  1.00  0.00    -0.025 C 
HETATM   12  C17 UNL     1      27.354  -1.190  52.727  1.00  0.00    -0.004 C 
HETATM   13  C18 UNL     1      28.658  -1.094  53.414  1.00  0.00     0.001 C 
HETATM   14  C19 UNL     1      29.347  -0.116  53.993  1.00  0.00     0.019 C 
HETATM   15  C20 UNL     1      29.041   1.304  54.169  1.00  0.00     0.111 C 
HETATM   16  N1  UNL     1      28.120   2.090  53.724  1.00  0.00    -0.296 NA
ENDBRANCH   8   9
ENDBRANCH   7   8
ENDBRANCH   6   7
BRANCH   1  17
HETATM   17  O1  UNL     1      23.317   2.958  50.714  1.00  0.00    -0.360 OA
HETATM   18  H1  UNL     1      23.331   3.895  51.099  1.00  0.00     0.217 HD
ENDBRANCH   1  17
BRANCH   2  19
HETATM   19  C3  UNL     1      21.518   1.217  49.584  1.00  0.00     0.041 C 
BRANCH  19  20
HETATM   20  C4  UNL     1      20.019   1.140  49.630  1.00  0.00     0.005 C 
BRANCH  20  21
HETATM   21  C5  UNL     1      19.371   2.308  50.319  1.00  0.00     0.005 C 
BRANCH  21  22
HETATM   22  C6  UNL     1      18.628   1.841  51.546  1.00  0.00     0.038 C 
BRANCH  22  23
HETATM   23  C7  UNL     1      18.089   0.468  51.310  1.00  0.00     0.054 C 
HETATM   24  S1  UNL     1      17.947  -0.579  52.265  1.00  0.00    -0.097 SA
ENDBRANCH  22  23
ENDBRANCH  21  22
ENDBRANCH  20  21
ENDBRANCH  19  20
ENDBRANCH   2  19
TORSDOF 9
ENDMDL
MODEL 6
REMARK VINA RESULT:      -7.5      3.990      5.501
REMARK  9 active torsions:
REMARK  status: ('A' for Active; 'I' for Inactive)
REMARK    1  A    between atoms: O1_1  and  C1_2 
REMARK    2  A    between atoms: C2_3  and  C3_4 
REMARK    3  A    between atoms: C3_4  and  C4_5 
REMARK    4  A    between atoms: C4_5  and  C5_6 
REMARK    5  A    between atoms: C5_6  and  C6_7 
REMARK    6  A    between atoms: C6_7  and  C7_8 
REMARK    7  A    between atoms: C11_13  and  C12_14 
REMARK    8  A    between atoms: C12_14  and  C13_15 
REMARK    9  A    between atoms: C13_15  and  C14_16 
ROOT
HETATM    1  C1  UNL     1      22.326   1.836  52.507  1.00  0.00     0.078 A 
HETATM    2  C2  UNL     1      21.283   0.946  52.320  1.00  0.00    -0.024 A 
HETATM    3  C8  UNL     1      21.527  -0.334  52.750  1.00  0.00     0.010 A 
HETATM    4  C9  UNL     1      22.691  -0.744  53.322  1.00  0.00     0.001 A 
HETATM    5  C10 UNL     1      23.685   0.191  53.478  1.00  0.00     0.010 A 
HETATM    6  C11 UNL     1      23.558   1.506  53.086  1.00  0.00    -0.024 A 
ENDROOT
BRANCH   6   7
HETATM    7  C12 UNL     1      24.561   2.588  53.211  1.00  0.00     0.043 C 
BRANCH   7   8
HETATM    8  C13 UNL     1      25.827   2.136  53.869  1.00  0.00     0.032 C 
BRANCH   8   9
HETATM    9  C14 UNL     1      27.040   2.140  52.962  1.00  0.00     0.111 C 
HETATM   10  C15 UNL     1      26.900   1.178  51.841  1.00  0.00     0.054 C 
HETATM   11  C16 UNL     1      26.847  -0.246  52.144  1.00  0.00    -0.025 C 
HETATM   12  C17 UNL     1      27.549  -1.194  52.755  1.00  0.00    -0.004 C 
HETATM   13  C18 UNL     1      28.850  -1.054  53.441  1.00  0.00     0.001 C 
HETATM   14  C19 UNL     1      29.502  -0.054  54.025  1.00  0.00     0.019 C 
HETATM   15  C20 UNL     1      29.144   1.353  54.209  1.00  0.00     0.111 C 
HETATM   16  N1  UNL     1      28.194   2.107  53.770  1.00  0.00    -0.296 NA
ENDBRANCH   8   9
ENDBRANCH   7   8
ENDBRANCH   6   7
BRANCH   1  17
HETATM   17  O1  UNL     1      22.120   3.159  52.082  1.00  0.00    -0.360 OA
HETATM   18  H1  UNL     1      21.849   3.380  51.132  1.00  0.00     0.217 HD
ENDBRANCH   1  17
BRANCH   2  19
HETATM   19  C3  UNL     1      20.019   1.436  51.683  1.00  0.00     0.041 C 
BRANCH  19  20
HETATM   20  C4  UNL     1      19.915   0.884  50.290  1.00  0.00     0.005 C 
BRANCH  20  21
HETATM   21  C5  UNL     1      21.211   0.899  49.530  1.00  0.00     0.005 C 
BRANCH  21  22
HETATM   22  C6  UNL     1      21.095   1.791  48.320  1.00  0.00     0.038 C 
BRANCH  22  23
HETATM   23  C7  UNL     1      22.442   2.327  47.965  1.00  0.00     0.054 C 
HETATM   24  S1  UNL     1      23.245   3.221  48.730  1.00  0.00    -0.097 SA
ENDBRANCH  22  23
ENDBRANCH  21  22
ENDBRANCH  20  21
ENDBRANCH  19  20
ENDBRANCH   2  19
TORSDOF 9
ENDMDL
MODEL 7
REMARK VINA RESULT:      -7.2      4.290      5.373
REMARK  9 active torsions:
REMARK  status: ('A' for Active; 'I' for Inactive)
REMARK    1  A    between atoms: O1_1  and  C1_2 
REMARK    2  A    between atoms: C2_3  and  C3_4 
REMARK    3  A    between atoms: C3_4  and  C4_5 
REMARK    4  A    between atoms: C4_5  and  C5_6 
REMARK    5  A    between atoms: C5_6  and  C6_7 
REMARK    6  A    between atoms: C6_7  and  C7_8 
REMARK    7  A    between atoms: C11_13  and  C12_14 
REMARK    8  A    between atoms: C12_14  and  C13_15 
REMARK    9  A    between atoms: C13_15  and  C14_16 
ROOT
HETATM    1  C1  UNL     1      22.588   0.972  51.690  1.00  0.00     0.078 A 
HETATM    2  C2  UNL     1      21.263   0.579  51.608  1.00  0.00    -0.024 A 
HETATM    3  C8  UNL     1      20.812  -0.165  52.668  1.00  0.00     0.010 A 
HETATM    4  C9  UNL     1      21.572  -0.515  53.741  1.00  0.00     0.001 A 
HETATM    5  C10 UNL     1      22.878  -0.092  53.758  1.00  0.00     0.010 A 
HETATM    6  C11 UNL     1      23.445   0.661  52.753  1.00  0.00    -0.024 A 
ENDROOT
BRANCH   6   7
HETATM    7  C12 UNL     1      24.834   1.168  52.676  1.00  0.00     0.043 C 
BRANCH   7   8
HETATM    8  C13 UNL     1      25.831   0.094  52.371  1.00  0.00     0.032 C 
BRANCH   8   9
HETATM    9  C14 UNL     1      26.244  -0.736  53.568  1.00  0.00     0.111 C 
HETATM   10  C15 UNL     1      26.886   0.086  54.623  1.00  0.00     0.054 C 
HETATM   11  C16 UNL     1      28.166   0.718  54.333  1.00  0.00    -0.025 C 
HETATM   12  C17 UNL     1      29.399   0.413  53.942  1.00  0.00    -0.004 C 
HETATM   13  C18 UNL     1      29.940  -0.924  53.626  1.00  0.00     0.001 C 
HETATM   14  C19 UNL     1      29.419  -2.079  53.225  1.00  0.00     0.019 C 
HETATM   15  C20 UNL     1      28.037  -2.464  52.936  1.00  0.00     0.111 C 
HETATM   16  N1  UNL     1      26.890  -1.897  53.098  1.00  0.00    -0.296 NA
ENDBRANCH   8   9
ENDBRANCH   7   8
ENDBRANCH   6   7
BRANCH   1  17
HETATM   17  O1  UNL     1      23.094   1.737  50.626  1.00  0.00    -0.360 OA
HETATM   18  H1  UNL     1      22.754   2.670  50.428  1.00  0.00     0.217 HD
ENDBRANCH   1  17
BRANCH   2  19
HETATM   19  C3  UNL     1      20.461   0.982  50.409  1.00  0.00     0.041 C 
BRANCH  19  20
HETATM   20  C4  UNL     1      19.339   1.883  50.838  1.00  0.00     0.005 C 
BRANCH  20  21
HETATM   21  C5  UNL     1      19.784   3.062  51.657  1.00  0.00     0.005 C 
BRANCH  21  22
HETATM   22  C6  UNL     1      19.985   4.265  50.771  1.00  0.00     0.038 C 
BRANCH  22  23
HETATM   23  C7  UNL     1      21.354   4.820  50.987  1.00  0.00     0.054 C 
HETATM   24  S1  UNL     1      22.137   4.749  52.176  1.00  0.00    -0.097 SA
ENDBRANCH  22  23
ENDBRANCH  21  22
ENDBRANCH  20  21
ENDBRANCH  19  20
ENDBRANCH   2  19
TORSDOF 9
ENDMDL
MODEL 8
REMARK VINA RESULT:      -7.2      3.362      6.668
REMARK  9 active torsions:
REMARK  status: ('A' for Active; 'I' for Inactive)
REMARK    1  A    between atoms: O1_1  and  C1_2 
REMARK    2  A    between atoms: C2_3  and  C3_4 
REMARK    3  A    between atoms: C3_4  and  C4_5 
REMARK    4  A    between atoms: C4_5  and  C5_6 
REMARK    5  A    between atoms: C5_6  and  C6_7 
REMARK    6  A    between atoms: C6_7  and  C7_8 
REMARK    7  A    between atoms: C11_13  and  C12_14 
REMARK    8  A    between atoms: C12_14  and  C13_15 
REMARK    9  A    between atoms: C13_15  and  C14_16 
ROOT
HETATM    1  C1  UNL     1      23.585   2.656  52.688  1.00  0.00     0.078 A 
HETATM    2  C2  UNL     1      23.673   1.276  52.755  1.00  0.00    -0.024 A 
HETATM    3  C8  UNL     1      22.684   0.598  52.090  1.00  0.00     0.010 A 
HETATM    4  C9  UNL     1      21.672   1.192  51.403  1.00  0.00     0.001 A 
HETATM    5  C10 UNL     1      21.644   2.565  51.376  1.00  0.00     0.010 A 
HETATM    6  C11 UNL     1      22.581   3.355  52.005  1.00  0.00    -0.024 A 
ENDROOT
BRANCH   6   7
HETATM    7  C12 UNL     1      22.644   4.834  52.035  1.00  0.00     0.043 C 
BRANCH   7   8
HETATM    8  C13 UNL     1      23.877   5.379  51.385  1.00  0.00     0.032 C 
BRANCH   8   9
HETATM    9  C14 UNL     1      23.863   5.328  49.872  1.00  0.00     0.111 C 
HETATM   10  C15 UNL     1      24.215   3.982  49.357  1.00  0.00     0.054 C 
HETATM   11  C16 UNL     1      25.562   3.476  49.589  1.00  0.00    -0.025 C 
HETATM   12  C17 UNL     1      26.833   3.796  49.372  1.00  0.00    -0.004 C 
HETATM   13  C18 UNL     1      27.357   5.000  48.695  1.00  0.00     0.001 C 
HETATM   14  C19 UNL     1      26.906   6.231  48.482  1.00  0.00     0.019 C 
HETATM   15  C20 UNL     1      25.650   6.876  48.866  1.00  0.00     0.111 C 
HETATM   16  N1  UNL     1      24.545   6.462  49.386  1.00  0.00    -0.296 NA
ENDBRANCH   8   9
ENDBRANCH   7   8
ENDBRANCH   6   7
BRANCH   1  17
HETATM   17  O1  UNL     1      24.577   3.392  53.354  1.00  0.00    -0.360 OA
HETATM   18  H1  UNL     1      24.497   3.636  54.334  1.00  0.00     0.217 HD
ENDBRANCH   1  17
BRANCH   2  19
HETATM   19  C3  UNL     1      24.800   0.660  53.525  1.00  0.00     0.041 C 
BRANCH  19  20
HETATM   20  C4  UNL     1      25.699  -0.088  52.582  1.00  0.00     0.005 C 
BRANCH  20  21
HETATM   21  C5  UNL     1      26.730   0.774  51.910  1.00  0.00     0.005 C 
BRANCH  21  22
HETATM   22  C6  UNL     1      27.424   1.645  52.928  1.00  0.00     0.038 C 
BRANCH  22  23
HETATM   23  C7  UNL     1      28.653   0.954  53.419  1.00  0.00     0.054 C 
HETATM   24  S1  UNL     1      28.790   0.170  54.600  1.00  0.00    -0.097 SA
ENDBRANCH  22  23
ENDBRANCH  21  22
ENDBRANCH  20  21
ENDBRANCH  19  20
ENDBRANCH   2  19
TORSDOF 9
ENDMDL
MODEL 9
REMARK VINA RESULT:      -7.1      3.713      4.570
REMARK  9 active torsions:
REMARK  status: ('A' for Active; 'I' for Inactive)
REMARK    1  A    between atoms: O1_1  and  C1_2 
REMARK    2  A    between atoms: C2_3  and  C3_4 
REMARK    3  A    between atoms: C3_4  and  C4_5 
REMARK    4  A    between atoms: C4_5  and  C5_6 
REMARK    5  A    between atoms: C5_6  and  C6_7 
REMARK    6  A    between atoms: C6_7  and  C7_8 
REMARK    7  A    between atoms: C11_13  and  C12_14 
REMARK    8  A    between atoms: C12_14  and  C13_15 
REMARK    9  A    between atoms: C13_15  and  C14_16 
ROOT
HETATM    1  C1  UNL     1      23.198   1.797  50.687  1.00  0.00     0.078 A 
HETATM    2  C2  UNL     1      22.317   1.728  49.621  1.00  0.00    -0.024 A 
HETATM    3  C8  UNL     1      21.211   0.944  49.832  1.00  0.00     0.010 A 
HETATM    4  C9  UNL     1      20.957   0.265  50.983  1.00  0.00     0.001 A 
HETATM    5  C10 UNL     1      21.873   0.377  52.000  1.00  0.00     0.010 A 
HETATM    6  C11 UNL     1      23.020   1.135  51.908  1.00  0.00    -0.024 A 
ENDROOT
BRANCH   6   7
HETATM    7  C12 UNL     1      24.064   1.323  52.940  1.00  0.00     0.043 C 
BRANCH   7   8
HETATM    8  C13 UNL     1      24.981   0.147  53.065  1.00  0.00     0.032 C 
BRANCH   8   9
HETATM    9  C14 UNL     1      26.212   0.216  52.186  1.00  0.00     0.111 C 
HETATM   10  C15 UNL     1      27.192  -0.848  52.514  1.00  0.00     0.054 C 
HETATM   11  C16 UNL     1      27.842  -0.822  53.817  1.00  0.00    -0.025 C 
HETATM   12  C17 UNL     1      28.583  -0.027  54.582  1.00  0.00    -0.004 C 
HETATM   13  C18 UNL     1      29.059   1.337  54.270  1.00  0.00     0.001 C 
HETATM   14  C19 UNL     1      28.649   2.317  53.472  1.00  0.00     0.019 C 
HETATM   15  C20 UNL     1      27.508   2.403  52.560  1.00  0.00     0.111 C 
HETATM   16  N1  UNL     1      26.636   1.560  52.125  1.00  0.00    -0.296 NA
ENDBRANCH   8   9
ENDBRANCH   7   8
ENDBRANCH   6   7
BRANCH   1  17
HETATM   17  O1  UNL     1      24.345   2.589  50.516  1.00  0.00    -0.360 OA
HETATM   18  H1  UNL     1      24.291   3.594  50.402  1.00  0.00     0.217 HD
ENDBRANCH   1  17
BRANCH   2  19
HETATM   19  C3  UNL     1      22.634   2.487  48.370  1.00  0.00     0.041 C 
BRANCH  19  20
HETATM   20  C4  UNL     1      21.719   3.673  48.258  1.00  0.00     0.005 C 
BRANCH  20  21
HETATM   21  C5  UNL     1      22.350   4.972  48.671  1.00  0.00     0.005 C 
BRANCH  21  22
HETATM   22  C6  UNL     1      21.419   5.739  49.575  1.00  0.00     0.038 C 
BRANCH  22  23
HETATM   23  C7  UNL     1      22.053   5.906  50.917  1.00  0.00     0.054 C 
HETATM   24  S1  UNL     1      22.035   4.983  52.002  1.00  0.00    -0.097 SA
ENDBRANCH  22  23
ENDBRANCH  21  22
ENDBRANCH  20  21
ENDBRANCH  19  20
ENDBRANCH   2  19
TORSDOF 9
ENDMDL
