MODEL 1
REMARK VINA RESULT:      -7.2      0.000      0.000
REMARK  7 active torsions:
REMARK  status: ('A' for Active; 'I' for Inactive)
REMARK    1  A    between atoms: C2_2  and  C3_3 
REMARK    2  A    between atoms: C2_2  and  C7_9 
REMARK    3  A    between atoms: C3_3  and  N1_4 
REMARK    4  A    between atoms: N1_4  and  C5_6 
REMARK       I    between atoms: C7_9  and  N3_11 
REMARK    5  A    between atoms: N3_11  and  C8_12 
REMARK    6  A    between atoms: C16_21  and  O2_22 
REMARK    7  A    between atoms: O2_22  and  C17_23 
ROOT
HETATM    1  C5  UNL     1      22.702   4.348  48.259  1.00  0.00     0.395 C 
HETATM    2  C6  UNL     1      22.484   2.912  48.097  1.00  0.00     0.089 C 
HETATM    3  N2  UNL     1      22.295   1.764  47.953  1.00  0.00    -0.195 NA
ENDROOT
BRANCH   1   4
HETATM    4  N1  UNL     1      23.259   4.543  49.591  1.00  0.00     0.101 N 
HETATM    5  C4  UNL     1      22.324   5.432  50.335  1.00  0.00     0.311 C 
BRANCH   4   6
HETATM    6  C3  UNL     1      24.488   5.306  49.549  1.00  0.00     0.316 C 
BRANCH   6   7
HETATM    7  C2  UNL     1      25.707   4.517  49.668  1.00  0.00     0.029 C 
HETATM    8  C1  UNL     1      26.802   4.683  48.960  1.00  0.00     0.026 C 
BRANCH   7   9
HETATM    9  C7  UNL     1      25.967   3.410  50.568  1.00  0.00     0.253 C 
HETATM   10  O1  UNL     1      26.639   2.801  49.693  1.00  0.00    -0.268 OA
HETATM   11  N3  UNL     1      25.602   3.141  51.900  1.00  0.00    -0.321 N 
HETATM   12  H10 UNL     1      25.045   3.972  52.160  1.00  0.00     0.169 HD
BRANCH  11  13
HETATM   13  C8  UNL     1      26.160   1.880  52.253  1.00  0.00     0.069 A 
HETATM   14  C9  UNL     1      27.476   1.905  52.595  1.00  0.00     0.046 A 
HETATM   15  C10 UNL     1      28.109   0.745  52.952  1.00  0.00    -0.005 A 
HETATM   16  C11 UNL     1      29.443   0.724  53.306  1.00  0.00     0.015 A 
HETATM   17  C14 UNL     1      27.363  -0.415  52.947  1.00  0.00     0.069 A 
HETATM   18  C12 UNL     1      30.023  -0.485  53.658  1.00  0.00     0.020 A 
HETATM   19  C13 UNL     1      29.227  -1.632  53.637  1.00  0.00     0.117 A 
HETATM   20  N4  UNL     1      27.928  -1.579  53.287  1.00  0.00    -0.260 NA
HETATM   21  C15 UNL     1      26.027  -0.447  52.601  1.00  0.00     0.071 A 
HETATM   22  C16 UNL     1      25.382   0.716  52.240  1.00  0.00     0.097 A 
BRANCH  22  23
HETATM   23  O2  UNL     1      24.064   0.916  51.861  1.00  0.00    -0.349 OA
BRANCH  23  24
HETATM   24  C17 UNL     1      22.947   0.901  52.687  1.00  0.00     0.171 C 
HETATM   25  C18 UNL     1      22.377  -0.493  52.867  1.00  0.00     0.034 C 
ENDBRANCH  23  24
ENDBRANCH  22  23
ENDBRANCH  11  13
ENDBRANCH   7   9
ENDBRANCH   6   7
ENDBRANCH   4   6
ENDBRANCH   1   4
TORSDOF 7
ENDMDL
MODEL 2
REMARK VINA RESULT:      -7.1      1.842      3.015
REMARK  7 active torsions:
REMARK  status: ('A' for Active; 'I' for Inactive)
REMARK    1  A    between atoms: C2_2  and  C3_3 
REMARK    2  A    between atoms: C2_2  and  C7_9 
REMARK    3  A    between atoms: C3_3  and  N1_4 
REMARK    4  A    between atoms: N1_4  and  C5_6 
REMARK       I    between atoms: C7_9  and  N3_11 
REMARK    5  A    between atoms: N3_11  and  C8_12 
REMARK    6  A    between atoms: C16_21  and  O2_22 
REMARK    7  A    between atoms: O2_22  and  C17_23 
ROOT
HETATM    1  C5  UNL     1      26.043   7.428  48.776  1.00  0.00     0.395 C 
HETATM    2  C6  UNL     1      26.523   8.466  49.686  1.00  0.00     0.089 C 
HETATM    3  N2  UNL     1      26.908   9.312  50.401  1.00  0.00    -0.195 NA
ENDROOT
BRANCH   1   4
HETATM    4  N1  UNL     1      26.489   6.151  49.317  1.00  0.00     0.101 N 
HETATM    5  C4  UNL     1      27.600   5.668  48.452  1.00  0.00     0.311 C 
BRANCH   4   6
HETATM    6  C3  UNL     1      25.477   5.127  49.171  1.00  0.00     0.316 C 
BRANCH   6   7
HETATM    7  C2  UNL     1      24.936   4.613  50.421  1.00  0.00     0.029 C 
HETATM    8  C1  UNL     1      23.922   5.120  51.086  1.00  0.00     0.026 C 
BRANCH   7   9
HETATM    9  C7  UNL     1      25.386   3.463  51.181  1.00  0.00     0.253 C 
HETATM   10  O1  UNL     1      25.930   2.951  50.166  1.00  0.00    -0.268 OA
HETATM   11  N3  UNL     1      25.256   3.084  52.530  1.00  0.00    -0.321 N 
HETATM   12  H10 UNL     1      24.715   3.864  52.939  1.00  0.00     0.169 HD
BRANCH  11  13
HETATM   13  C8  UNL     1      25.916   1.833  52.692  1.00  0.00     0.069 A 
HETATM   14  C9  UNL     1      27.243   1.913  52.983  1.00  0.00     0.046 A 
HETATM   15  C10 UNL     1      27.970   0.766  53.159  1.00  0.00    -0.005 A 
HETATM   16  C11 UNL     1      29.318   0.800  53.455  1.00  0.00     0.015 A 
HETATM   17  C14 UNL     1      27.307  -0.435  53.030  1.00  0.00     0.069 A 
HETATM   18  C12 UNL     1      29.997  -0.397  53.621  1.00  0.00     0.020 A 
HETATM   19  C13 UNL     1      29.281  -1.588  53.481  1.00  0.00     0.117 A 
HETATM   20  N4  UNL     1      27.967  -1.588  53.192  1.00  0.00    -0.260 NA
HETATM   21  C15 UNL     1      25.961  -0.522  52.735  1.00  0.00     0.071 A 
HETATM   22  C16 UNL     1      25.220   0.626  52.556  1.00  0.00     0.097 A 
BRANCH  22  23
HETATM   23  O2  UNL     1      23.875   0.774  52.258  1.00  0.00    -0.349 OA
BRANCH  23  24
HETATM   24  C17 UNL     1      22.803   0.571  53.119  1.00  0.00     0.171 C 
HETATM   25  C18 UNL     1      22.330  -0.870  53.126  1.00  0.00     0.034 C 
ENDBRANCH  23  24
ENDBRANCH  22  23
ENDBRANCH  11  13
ENDBRANCH   7   9
ENDBRANCH   6   7
ENDBRANCH   4   6
ENDBRANCH   1   4
TORSDOF 7
ENDMDL
MODEL 3
REMARK VINA RESULT:      -6.9      1.698      2.277
REMARK  7 active torsions:
REMARK  status: ('A' for Active; 'I' for Inactive)
REMARK    1  A    between atoms: C2_2  and  C3_3 
REMARK    2  A    between atoms: C2_2  and  C7_9 
REMARK    3  A    between atoms: C3_3  and  N1_4 
REMARK    4  A    between atoms: N1_4  and  C5_6 
REMARK       I    between atoms: C7_9  and  N3_11 
REMARK    5  A    between atoms: N3_11  and  C8_12 
REMARK    6  A    between atoms: C16_21  and  O2_22 
REMARK    7  A    between atoms: O2_22  and  C17_23 
ROOT
HETATM    1  C5  UNL     1      21.645   7.036  50.921  1.00  0.00     0.395 C 
HETATM    2  C6  UNL     1      20.656   7.308  49.881  1.00  0.00     0.089 C 
HETATM    3  N2  UNL     1      19.853   7.539  49.058  1.00  0.00    -0.195 NA
ENDROOT
BRANCH   1   4
HETATM    4  N1  UNL     1      22.070   5.653  50.750  1.00  0.00     0.101 N 
HETATM    5  C4  UNL     1      20.977   4.788  51.273  1.00  0.00     0.311 C 
BRANCH   4   6
HETATM    6  C3  UNL     1      23.193   5.331  51.604  1.00  0.00     0.316 C 
BRANCH   6   7
HETATM    7  C2  UNL     1      24.121   4.350  51.057  1.00  0.00     0.029 C 
HETATM    8  C1  UNL     1      24.543   4.302  49.813  1.00  0.00     0.026 C 
BRANCH   7   9
HETATM    9  C7  UNL     1      24.761   3.248  51.747  1.00  0.00     0.253 C 
HETATM   10  O1  UNL     1      25.196   2.767  50.666  1.00  0.00    -0.268 OA
HETATM   11  N3  UNL     1      24.851   2.877  53.102  1.00  0.00    -0.321 N 
HETATM   12  H10 UNL     1      24.313   3.618  53.581  1.00  0.00     0.169 HD
BRANCH  11  13
HETATM   13  C8  UNL     1      25.623   1.682  53.170  1.00  0.00     0.069 A 
HETATM   14  C9  UNL     1      26.965   1.867  53.286  1.00  0.00     0.046 A 
HETATM   15  C10 UNL     1      27.797   0.782  53.361  1.00  0.00    -0.005 A 
HETATM   16  C11 UNL     1      29.165   0.923  53.479  1.00  0.00     0.015 A 
HETATM   17  C14 UNL     1      27.219  -0.469  53.315  1.00  0.00     0.069 A 
HETATM   18  C12 UNL     1      29.952  -0.216  53.550  1.00  0.00     0.020 A 
HETATM   19  C13 UNL     1      29.320  -1.461  53.500  1.00  0.00     0.117 A 
HETATM   20  N4  UNL     1      27.983  -1.565  53.384  1.00  0.00    -0.260 NA
HETATM   21  C15 UNL     1      25.857  -0.663  53.198  1.00  0.00     0.071 A 
HETATM   22  C16 UNL     1      25.012   0.423  53.122  1.00  0.00     0.097 A 
BRANCH  22  23
HETATM   23  O2  UNL     1      23.631   0.464  53.003  1.00  0.00    -0.349 OA
BRANCH  23  24
HETATM   24  C17 UNL     1      22.751  -0.602  53.138  1.00  0.00     0.171 C 
HETATM   25  C18 UNL     1      22.193  -0.718  54.544  1.00  0.00     0.034 C 
ENDBRANCH  23  24
ENDBRANCH  22  23
ENDBRANCH  11  13
ENDBRANCH   7   9
ENDBRANCH   6   7
ENDBRANCH   4   6
ENDBRANCH   1   4
TORSDOF 7
ENDMDL
MODEL 4
REMARK VINA RESULT:      -6.8      2.189      2.646
REMARK  7 active torsions:
REMARK  status: ('A' for Active; 'I' for Inactive)
REMARK    1  A    between atoms: C2_2  and  C3_3 
REMARK    2  A    between atoms: C2_2  and  C7_9 
REMARK    3  A    between atoms: C3_3  and  N1_4 
REMARK    4  A    between atoms: N1_4  and  C5_6 
REMARK       I    between atoms: C7_9  and  N3_11 
REMARK    5  A    between atoms: N3_11  and  C8_12 
REMARK    6  A    between atoms: C16_21  and  O2_22 
REMARK    7  A    between atoms: O2_22  and  C17_23 
ROOT
HETATM    1  C5  UNL     1      21.159   4.225  47.611  1.00  0.00     0.395 C 
HETATM    2  C6  UNL     1      21.689   3.885  46.293  1.00  0.00     0.089 C 
HETATM    3  N2  UNL     1      22.098   3.618  45.227  1.00  0.00    -0.195 NA
ENDROOT
BRANCH   1   4
HETATM    4  N1  UNL     1      21.884   3.415  48.581  1.00  0.00     0.101 N 
HETATM    5  C4  UNL     1      21.573   1.989  48.286  1.00  0.00     0.311 C 
BRANCH   4   6
HETATM    6  C3  UNL     1      21.373   3.601  49.921  1.00  0.00     0.316 C 
BRANCH   6   7
HETATM    7  C2  UNL     1      22.388   3.811  50.945  1.00  0.00     0.029 C 
HETATM    8  C1  UNL     1      22.678   4.958  51.516  1.00  0.00     0.026 C 
BRANCH   7   9
HETATM    9  C7  UNL     1      23.273   2.827  51.536  1.00  0.00     0.253 C 
HETATM   10  O1  UNL     1      23.472   3.550  52.549  1.00  0.00    -0.268 OA
HETATM   11  N3  UNL     1      23.722   1.558  51.122  1.00  0.00    -0.321 N 
HETATM   12  H10 UNL     1      23.255   1.434  50.209  1.00  0.00     0.169 HD
BRANCH  11  13
HETATM   13  C8  UNL     1      24.589   1.058  52.135  1.00  0.00     0.069 A 
HETATM   14  C9  UNL     1      25.871   1.507  52.074  1.00  0.00     0.046 A 
HETATM   15  C10 UNL     1      26.785   1.087  53.003  1.00  0.00    -0.005 A 
HETATM   16  C11 UNL     1      28.096   1.518  52.978  1.00  0.00     0.015 A 
HETATM   17  C14 UNL     1      26.349   0.211  53.974  1.00  0.00     0.069 A 
HETATM   18  C12 UNL     1      28.971   1.054  53.948  1.00  0.00     0.020 A 
HETATM   19  C13 UNL     1      28.482   0.168  54.911  1.00  0.00     0.117 A 
HETATM   20  N4  UNL     1      27.197  -0.233  54.908  1.00  0.00    -0.260 NA
HETATM   21  C15 UNL     1      25.049  -0.249  54.042  1.00  0.00     0.071 A 
HETATM   22  C16 UNL     1      24.122   0.169  53.111  1.00  0.00     0.097 A 
BRANCH  22  23
HETATM   23  O2  UNL     1      22.781  -0.159  52.989  1.00  0.00    -0.349 OA
BRANCH  23  24
HETATM   24  C17 UNL     1      21.800  -0.034  53.965  1.00  0.00     0.171 C 
HETATM   25  C18 UNL     1      21.401  -1.370  54.561  1.00  0.00     0.034 C 
ENDBRANCH  23  24
ENDBRANCH  22  23
ENDBRANCH  11  13
ENDBRANCH   7   9
ENDBRANCH   6   7
ENDBRANCH   4   6
ENDBRANCH   1   4
TORSDOF 7
ENDMDL
MODEL 5
REMARK VINA RESULT:      -6.8      1.989      3.096
REMARK  7 active torsions:
REMARK  status: ('A' for Active; 'I' for Inactive)
REMARK    1  A    between atoms: C2_2  and  C3_3 
REMARK    2  A    between atoms: C2_2  and  C7_9 
REMARK    3  A    between atoms: C3_3  and  N1_4 
REMARK    4  A    between atoms: N1_4  and  C5_6 
REMARK       I    between atoms: C7_9  and  N3_11 
REMARK    5  A    between atoms: N3_11  and  C8_12 
REMARK    6  A    between atoms: C16_21  and  O2_22 
REMARK    7  A    between atoms: O2_22  and  C17_23 
ROOT
HETATM    1  C5  UNL     1      24.921   5.812  50.028  1.00  0.00     0.395 C 
HETATM    2  C6  UNL     1      24.300   7.120  50.228  1.00  0.00     0.089 C 
HETATM    3  N2  UNL     1      23.817   8.175  50.398  1.00  0.00    -0.195 NA
ENDROOT
BRANCH   1   4
HETATM    4  N1  UNL     1      23.844   4.869  49.759  1.00  0.00     0.101 N 
HETATM    5  C4  UNL     1      23.209   5.277  48.476  1.00  0.00     0.311 C 
BRANCH   4   6
HETATM    6  C3  UNL     1      22.772   4.994  50.722  1.00  0.00     0.316 C 
BRANCH   6   7
HETATM    7  C2  UNL     1      22.439   3.769  51.437  1.00  0.00     0.029 C 
HETATM    8  C1  UNL     1      21.228   3.369  51.755  1.00  0.00     0.026 C 
BRANCH   7   9
HETATM    9  C7  UNL     1      23.347   2.757  51.939  1.00  0.00     0.253 C 
HETATM   10  O1  UNL     1      23.668   3.472  52.927  1.00  0.00    -0.268 OA
HETATM   11  N3  UNL     1      23.713   1.476  51.485  1.00  0.00    -0.321 N 
HETATM   12  H10 UNL     1      23.155   1.368  50.623  1.00  0.00     0.169 HD
BRANCH  11  13
HETATM   13  C8  UNL     1      24.660   0.946  52.408  1.00  0.00     0.069 A 
HETATM   14  C9  UNL     1      25.922   1.436  52.287  1.00  0.00     0.046 A 
HETATM   15  C10 UNL     1      26.908   0.993  53.128  1.00  0.00    -0.005 A 
HETATM   16  C11 UNL     1      28.203   1.464  53.040  1.00  0.00     0.015 A 
HETATM   17  C14 UNL     1      26.562   0.053  54.075  1.00  0.00     0.069 A 
HETATM   18  C12 UNL     1      29.153   0.974  53.922  1.00  0.00     0.020 A 
HETATM   19  C13 UNL     1      28.755   0.022  54.864  1.00  0.00     0.117 A 
HETATM   20  N4  UNL     1      27.483  -0.416  54.923  1.00  0.00    -0.260 NA
HETATM   21  C15 UNL     1      25.282  -0.448  54.203  1.00  0.00     0.071 A 
HETATM   22  C16 UNL     1      24.283  -0.009  53.361  1.00  0.00     0.097 A 
BRANCH  22  23
HETATM   23  O2  UNL     1      22.946  -0.369  53.309  1.00  0.00    -0.349 OA
BRANCH  23  24
HETATM   24  C17 UNL     1      22.098  -0.582  54.389  1.00  0.00     0.171 C 
HETATM   25  C18 UNL     1      20.866   0.301  54.343  1.00  0.00     0.034 C 
ENDBRANCH  23  24
ENDBRANCH  22  23
ENDBRANCH  11  13
ENDBRANCH   7   9
ENDBRANCH   6   7
ENDBRANCH   4   6
ENDBRANCH   1   4
TORSDOF 7
ENDMDL
MODEL 6
REMARK VINA RESULT:      -6.6      2.216      4.519
REMARK  7 active torsions:
REMARK  status: ('A' for Active; 'I' for Inactive)
REMARK    1  A    between atoms: C2_2  and  C3_3 
REMARK    2  A    between atoms: C2_2  and  C7_9 
REMARK    3  A    between atoms: C3_3  and  N1_4 
REMARK    4  A    between atoms: N1_4  and  C5_6 
REMARK       I    between atoms: C7_9  and  N3_11 
REMARK    5  A    between atoms: N3_11  and  C8_12 
REMARK    6  A    between atoms: C16_21  and  O2_22 
REMARK    7  A    between atoms: O2_22  and  C17_23 
ROOT
HETATM    1  C5  UNL     1      24.159   6.741  51.091  1.00  0.00     0.395 C 
HETATM    2  C6  UNL     1      22.737   6.450  50.928  1.00  0.00     0.089 C 
HETATM    3  N2  UNL     1      21.594   6.213  50.816  1.00  0.00    -0.195 NA
ENDROOT
BRANCH   1   4
HETATM    4  N1  UNL     1      24.789   6.516  49.797  1.00  0.00     0.101 N 
HETATM    5  C4  UNL     1      24.119   7.414  48.817  1.00  0.00     0.311 C 
BRANCH   4   6
HETATM    6  C3  UNL     1      24.505   5.191  49.289  1.00  0.00     0.316 C 
BRANCH   6   7
HETATM    7  C2  UNL     1      25.327   4.127  49.849  1.00  0.00     0.029 C 
HETATM    8  C1  UNL     1      26.581   3.882  49.540  1.00  0.00     0.026 C 
BRANCH   7   9
HETATM    9  C7  UNL     1      24.951   3.138  50.840  1.00  0.00     0.253 C 
HETATM   10  O1  UNL     1      24.192   2.547  50.025  1.00  0.00    -0.268 OA
HETATM   11  N3  UNL     1      25.308   2.933  52.186  1.00  0.00    -0.321 N 
HETATM   12  H10 UNL     1      25.966   3.707  52.371  1.00  0.00     0.169 HD
BRANCH  11  13
HETATM   13  C8  UNL     1      24.608   1.781  52.646  1.00  0.00     0.069 A 
HETATM   14  C9  UNL     1      23.267   1.942  52.800  1.00  0.00     0.046 A 
HETATM   15  C10 UNL     1      22.501   0.895  53.236  1.00  0.00    -0.005 A 
HETATM   16  C11 UNL     1      21.136   1.014  53.406  1.00  0.00     0.015 A 
HETATM   17  C14 UNL     1      23.143  -0.296  53.503  1.00  0.00     0.069 A 
HETATM   18  C12 UNL     1      20.419  -0.085  53.851  1.00  0.00     0.020 A 
HETATM   19  C13 UNL     1      21.114  -1.269  54.108  1.00  0.00     0.117 A 
HETATM   20  N4  UNL     1      22.446  -1.354  53.932  1.00  0.00    -0.260 NA
HETATM   21  C15 UNL     1      24.504  -0.466  53.349  1.00  0.00     0.071 A 
HETATM   22  C16 UNL     1      25.283   0.583  52.910  1.00  0.00     0.097 A 
BRANCH  22  23
HETATM   23  O2  UNL     1      26.650   0.638  52.686  1.00  0.00    -0.349 OA
BRANCH  23  24
HETATM   24  C17 UNL     1      27.585  -0.344  52.991  1.00  0.00     0.171 C 
HETATM   25  C18 UNL     1      28.386  -0.015  54.236  1.00  0.00     0.034 C 
ENDBRANCH  23  24
ENDBRANCH  22  23
ENDBRANCH  11  13
ENDBRANCH   7   9
ENDBRANCH   6   7
ENDBRANCH   4   6
ENDBRANCH   1   4
TORSDOF 7
ENDMDL
MODEL 7
REMARK VINA RESULT:      -6.3      2.402      4.947
REMARK  7 active torsions:
REMARK  status: ('A' for Active; 'I' for Inactive)
REMARK    1  A    between atoms: C2_2  and  C3_3 
REMARK    2  A    between atoms: C2_2  and  C7_9 
REMARK    3  A    between atoms: C3_3  and  N1_4 
REMARK    4  A    between atoms: N1_4  and  C5_6 
REMARK       I    between atoms: C7_9  and  N3_11 
REMARK    5  A    between atoms: N3_11  and  C8_12 
REMARK    6  A    between atoms: C16_21  and  O2_22 
REMARK    7  A    between atoms: O2_22  and  C17_23 
ROOT
HETATM    1  C5  UNL     1      26.298   7.007  48.514  1.00  0.00     0.395 C 
HETATM    2  C6  UNL     1      26.934   8.093  49.256  1.00  0.00     0.089 C 
HETATM    3  N2  UNL     1      27.446   8.976  49.835  1.00  0.00    -0.195 NA
ENDROOT
BRANCH   1   4
HETATM    4  N1  UNL     1      26.571   5.778  49.247  1.00  0.00     0.101 N 
HETATM    5  C4  UNL     1      27.666   5.070  48.528  1.00  0.00     0.311 C 
BRANCH   4   6
HETATM    6  C3  UNL     1      25.462   4.852  49.168  1.00  0.00     0.316 C 
BRANCH   6   7
HETATM    7  C2  UNL     1      24.798   4.578  50.435  1.00  0.00     0.029 C 
HETATM    8  C1  UNL     1      24.107   5.442  51.143  1.00  0.00     0.026 C 
BRANCH   7   9
HETATM    9  C7  UNL     1      24.759   3.327  51.168  1.00  0.00     0.253 C 
HETATM   10  O1  UNL     1      23.796   3.724  51.879  1.00  0.00    -0.268 OA
HETATM   11  N3  UNL     1      25.512   2.140  51.095  1.00  0.00    -0.321 N 
HETATM   12  H10 UNL     1      26.184   2.338  50.336  1.00  0.00     0.169 HD
BRANCH  11  13
HETATM   13  C8  UNL     1      25.003   1.247  52.081  1.00  0.00     0.069 A 
HETATM   14  C9  UNL     1      23.648   1.229  52.201  1.00  0.00     0.046 A 
HETATM   15  C10 UNL     1      23.057   0.404  53.120  1.00  0.00    -0.005 A 
HETATM   16  C11 UNL     1      21.687   0.354  53.275  1.00  0.00     0.015 A 
HETATM   17  C14 UNL     1      23.884  -0.385  53.892  1.00  0.00     0.069 A 
HETATM   18  C12 UNL     1      21.152  -0.505  54.224  1.00  0.00     0.020 A 
HETATM   19  C13 UNL     1      22.030  -1.283  54.982  1.00  0.00     0.117 A 
HETATM   20  N4  UNL     1      23.362  -1.211  54.806  1.00  0.00    -0.260 NA
HETATM   21  C15 UNL     1      25.259  -0.371  53.775  1.00  0.00     0.071 A 
HETATM   22  C16 UNL     1      25.863   0.456  52.853  1.00  0.00     0.097 A 
BRANCH  22  23
HETATM   23  O2  UNL     1      27.208   0.631  52.567  1.00  0.00    -0.349 OA
BRANCH  23  24
HETATM   24  C17 UNL     1      28.221   0.923  53.471  1.00  0.00     0.171 C 
HETATM   25  C18 UNL     1      28.511   2.409  53.558  1.00  0.00     0.034 C 
ENDBRANCH  23  24
ENDBRANCH  22  23
ENDBRANCH  11  13
ENDBRANCH   7   9
ENDBRANCH   6   7
ENDBRANCH   4   6
ENDBRANCH   1   4
TORSDOF 7
ENDMDL
MODEL 8
REMARK VINA RESULT:      -6.1      2.483      3.772
REMARK  7 active torsions:
REMARK  status: ('A' for Active; 'I' for Inactive)
REMARK    1  A    between atoms: C2_2  and  C3_3 
REMARK    2  A    between atoms: C2_2  and  C7_9 
REMARK    3  A    between atoms: C3_3  and  N1_4 
REMARK    4  A    between atoms: N1_4  and  C5_6 
REMARK       I    between atoms: C7_9  and  N3_11 
REMARK    5  A    between atoms: N3_11  and  C8_12 
REMARK    6  A    between atoms: C16_21  and  O2_22 
REMARK    7  A    between atoms: O2_22  and  C17_23 
ROOT
HETATM    1  C5  UNL     1      21.978   6.273  50.279  1.00  0.00     0.395 C 
HETATM    2  C6  UNL     1      23.196   6.109  51.068  1.00  0.00     0.089 C 
HETATM    3  N2  UNL     1      24.181   5.996  51.696  1.00  0.00    -0.195 NA
ENDROOT
BRANCH   1   4
HETATM    4  N1  UNL     1      21.493   4.935  49.967  1.00  0.00     0.101 N 
HETATM    5  C4  UNL     1      20.740   5.025  48.686  1.00  0.00     0.311 C 
BRANCH   4   6
HETATM    6  C3  UNL     1      20.492   4.496  50.916  1.00  0.00     0.316 C 
BRANCH   6   7
HETATM    7  C2  UNL     1      20.583   3.094  51.301  1.00  0.00     0.029 C 
HETATM    8  C1  UNL     1      19.579   2.248  51.364  1.00  0.00     0.026 C 
BRANCH   7   9
HETATM    9  C7  UNL     1      21.766   2.351  51.689  1.00  0.00     0.253 C 
HETATM   10  O1  UNL     1      21.959   3.095  52.688  1.00  0.00    -0.268 OA
HETATM   11  N3  UNL     1      22.426   1.232  51.146  1.00  0.00    -0.321 N 
HETATM   12  H10 UNL     1      21.851   1.003  50.318  1.00  0.00     0.169 HD
BRANCH  11  13
HETATM   13  C8  UNL     1      23.549   0.951  51.975  1.00  0.00     0.069 A 
HETATM   14  C9  UNL     1      24.644   1.725  51.747  1.00  0.00     0.046 A 
HETATM   15  C10 UNL     1      25.778   1.537  52.491  1.00  0.00    -0.005 A 
HETATM   16  C11 UNL     1      26.911   2.299  52.294  1.00  0.00     0.015 A 
HETATM   17  C14 UNL     1      25.750   0.552  53.455  1.00  0.00     0.069 A 
HETATM   18  C12 UNL     1      28.026   2.057  53.082  1.00  0.00     0.020 A 
HETATM   19  C13 UNL     1      27.949   1.048  54.045  1.00  0.00     0.117 A 
HETATM   20  N4  UNL     1      26.828   0.322  54.213  1.00  0.00    -0.260 NA
HETATM   21  C15 UNL     1      24.642  -0.237  53.691  1.00  0.00     0.071 A 
HETATM   22  C16 UNL     1      23.496  -0.055  52.947  1.00  0.00     0.097 A 
BRANCH  22  23
HETATM   23  O2  UNL     1      22.283  -0.722  53.011  1.00  0.00    -0.349 OA
BRANCH  23  24
HETATM   24  C17 UNL     1      21.507  -0.933  54.144  1.00  0.00     0.171 C 
HETATM   25  C18 UNL     1      20.774   0.320  54.587  1.00  0.00     0.034 C 
ENDBRANCH  23  24
ENDBRANCH  22  23
ENDBRANCH  11  13
ENDBRANCH   7   9
ENDBRANCH   6   7
ENDBRANCH   4   6
ENDBRANCH   1   4
TORSDOF 7
ENDMDL
MODEL 9
REMARK VINA RESULT:      -6.1      2.333      3.625
REMARK  7 active torsions:
REMARK  status: ('A' for Active; 'I' for Inactive)
REMARK    1  A    between atoms: C2_2  and  C3_3 
REMARK    2  A    between atoms: C2_2  and  C7_9 
REMARK    3  A    between atoms: C3_3  and  N1_4 
REMARK    4  A    between atoms: N1_4  and  C5_6 
REMARK       I    between atoms: C7_9  and  N3_11 
REMARK    5  A    between atoms: N3_11  and  C8_12 
REMARK    6  A    between atoms: C16_21  and  O2_22 
REMARK    7  A    between atoms: O2_22  and  C17_23 
ROOT
HETATM    1  C5  UNL     1      24.296   8.752  49.094  1.00  0.00     0.395 C 
HETATM    2  C6  UNL     1      22.846   8.744  49.268  1.00  0.00     0.089 C 
HETATM    3  N2  UNL     1      21.681   8.757  49.409  1.00  0.00    -0.195 NA
ENDROOT
BRANCH   1   4
HETATM    4  N1  UNL     1      24.782   7.449  49.529  1.00  0.00     0.101 N 
HETATM    5  C4  UNL     1      26.240   7.589  49.799  1.00  0.00     0.311 C 
BRANCH   4   6
HETATM    6  C3  UNL     1      24.728   6.475  48.461  1.00  0.00     0.316 C 
BRANCH   6   7
HETATM    7  C2  UNL     1      23.947   5.281  48.755  1.00  0.00     0.029 C 
HETATM    8  C1  UNL     1      22.918   4.846  48.064  1.00  0.00     0.026 C 
BRANCH   7   9
HETATM    9  C7  UNL     1      24.133   4.342  49.844  1.00  0.00     0.253 C 
HETATM   10  O1  UNL     1      23.785   3.369  49.121  1.00  0.00    -0.268 OA
HETATM   11  N3  UNL     1      24.546   4.482  51.182  1.00  0.00    -0.321 N 
HETATM   12  H10 UNL     1      24.713   5.498  51.267  1.00  0.00     0.169 HD
BRANCH  11  13
HETATM   13  C8  UNL     1      24.537   3.187  51.773  1.00  0.00     0.069 A 
HETATM   14  C9  UNL     1      25.678   2.466  51.603  1.00  0.00     0.046 A 
HETATM   15  C10 UNL     1      25.774   1.208  52.134  1.00  0.00    -0.005 A 
HETATM   16  C11 UNL     1      26.912   0.441  51.986  1.00  0.00     0.015 A 
HETATM   17  C14 UNL     1      24.685   0.725  52.829  1.00  0.00     0.069 A 
HETATM   18  C12 UNL     1      26.944  -0.825  52.548  1.00  0.00     0.020 A 
HETATM   19  C13 UNL     1      25.816  -1.270  53.242  1.00  0.00     0.117 A 
HETATM   20  N4  UNL     1      24.721  -0.498  53.369  1.00  0.00    -0.260 NA
HETATM   21  C15 UNL     1      23.524   1.451  53.004  1.00  0.00     0.071 A 
HETATM   22  C16 UNL     1      23.419   2.719  52.474  1.00  0.00     0.097 A 
BRANCH  22  23
HETATM   23  O2  UNL     1      22.363   3.616  52.526  1.00  0.00    -0.349 OA
BRANCH  23  24
HETATM   24  C17 UNL     1      21.050   3.381  52.141  1.00  0.00     0.171 C 
HETATM   25  C18 UNL     1      20.583   4.337  51.059  1.00  0.00     0.034 C 
ENDBRANCH  23  24
ENDBRANCH  22  23
ENDBRANCH  11  13
ENDBRANCH   7   9
ENDBRANCH   6   7
ENDBRANCH   4   6
ENDBRANCH   1   4
TORSDOF 7
ENDMDL
