MODEL 1
REMARK VINA RESULT:      -8.0      0.000      0.000
REMARK  6 active torsions:
REMARK  status: ('A' for Active; 'I' for Inactive)
REMARK    1  A    between atoms: N1_2  and  C3_4 
REMARK    2  A    between atoms: C3_4  and  C4_5 
REMARK    3  A    between atoms: C4_5  and  C5_6 
REMARK    4  A    between atoms: C5_6  and  O1_7 
REMARK    5  A    between atoms: O1_7  and  C6_8 
REMARK    6  A    between atoms: C6_8  and  C7_9 
ROOT
HETATM    1  C7  UNL     1      23.101   2.103  52.377  1.00  0.00     0.089 C 
HETATM    2  C8  UNL     1      24.077   2.987  53.037  1.00  0.00     0.023 C 
HETATM    3 CL1  UNL     1      23.717   4.704  53.301  1.00  0.00    -0.088 Cl
HETATM    4  C9  UNL     1      25.286   2.794  53.537  1.00  0.00     0.037 C 
HETATM    5  C10 UNL     1      26.182   1.637  53.659  1.00  0.00     0.029 A 
HETATM    6  C11 UNL     1      27.479   2.085  53.649  1.00  0.00     0.133 A 
HETATM    7  N2  UNL     1      28.473   1.188  53.749  1.00  0.00    -0.253 NA
HETATM    8  C12 UNL     1      28.274  -0.146  53.862  1.00  0.00     0.234 A 
HETATM    9  N3  UNL     1      27.005  -0.630  53.876  1.00  0.00    -0.224 NA
HETATM   10  C13 UNL     1      26.005   0.251  53.776  1.00  0.00     0.141 A 
HETATM   11  N4  UNL     1      24.818  -0.572  53.822  1.00  0.00    -0.340 N 
HETATM   12  C14 UNL     1      23.418  -0.242  53.695  1.00  0.00     0.041 A 
HETATM   13  C15 UNL     1      22.763  -1.281  54.312  1.00  0.00     0.033 A 
HETATM   14  C16 UNL     1      21.369  -1.269  54.366  1.00  0.00     0.044 A 
HETATM   15  C17 UNL     1      20.672  -0.226  53.805  1.00  0.00     0.117 A 
HETATM   16  F1  UNL     1      19.314  -0.143  53.816  1.00  0.00    -0.206 F 
HETATM   17  C18 UNL     1      21.399   0.778  53.204  1.00  0.00     0.052 A 
HETATM   18  C19 UNL     1      22.789   0.855  53.100  1.00  0.00    -0.017 A 
HETATM   19  H19 UNL     1      24.972  -1.593  53.974  1.00  0.00     0.167 HD
ENDROOT
BRANCH   1  20
HETATM   20  C6  UNL     1      23.716   1.693  51.058  1.00  0.00     0.182 C 
BRANCH  20  21
HETATM   21  O1  UNL     1      23.119   2.262  49.966  1.00  0.00    -0.390 OA
BRANCH  21  22
HETATM   22  C5  UNL     1      23.841   3.199  49.280  1.00  0.00     0.169 C 
BRANCH  22  23
HETATM   23  C4  UNL     1      25.312   3.113  49.715  1.00  0.00     0.056 C 
BRANCH  23  24
HETATM   24  C3  UNL     1      25.757   4.510  50.033  1.00  0.00     0.273 C 
BRANCH  24  25
HETATM   25  N1  UNL     1      26.338   5.216  48.939  1.00  0.00     0.080 N 
HETATM   26  C1  UNL     1      27.692   4.882  48.635  1.00  0.00     0.309 C 
HETATM   27  C2  UNL     1      26.239   6.642  49.179  1.00  0.00     0.309 C 
ENDBRANCH  24  25
ENDBRANCH  23  24
ENDBRANCH  22  23
ENDBRANCH  21  22
ENDBRANCH  20  21
ENDBRANCH   1  20
TORSDOF 6
ENDMDL
MODEL 2
REMARK VINA RESULT:      -7.7      1.836      2.473
REMARK  6 active torsions:
REMARK  status: ('A' for Active; 'I' for Inactive)
REMARK    1  A    between atoms: N1_2  and  C3_4 
REMARK    2  A    between atoms: C3_4  and  C4_5 
REMARK    3  A    between atoms: C4_5  and  C5_6 
REMARK    4  A    between atoms: C5_6  and  O1_7 
REMARK    5  A    between atoms: O1_7  and  C6_8 
REMARK    6  A    between atoms: C6_8  and  C7_9 
ROOT
HETATM    1  C7  UNL     1      23.025   2.012  52.364  1.00  0.00     0.089 C 
HETATM    2  C8  UNL     1      23.990   2.918  53.009  1.00  0.00     0.023 C 
HETATM    3 CL1  UNL     1      23.622   4.641  53.220  1.00  0.00    -0.088 Cl
HETATM    4  C9  UNL     1      25.194   2.743  53.529  1.00  0.00     0.037 C 
HETATM    5  C10 UNL     1      26.092   1.594  53.694  1.00  0.00     0.029 A 
HETATM    6  C11 UNL     1      27.388   2.046  53.685  1.00  0.00     0.133 A 
HETATM    7  N2  UNL     1      28.384   1.156  53.822  1.00  0.00    -0.253 NA
HETATM    8  C12 UNL     1      28.188  -0.175  53.971  1.00  0.00     0.234 A 
HETATM    9  N3  UNL     1      26.921  -0.663  53.985  1.00  0.00    -0.224 NA
HETATM   10  C13 UNL     1      25.919   0.211  53.848  1.00  0.00     0.141 A 
HETATM   11  N4  UNL     1      24.734  -0.614  53.904  1.00  0.00    -0.340 N 
HETATM   12  C14 UNL     1      23.334  -0.293  53.753  1.00  0.00     0.041 A 
HETATM   13  C15 UNL     1      22.676  -1.316  54.392  1.00  0.00     0.033 A 
HETATM   14  C16 UNL     1      21.281  -1.308  54.430  1.00  0.00     0.044 A 
HETATM   15  C17 UNL     1      20.587  -0.284  53.832  1.00  0.00     0.117 A 
HETATM   16  F1  UNL     1      19.229  -0.205  53.825  1.00  0.00    -0.206 F 
HETATM   17  C18 UNL     1      21.318   0.706  53.210  1.00  0.00     0.052 A 
HETATM   18  C19 UNL     1      22.708   0.784  53.119  1.00  0.00    -0.017 A 
HETATM   19  H19 UNL     1      24.890  -1.630  54.088  1.00  0.00     0.167 HD
ENDROOT
BRANCH   1  20
HETATM   20  C6  UNL     1      23.656   1.566  51.065  1.00  0.00     0.182 C 
BRANCH  20  21
HETATM   21  O1  UNL     1      24.158   2.591  50.310  1.00  0.00    -0.390 OA
BRANCH  21  22
HETATM   22  C5  UNL     1      23.466   2.931  49.181  1.00  0.00     0.169 C 
BRANCH  22  23
HETATM   23  C4  UNL     1      22.827   4.314  49.385  1.00  0.00     0.056 C 
BRANCH  23  24
HETATM   24  C3  UNL     1      21.340   4.112  49.394  1.00  0.00     0.273 C 
BRANCH  24  25
HETATM   25  N1  UNL     1      20.632   4.931  50.322  1.00  0.00     0.080 N 
HETATM   26  C1  UNL     1      21.355   6.045  50.843  1.00  0.00     0.309 C 
HETATM   27  C2  UNL     1      20.157   4.113  51.420  1.00  0.00     0.309 C 
ENDBRANCH  24  25
ENDBRANCH  23  24
ENDBRANCH  22  23
ENDBRANCH  21  22
ENDBRANCH  20  21
ENDBRANCH   1  20
TORSDOF 6
ENDMDL
MODEL 3
REMARK VINA RESULT:      -7.5      2.304      3.792
REMARK  6 active torsions:
REMARK  status: ('A' for Active; 'I' for Inactive)
REMARK    1  A    between atoms: N1_2  and  C3_4 
REMARK    2  A    between atoms: C3_4  and  C4_5 
REMARK    3  A    between atoms: C4_5  and  C5_6 
REMARK    4  A    between atoms: C5_6  and  O1_7 
REMARK    5  A    between atoms: O1_7  and  C6_8 
REMARK    6  A    between atoms: C6_8  and  C7_9 
ROOT
HETATM    1  C7  UNL     1      23.026   2.002  52.385  1.00  0.00     0.089 C 
HETATM    2  C8  UNL     1      24.000   2.915  53.006  1.00  0.00     0.023 C 
HETATM    3 CL1  UNL     1      23.630   4.638  53.212  1.00  0.00    -0.088 Cl
HETATM    4  C9  UNL     1      25.214   2.748  53.504  1.00  0.00     0.037 C 
HETATM    5  C10 UNL     1      26.119   1.603  53.659  1.00  0.00     0.029 A 
HETATM    6  C11 UNL     1      27.413   2.059  53.623  1.00  0.00     0.133 A 
HETATM    7  N2  UNL     1      28.414   1.173  53.747  1.00  0.00    -0.253 NA
HETATM    8  C12 UNL     1      28.226  -0.158  53.908  1.00  0.00     0.234 A 
HETATM    9  N3  UNL     1      26.961  -0.650  53.950  1.00  0.00    -0.224 NA
HETATM   10  C13 UNL     1      25.953   0.221  53.826  1.00  0.00     0.141 A 
HETATM   11  N4  UNL     1      24.773  -0.608  53.911  1.00  0.00    -0.340 N 
HETATM   12  C14 UNL     1      23.369  -0.293  53.783  1.00  0.00     0.041 A 
HETATM   13  C15 UNL     1      22.727  -1.314  54.441  1.00  0.00     0.033 A 
HETATM   14  C16 UNL     1      21.333  -1.309  54.506  1.00  0.00     0.044 A 
HETATM   15  C17 UNL     1      20.624  -0.292  53.914  1.00  0.00     0.117 A 
HETATM   16  F1  UNL     1      19.266  -0.218  53.933  1.00  0.00    -0.206 F 
HETATM   17  C18 UNL     1      21.340   0.696  53.272  1.00  0.00     0.052 A 
HETATM   18  C19 UNL     1      22.728   0.778  53.155  1.00  0.00    -0.017 A 
HETATM   19  H19 UNL     1      24.936  -1.622  54.098  1.00  0.00     0.167 HD
ENDROOT
BRANCH   1  20
HETATM   20  C6  UNL     1      23.633   1.550  51.077  1.00  0.00     0.182 C 
BRANCH  20  21
HETATM   21  O1  UNL     1      22.981   2.020  49.970  1.00  0.00    -0.390 OA
BRANCH  21  22
HETATM   22  C5  UNL     1      21.883   1.321  49.551  1.00  0.00     0.169 C 
BRANCH  22  23
HETATM   23  C4  UNL     1      20.633   2.193  49.747  1.00  0.00     0.056 C 
BRANCH  23  24
HETATM   24  C3  UNL     1      19.444   1.283  49.647  1.00  0.00     0.273 C 
BRANCH  24  25
HETATM   25  N1  UNL     1      18.823   0.973  50.893  1.00  0.00     0.080 N 
HETATM   26  C1  UNL     1      17.766   0.017  50.837  1.00  0.00     0.309 C 
HETATM   27  C2  UNL     1      18.332   2.194  51.501  1.00  0.00     0.309 C 
ENDBRANCH  24  25
ENDBRANCH  23  24
ENDBRANCH  22  23
ENDBRANCH  21  22
ENDBRANCH  20  21
ENDBRANCH   1  20
TORSDOF 6
ENDMDL
MODEL 4
REMARK VINA RESULT:      -7.5      3.017      4.961
REMARK  6 active torsions:
REMARK  status: ('A' for Active; 'I' for Inactive)
REMARK    1  A    between atoms: N1_2  and  C3_4 
REMARK    2  A    between atoms: C3_4  and  C4_5 
REMARK    3  A    between atoms: C4_5  and  C5_6 
REMARK    4  A    between atoms: C5_6  and  O1_7 
REMARK    5  A    between atoms: O1_7  and  C6_8 
REMARK    6  A    between atoms: C6_8  and  C7_9 
ROOT
HETATM    1  C7  UNL     1      23.717   2.247  51.244  1.00  0.00     0.089 C 
HETATM    2  C8  UNL     1      22.705   1.816  50.265  1.00  0.00     0.023 C 
HETATM    3 CL1  UNL     1      22.866   2.232  48.548  1.00  0.00    -0.088 Cl
HETATM    4  C9  UNL     1      21.586   1.117  50.361  1.00  0.00     0.037 C 
HETATM    5  C10 UNL     1      20.863   0.469  51.462  1.00  0.00     0.029 A 
HETATM    6  C11 UNL     1      19.525   0.458  51.159  1.00  0.00     0.133 A 
HETATM    7  N2  UNL     1      18.669  -0.090  52.036  1.00  0.00    -0.253 NA
HETATM    8  C12 UNL     1      19.047  -0.642  53.213  1.00  0.00     0.234 A 
HETATM    9  N3  UNL     1      20.363  -0.651  53.550  1.00  0.00    -0.224 NA
HETATM   10  C13 UNL     1      21.227  -0.107  52.687  1.00  0.00     0.141 A 
HETATM   11  N4  UNL     1      22.508  -0.277  53.332  1.00  0.00    -0.340 N 
HETATM   12  C14 UNL     1      23.835   0.151  52.957  1.00  0.00     0.041 A 
HETATM   13  C15 UNL     1      24.676  -0.697  53.637  1.00  0.00     0.033 A 
HETATM   14  C16 UNL     1      26.055  -0.550  53.489  1.00  0.00     0.044 A 
HETATM   15  C17 UNL     1      26.554   0.436  52.671  1.00  0.00     0.117 A 
HETATM   16  F1  UNL     1      27.884   0.643  52.477  1.00  0.00    -0.206 F 
HETATM   17  C18 UNL     1      25.648   1.248  52.024  1.00  0.00     0.052 A 
HETATM   18  C19 UNL     1      24.256   1.179  52.107  1.00  0.00    -0.017 A 
HETATM   19  H19 UNL     1      22.502  -0.802  54.235  1.00  0.00     0.167 HD
ENDROOT
BRANCH   1  20
HETATM   20  C6  UNL     1      23.033   3.235  52.162  1.00  0.00     0.182 C 
BRANCH  20  21
HETATM   21  O1  UNL     1      23.540   4.504  52.089  1.00  0.00    -0.390 OA
BRANCH  21  22
HETATM   22  C5  UNL     1      22.813   5.426  51.386  1.00  0.00     0.169 C 
BRANCH  22  23
HETATM   23  C4  UNL     1      23.478   5.649  50.019  1.00  0.00     0.056 C 
BRANCH  23  24
HETATM   24  C3  UNL     1      24.959   5.698  50.256  1.00  0.00     0.273 C 
BRANCH  24  25
HETATM   25  N1  UNL     1      25.749   5.111  49.224  1.00  0.00     0.080 N 
HETATM   26  C1  UNL     1      26.513   3.967  49.603  1.00  0.00     0.309 C 
HETATM   27  C2  UNL     1      26.634   6.114  48.667  1.00  0.00     0.309 C 
ENDBRANCH  24  25
ENDBRANCH  23  24
ENDBRANCH  22  23
ENDBRANCH  21  22
ENDBRANCH  20  21
ENDBRANCH   1  20
TORSDOF 6
ENDMDL
MODEL 5
REMARK VINA RESULT:      -7.1      3.479      5.432
REMARK  6 active torsions:
REMARK  status: ('A' for Active; 'I' for Inactive)
REMARK    1  A    between atoms: N1_2  and  C3_4 
REMARK    2  A    between atoms: C3_4  and  C4_5 
REMARK    3  A    between atoms: C4_5  and  C5_6 
REMARK    4  A    between atoms: C5_6  and  O1_7 
REMARK    5  A    between atoms: O1_7  and  C6_8 
REMARK    6  A    between atoms: C6_8  and  C7_9 
ROOT
HETATM    1  C7  UNL     1      23.604   2.319  51.356  1.00  0.00     0.089 C 
HETATM    2  C8  UNL     1      22.599   1.864  50.380  1.00  0.00     0.023 C 
HETATM    3 CL1  UNL     1      22.715   2.328  48.671  1.00  0.00    -0.088 Cl
HETATM    4  C9  UNL     1      21.515   1.112  50.473  1.00  0.00     0.037 C 
HETATM    5  C10 UNL     1      20.838   0.406  51.568  1.00  0.00     0.029 A 
HETATM    6  C11 UNL     1      19.497   0.340  51.284  1.00  0.00     0.133 A 
HETATM    7  N2  UNL     1      18.680  -0.269  52.158  1.00  0.00    -0.253 NA
HETATM    8  C12 UNL     1      19.101  -0.829  53.317  1.00  0.00     0.234 A 
HETATM    9  N3  UNL     1      20.421  -0.786  53.635  1.00  0.00    -0.224 NA
HETATM   10  C13 UNL     1      21.246  -0.182  52.774  1.00  0.00     0.141 A 
HETATM   11  N4  UNL     1      22.543  -0.307  53.398  1.00  0.00    -0.340 N 
HETATM   12  C14 UNL     1      23.843   0.191  53.015  1.00  0.00     0.041 A 
HETATM   13  C15 UNL     1      24.732  -0.634  53.663  1.00  0.00     0.033 A 
HETATM   14  C16 UNL     1      26.101  -0.419  53.500  1.00  0.00     0.044 A 
HETATM   15  C17 UNL     1      26.541   0.607  52.700  1.00  0.00     0.117 A 
HETATM   16  F1  UNL     1      27.858   0.881  52.492  1.00  0.00    -0.206 F 
HETATM   17  C18 UNL     1      25.590   1.392  52.084  1.00  0.00     0.052 A 
HETATM   18  C19 UNL     1      24.204   1.256  52.185  1.00  0.00    -0.017 A 
HETATM   19  H19 UNL     1      22.574  -0.853  54.287  1.00  0.00     0.167 HD
ENDROOT
BRANCH   1  20
HETATM   20  C6  UNL     1      22.889   3.252  52.306  1.00  0.00     0.182 C 
BRANCH  20  21
HETATM   21  O1  UNL     1      23.476   4.483  52.423  1.00  0.00    -0.390 OA
BRANCH  21  22
HETATM   22  C5  UNL     1      24.097   4.984  51.313  1.00  0.00     0.169 C 
BRANCH  22  23
HETATM   23  C4  UNL     1      23.563   6.399  51.039  1.00  0.00     0.056 C 
BRANCH  23  24
HETATM   24  C3  UNL     1      22.521   6.273  49.967  1.00  0.00     0.273 C 
BRANCH  24  25
HETATM   25  N1  UNL     1      21.174   6.301  50.437  1.00  0.00     0.080 N 
HETATM   26  C1  UNL     1      20.441   5.086  50.288  1.00  0.00     0.309 C 
HETATM   27  C2  UNL     1      20.458   7.375  49.779  1.00  0.00     0.309 C 
ENDBRANCH  24  25
ENDBRANCH  23  24
ENDBRANCH  22  23
ENDBRANCH  21  22
ENDBRANCH  20  21
ENDBRANCH   1  20
TORSDOF 6
ENDMDL
MODEL 6
REMARK VINA RESULT:      -7.1      2.386      5.670
REMARK  6 active torsions:
REMARK  status: ('A' for Active; 'I' for Inactive)
REMARK    1  A    between atoms: N1_2  and  C3_4 
REMARK    2  A    between atoms: C3_4  and  C4_5 
REMARK    3  A    between atoms: C4_5  and  C5_6 
REMARK    4  A    between atoms: C5_6  and  O1_7 
REMARK    5  A    between atoms: O1_7  and  C6_8 
REMARK    6  A    between atoms: C6_8  and  C7_9 
ROOT
HETATM    1  C7  UNL     1      23.047   2.215  51.621  1.00  0.00     0.089 C 
HETATM    2  C8  UNL     1      23.106   3.686  51.654  1.00  0.00     0.023 C 
HETATM    3 CL1  UNL     1      21.861   4.628  52.495  1.00  0.00    -0.088 Cl
HETATM    4  C9  UNL     1      23.953   4.573  51.159  1.00  0.00     0.037 C 
HETATM    5  C10 UNL     1      25.189   4.495  50.370  1.00  0.00     0.029 A 
HETATM    6  C11 UNL     1      25.296   5.632  49.610  1.00  0.00     0.133 A 
HETATM    7  N2  UNL     1      26.360   5.773  48.804  1.00  0.00    -0.253 NA
HETATM    8  C12 UNL     1      27.347   4.853  48.692  1.00  0.00     0.234 A 
HETATM    9  N3  UNL     1      27.279   3.713  49.428  1.00  0.00    -0.224 NA
HETATM   10  C13 UNL     1      26.224   3.559  50.234  1.00  0.00     0.141 A 
HETATM   11  N4  UNL     1      26.453   2.274  50.855  1.00  0.00    -0.340 N 
HETATM   12  C14 UNL     1      25.655   1.498  51.775  1.00  0.00     0.041 A 
HETATM   13  C15 UNL     1      26.556   0.666  52.394  1.00  0.00     0.033 A 
HETATM   14  C16 UNL     1      26.099  -0.230  53.361  1.00  0.00     0.044 A 
HETATM   15  C17 UNL     1      24.763  -0.271  53.680  1.00  0.00     0.117 A 
HETATM   16  F1  UNL     1      24.242  -1.116  54.609  1.00  0.00    -0.206 F 
HETATM   17  C18 UNL     1      23.922   0.595  53.015  1.00  0.00     0.052 A 
HETATM   18  C19 UNL     1      24.282   1.523  52.037  1.00  0.00    -0.017 A 
HETATM   19  H19 UNL     1      27.351   1.801  50.613  1.00  0.00     0.167 HD
ENDROOT
BRANCH   1  20
HETATM   20  C6  UNL     1      22.802   1.827  50.180  1.00  0.00     0.182 C 
BRANCH  20  21
HETATM   21  O1  UNL     1      21.554   2.149  49.722  1.00  0.00    -0.390 OA
BRANCH  21  22
HETATM   22  C5  UNL     1      20.602   1.167  49.766  1.00  0.00     0.169 C 
BRANCH  22  23
HETATM   23  C4  UNL     1      19.635   1.462  50.922  1.00  0.00     0.056 C 
BRANCH  23  24
HETATM   24  C3  UNL     1      18.986   0.160  51.292  1.00  0.00     0.273 C 
BRANCH  24  25
HETATM   25  N1  UNL     1      18.922  -0.099  52.693  1.00  0.00     0.080 N 
HETATM   26  C1  UNL     1      20.170  -0.358  53.332  1.00  0.00     0.309 C 
HETATM   27  C2  UNL     1      18.020  -1.207  52.935  1.00  0.00     0.309 C 
ENDBRANCH  24  25
ENDBRANCH  23  24
ENDBRANCH  22  23
ENDBRANCH  21  22
ENDBRANCH  20  21
ENDBRANCH   1  20
TORSDOF 6
ENDMDL
MODEL 7
REMARK VINA RESULT:      -6.9      2.689      5.456
REMARK  6 active torsions:
REMARK  status: ('A' for Active; 'I' for Inactive)
REMARK    1  A    between atoms: N1_2  and  C3_4 
REMARK    2  A    between atoms: C3_4  and  C4_5 
REMARK    3  A    between atoms: C4_5  and  C5_6 
REMARK    4  A    between atoms: C5_6  and  O1_7 
REMARK    5  A    between atoms: O1_7  and  C6_8 
REMARK    6  A    between atoms: C6_8  and  C7_9 
ROOT
HETATM    1  C7  UNL     1      23.078   3.166  50.637  1.00  0.00     0.089 C 
HETATM    2  C8  UNL     1      23.251   4.626  50.713  1.00  0.00     0.023 C 
HETATM    3 CL1  UNL     1      21.988   5.656  51.415  1.00  0.00    -0.088 Cl
HETATM    4  C9  UNL     1      24.221   5.448  50.349  1.00  0.00     0.037 C 
HETATM    5  C10 UNL     1      25.537   5.280  49.719  1.00  0.00     0.029 A 
HETATM    6  C11 UNL     1      25.829   6.415  49.006  1.00  0.00     0.133 A 
HETATM    7  N2  UNL     1      26.994   6.479  48.343  1.00  0.00    -0.253 NA
HETATM    8  C12 UNL     1      27.911   5.483  48.333  1.00  0.00     0.234 A 
HETATM    9  N3  UNL     1      27.660   4.342  49.027  1.00  0.00    -0.224 NA
HETATM   10  C13 UNL     1      26.502   4.264  49.691  1.00  0.00     0.141 A 
HETATM   11  N4  UNL     1      26.548   2.956  50.305  1.00  0.00    -0.340 N 
HETATM   12  C14 UNL     1      25.581   2.236  51.098  1.00  0.00     0.041 A 
HETATM   13  C15 UNL     1      26.327   1.324  51.805  1.00  0.00     0.033 A 
HETATM   14  C16 UNL     1      25.682   0.454  52.685  1.00  0.00     0.044 A 
HETATM   15  C17 UNL     1      24.318   0.519  52.834  1.00  0.00     0.117 A 
HETATM   16  F1  UNL     1      23.617  -0.294  53.670  1.00  0.00    -0.206 F 
HETATM   17  C18 UNL     1      23.638   1.460  52.090  1.00  0.00     0.052 A 
HETATM   18  C19 UNL     1      24.192   2.369  51.188  1.00  0.00    -0.017 A 
HETATM   19  H19 UNL     1      27.429   2.414  50.166  1.00  0.00     0.167 HD
ENDROOT
BRANCH   1  20
HETATM   20  C6  UNL     1      22.988   2.819  49.168  1.00  0.00     0.182 C 
BRANCH  20  21
HETATM   21  O1  UNL     1      22.358   1.631  48.915  1.00  0.00    -0.390 OA
BRANCH  21  22
HETATM   22  C5  UNL     1      21.050   1.692  48.520  1.00  0.00     0.169 C 
BRANCH  22  23
HETATM   23  C4  UNL     1      20.156   1.229  49.681  1.00  0.00     0.056 C 
BRANCH  23  24
HETATM   24  C3  UNL     1      19.127   2.300  49.895  1.00  0.00     0.273 C 
BRANCH  24  25
HETATM   25  N1  UNL     1      19.324   3.091  51.065  1.00  0.00     0.080 N 
HETATM   26  C1  UNL     1      19.849   2.402  52.198  1.00  0.00     0.309 C 
HETATM   27  C2  UNL     1      18.074   3.729  51.429  1.00  0.00     0.309 C 
ENDBRANCH  24  25
ENDBRANCH  23  24
ENDBRANCH  22  23
ENDBRANCH  21  22
ENDBRANCH  20  21
ENDBRANCH   1  20
TORSDOF 6
ENDMDL
MODEL 8
REMARK VINA RESULT:      -6.8      3.418      5.398
REMARK  6 active torsions:
REMARK  status: ('A' for Active; 'I' for Inactive)
REMARK    1  A    between atoms: N1_2  and  C3_4 
REMARK    2  A    between atoms: C3_4  and  C4_5 
REMARK    3  A    between atoms: C4_5  and  C5_6 
REMARK    4  A    between atoms: C5_6  and  O1_7 
REMARK    5  A    between atoms: O1_7  and  C6_8 
REMARK    6  A    between atoms: C6_8  and  C7_9 
ROOT
HETATM    1  C7  UNL     1      22.540   3.222  50.003  1.00  0.00     0.089 C 
HETATM    2  C8  UNL     1      21.558   2.159  49.727  1.00  0.00     0.023 C 
HETATM    3 CL1  UNL     1      20.754   2.050  48.150  1.00  0.00    -0.088 Cl
HETATM    4  C9  UNL     1      21.079   1.157  50.444  1.00  0.00     0.037 C 
HETATM    5  C10 UNL     1      21.303   0.660  51.808  1.00  0.00     0.029 A 
HETATM    6  C11 UNL     1      20.154   0.051  52.246  1.00  0.00     0.133 A 
HETATM    7  N2  UNL     1      20.134  -0.479  53.479  1.00  0.00    -0.253 NA
HETATM    8  C12 UNL     1      21.188  -0.451  54.328  1.00  0.00     0.234 A 
HETATM    9  N3  UNL     1      22.344   0.143  53.932  1.00  0.00    -0.224 NA
HETATM   10  C13 UNL     1      22.378   0.676  52.707  1.00  0.00     0.141 A 
HETATM   11  N4  UNL     1      23.716   1.213  52.604  1.00  0.00    -0.340 N 
HETATM   12  C14 UNL     1      24.367   1.971  51.563  1.00  0.00     0.041 A 
HETATM   13  C15 UNL     1      25.709   1.760  51.771  1.00  0.00     0.033 A 
HETATM   14  C16 UNL     1      26.633   2.365  50.918  1.00  0.00     0.044 A 
HETATM   15  C17 UNL     1      26.193   3.159  49.886  1.00  0.00     0.117 A 
HETATM   16  F1  UNL     1      27.030   3.782  49.014  1.00  0.00    -0.206 F 
HETATM   17  C18 UNL     1      24.832   3.323  49.742  1.00  0.00     0.052 A 
HETATM   18  C19 UNL     1      23.835   2.763  50.541  1.00  0.00    -0.017 A 
HETATM   19  H19 UNL     1      24.346   1.033  53.416  1.00  0.00     0.167 HD
ENDROOT
BRANCH   1  20
HETATM   20  C6  UNL     1      21.926   4.111  51.061  1.00  0.00     0.182 C 
BRANCH  20  21
HETATM   21  O1  UNL     1      20.759   4.711  50.674  1.00  0.00    -0.390 OA
BRANCH  21  22
HETATM   22  C5  UNL     1      20.854   5.958  50.121  1.00  0.00     0.169 C 
BRANCH  22  23
HETATM   23  C4  UNL     1      21.810   6.810  50.971  1.00  0.00     0.056 C 
BRANCH  23  24
HETATM   24  C3  UNL     1      22.477   7.779  50.040  1.00  0.00     0.273 C 
BRANCH  24  25
HETATM   25  N1  UNL     1      23.865   7.539  49.822  1.00  0.00     0.080 N 
HETATM   26  C1  UNL     1      24.189   6.802  48.644  1.00  0.00     0.309 C 
HETATM   27  C2  UNL     1      24.423   6.864  50.977  1.00  0.00     0.309 C 
ENDBRANCH  24  25
ENDBRANCH  23  24
ENDBRANCH  22  23
ENDBRANCH  21  22
ENDBRANCH  20  21
ENDBRANCH   1  20
TORSDOF 6
ENDMDL
MODEL 9
REMARK VINA RESULT:      -6.6      2.700      4.884
REMARK  6 active torsions:
REMARK  status: ('A' for Active; 'I' for Inactive)
REMARK    1  A    between atoms: N1_2  and  C3_4 
REMARK    2  A    between atoms: C3_4  and  C4_5 
REMARK    3  A    between atoms: C4_5  and  C5_6 
REMARK    4  A    between atoms: C5_6  and  O1_7 
REMARK    5  A    between atoms: O1_7  and  C6_8 
REMARK    6  A    between atoms: C6_8  and  C7_9 
ROOT
HETATM    1  C7  UNL     1      23.221   2.487  51.389  1.00  0.00     0.089 C 
HETATM    2  C8  UNL     1      23.310   3.954  51.488  1.00  0.00     0.023 C 
HETATM    3 CL1  UNL     1      22.095   4.880  52.391  1.00  0.00    -0.088 Cl
HETATM    4  C9  UNL     1      24.166   4.847  51.022  1.00  0.00     0.037 C 
HETATM    5  C10 UNL     1      25.389   4.783  50.212  1.00  0.00     0.029 A 
HETATM    6  C11 UNL     1      25.507   5.952  49.504  1.00  0.00     0.133 A 
HETATM    7  N2  UNL     1      26.562   6.110  48.689  1.00  0.00    -0.253 NA
HETATM    8  C12 UNL     1      27.530   5.178  48.520  1.00  0.00     0.234 A 
HETATM    9  N3  UNL     1      27.450   4.006  49.203  1.00  0.00    -0.224 NA
HETATM   10  C13 UNL     1      26.403   3.835  50.018  1.00  0.00     0.141 A 
HETATM   11  N4  UNL     1      26.616   2.519  50.576  1.00  0.00    -0.340 N 
HETATM   12  C14 UNL     1      25.817   1.716  51.470  1.00  0.00     0.041 A 
HETATM   13  C15 UNL     1      26.710   0.839  52.037  1.00  0.00     0.033 A 
HETATM   14  C16 UNL     1      26.250  -0.092  52.969  1.00  0.00     0.044 A 
HETATM   15  C17 UNL     1      24.918  -0.122  53.305  1.00  0.00     0.117 A 
HETATM   16  F1  UNL     1      24.393  -1.000  54.202  1.00  0.00    -0.206 F 
HETATM   17  C18 UNL     1      24.084   0.788  52.693  1.00  0.00     0.052 A 
HETATM   18  C19 UNL     1      24.448   1.754  51.754  1.00  0.00    -0.017 A 
HETATM   19  H19 UNL     1      27.502   2.040  50.299  1.00  0.00     0.167 HD
ENDROOT
BRANCH   1  20
HETATM   20  C6  UNL     1      22.949   2.171  49.936  1.00  0.00     0.182 C 
BRANCH  20  21
HETATM   21  O1  UNL     1      22.094   1.119  49.746  1.00  0.00    -0.390 OA
BRANCH  21  22
HETATM   22  C5  UNL     1      21.128   1.266  48.790  1.00  0.00     0.169 C 
BRANCH  22  23
HETATM   23  C4  UNL     1      20.644   2.724  48.790  1.00  0.00     0.056 C 
BRANCH  23  24
HETATM   24  C3  UNL     1      20.605   3.172  47.358  1.00  0.00     0.273 C 
BRANCH  24  25
HETATM   25  N1  UNL     1      20.729   4.580  47.170  1.00  0.00     0.080 N 
HETATM   26  C1  UNL     1      19.528   5.267  46.821  1.00  0.00     0.309 C 
HETATM   27  C2  UNL     1      21.740   4.843  46.164  1.00  0.00     0.309 C 
ENDBRANCH  24  25
ENDBRANCH  23  24
ENDBRANCH  22  23
ENDBRANCH  21  22
ENDBRANCH  20  21
ENDBRANCH   1  20
TORSDOF 6
ENDMDL
