MODEL 1
REMARK VINA RESULT:      -8.7      0.000      0.000
REMARK  5 active torsions:
REMARK  status: ('A' for Active; 'I' for Inactive)
REMARK    1  A    between atoms: N1_1  and  C1_2 
REMARK    2  A    between atoms: N4_10  and  C7_11 
REMARK    3  A    between atoms: C7_11  and  C8_12 
REMARK    4  A    between atoms: C8_12  and  C9_13 
REMARK    5  A    between atoms: C13_17  and  O1_18 
ROOT
HETATM    1  C8  UNL     1      24.647   2.215  53.181  1.00  0.00     0.027 C 
ENDROOT
BRANCH   1   2
HETATM    2  C7  UNL     1      25.636   2.082  52.050  1.00  0.00     0.130 C 
BRANCH   2   3
HETATM    3  N4  UNL     1      26.838   1.439  52.571  1.00  0.00    -0.341 N 
HETATM    4  C3  UNL     1      27.160   0.142  52.681  1.00  0.00     0.145 A 
HETATM    5  N3  UNL     1      26.458  -0.934  52.338  1.00  0.00    -0.223 NA
HETATM    6  C4  UNL     1      28.425   0.023  53.244  1.00  0.00     0.057 A 
HETATM    7  C2  UNL     1      26.983  -2.176  52.540  1.00  0.00     0.237 A 
HETATM    8  N2  UNL     1      28.210  -2.353  53.085  1.00  0.00    -0.224 NA
HETATM    9  C1  UNL     1      28.914  -1.256  53.429  1.00  0.00     0.136 A 
HETATM   10  C5  UNL     1      28.889   1.301  53.486  1.00  0.00     0.036 A 
HETATM   11  C6  UNL     1      27.891   2.152  53.062  1.00  0.00     0.093 A 
BRANCH   9  12
HETATM   12  N1  UNL     1      30.221  -1.318  54.013  1.00  0.00    -0.383 N 
HETATM   13  H1  UNL     1      30.990  -2.013  54.142  1.00  0.00     0.157 HD
HETATM   14  H2  UNL     1      30.652  -0.484  54.485  1.00  0.00     0.157 HD
ENDBRANCH   9  12
ENDBRANCH   2   3
ENDBRANCH   1   2
BRANCH   1  15
HETATM   15  C9  UNL     1      23.349   1.535  52.897  1.00  0.00     0.019 C 
HETATM   16  C10 UNL     1      23.136   0.200  53.233  1.00  0.00     0.033 C 
HETATM   17  C11 UNL     1      23.089  -0.747  54.287  1.00  0.00    -0.024 C 
HETATM   18  C12 UNL     1      21.804  -1.241  54.446  1.00  0.00     0.032 C 
HETATM   19  C13 UNL     1      20.590  -0.862  53.661  1.00  0.00     0.063 C 
HETATM   20  C14 UNL     1      20.189  -0.066  52.678  1.00  0.00     0.045 C 
HETATM   21  C15 UNL     1      20.628   0.981  51.683  1.00  0.00     0.250 C 
HETATM   22  C16 UNL     1      19.956   0.758  50.319  1.00  0.00     0.070 C 
HETATM   23  N5  UNL     1      21.849   0.821  51.045  1.00  0.00     0.097 N 
HETATM   24  C17 UNL     1      21.334   1.137  49.751  1.00  0.00     0.275 C 
HETATM   25  C18 UNL     1      23.038   1.559  51.369  1.00  0.00     0.278 C 
BRANCH  19  26
HETATM   26  O1  UNL     1      19.520  -1.643  54.173  1.00  0.00    -0.361 OA
HETATM   27  H15 UNL     1      19.837  -2.488  54.644  1.00  0.00     0.217 HD
ENDBRANCH  19  26
ENDBRANCH   1  15
TORSDOF 5
ENDMDL
MODEL 2
REMARK VINA RESULT:      -8.3      1.099      1.977
REMARK  5 active torsions:
REMARK  status: ('A' for Active; 'I' for Inactive)
REMARK    1  A    between atoms: N1_1  and  C1_2 
REMARK    2  A    between atoms: N4_10  and  C7_11 
REMARK    3  A    between atoms: C7_11  and  C8_12 
REMARK    4  A    between atoms: C8_12  and  C9_13 
REMARK    5  A    between atoms: C13_17  and  O1_18 
ROOT
HETATM    1  C8  UNL     1      23.858   1.958  52.854  1.00  0.00     0.027 C 
ENDROOT
BRANCH   1   2
HETATM    2  C7  UNL     1      24.820   1.629  51.739  1.00  0.00     0.130 C 
BRANCH   2   3
HETATM    3  N4  UNL     1      25.869   0.772  52.282  1.00  0.00    -0.341 N 
HETATM    4  C3  UNL     1      27.037   1.078  52.863  1.00  0.00     0.145 A 
HETATM    5  N3  UNL     1      27.570   2.271  53.110  1.00  0.00    -0.223 NA
HETATM    6  C4  UNL     1      27.700  -0.091  53.218  1.00  0.00     0.057 A 
HETATM    7  C2  UNL     1      28.786   2.354  53.721  1.00  0.00     0.237 A 
HETATM    8  N2  UNL     1      29.479   1.250  54.088  1.00  0.00    -0.224 NA
HETATM    9  C1  UNL     1      28.930   0.045  53.834  1.00  0.00     0.136 A 
HETATM   10  C5  UNL     1      26.901  -1.150  52.835  1.00  0.00     0.036 A 
HETATM   11  C6  UNL     1      25.780  -0.589  52.261  1.00  0.00     0.093 A 
BRANCH   9  12
HETATM   12  N1  UNL     1      29.568  -1.191  54.176  1.00  0.00    -0.383 N 
HETATM   13  H1  UNL     1      30.535  -1.578  54.260  1.00  0.00     0.157 HD
HETATM   14  H2  UNL     1      29.010  -2.042  54.440  1.00  0.00     0.157 HD
ENDBRANCH   9  12
ENDBRANCH   2   3
ENDBRANCH   1   2
BRANCH   1  15
HETATM   15  C9  UNL     1      22.515   1.336  52.661  1.00  0.00     0.019 C 
HETATM   16  C10 UNL     1      22.289  -0.011  52.935  1.00  0.00     0.033 C 
HETATM   17  C11 UNL     1      22.312  -1.022  53.929  1.00  0.00    -0.024 C 
HETATM   18  C12 UNL     1      21.033  -1.486  54.186  1.00  0.00     0.032 C 
HETATM   19  C13 UNL     1      19.761  -1.023  53.553  1.00  0.00     0.063 C 
HETATM   20  C14 UNL     1      19.293  -0.153  52.665  1.00  0.00     0.045 C 
HETATM   21  C15 UNL     1      19.669   0.942  51.697  1.00  0.00     0.250 C 
HETATM   22  C16 UNL     1      18.859   0.827  50.396  1.00  0.00     0.070 C 
HETATM   23  N5  UNL     1      20.815   0.787  50.931  1.00  0.00     0.097 N 
HETATM   24  C17 UNL     1      20.186   1.201  49.717  1.00  0.00     0.275 C 
HETATM   25  C18 UNL     1      22.055   1.468  51.177  1.00  0.00     0.278 C 
BRANCH  19  26
HETATM   26  O1  UNL     1      18.720  -1.803  54.122  1.00  0.00    -0.361 OA
HETATM   27  H15 UNL     1      17.806  -1.591  53.727  1.00  0.00     0.217 HD
ENDBRANCH  19  26
ENDBRANCH   1  15
TORSDOF 5
ENDMDL
MODEL 3
REMARK VINA RESULT:      -8.3      3.854      5.731
REMARK  5 active torsions:
REMARK  status: ('A' for Active; 'I' for Inactive)
REMARK    1  A    between atoms: N1_1  and  C1_2 
REMARK    2  A    between atoms: N4_10  and  C7_11 
REMARK    3  A    between atoms: C7_11  and  C8_12 
REMARK    4  A    between atoms: C8_12  and  C9_13 
REMARK    5  A    between atoms: C13_17  and  O1_18 
ROOT
HETATM    1  C8  UNL     1      25.015   2.280  51.538  1.00  0.00     0.027 C 
ENDROOT
BRANCH   1   2
HETATM    2  C7  UNL     1      26.191   2.234  52.482  1.00  0.00     0.130 C 
BRANCH   2   3
HETATM    3  N4  UNL     1      26.612   0.843  52.617  1.00  0.00    -0.341 N 
HETATM    4  C3  UNL     1      27.786   0.315  52.990  1.00  0.00     0.145 A 
HETATM    5  N3  UNL     1      28.911   0.927  53.347  1.00  0.00    -0.223 NA
HETATM    6  C4  UNL     1      27.701  -1.072  52.965  1.00  0.00     0.057 A 
HETATM    7  C2  UNL     1      30.001   0.186  53.695  1.00  0.00     0.237 A 
HETATM    8  N2  UNL     1      29.978  -1.168  53.689  1.00  0.00    -0.224 NA
HETATM    9  C1  UNL     1      28.833  -1.779  53.326  1.00  0.00     0.136 A 
HETATM   10  C5  UNL     1      26.422  -1.399  52.559  1.00  0.00     0.036 A 
HETATM   11  C6  UNL     1      25.774  -0.200  52.351  1.00  0.00     0.093 A 
BRANCH   9  12
HETATM   12  N1  UNL     1      28.687  -3.204  53.281  1.00  0.00    -0.383 N 
HETATM   13  H1  UNL     1      28.504  -3.951  52.574  1.00  0.00     0.157 HD
HETATM   14  H2  UNL     1      28.766  -3.792  54.148  1.00  0.00     0.157 HD
ENDBRANCH   9  12
ENDBRANCH   2   3
ENDBRANCH   1   2
BRANCH   1  15
HETATM   15  C9  UNL     1      25.084   3.423  50.582  1.00  0.00     0.019 C 
HETATM   16  C10 UNL     1      24.266   3.483  49.457  1.00  0.00     0.033 C 
HETATM   17  C11 UNL     1      22.930   3.522  48.983  1.00  0.00    -0.024 C 
HETATM   18  C12 UNL     1      22.664   4.734  48.365  1.00  0.00     0.032 C 
HETATM   19  C13 UNL     1      23.602   5.885  48.197  1.00  0.00     0.063 C 
HETATM   20  C14 UNL     1      24.840   6.272  48.480  1.00  0.00     0.045 C 
HETATM   21  C15 UNL     1      26.138   5.869  49.136  1.00  0.00     0.250 C 
HETATM   22  C16 UNL     1      27.342   6.330  48.300  1.00  0.00     0.070 C 
HETATM   23  N5  UNL     1      26.591   4.569  48.968  1.00  0.00     0.097 N 
HETATM   24  C17 UNL     1      27.933   4.962  48.678  1.00  0.00     0.275 C 
HETATM   25  C18 UNL     1      26.515   3.546  49.974  1.00  0.00     0.278 C 
BRANCH  19  26
HETATM   26  O1  UNL     1      22.888   6.887  47.489  1.00  0.00    -0.361 OA
HETATM   27  H15 UNL     1      22.451   6.536  46.639  1.00  0.00     0.217 HD
ENDBRANCH  19  26
ENDBRANCH   1  15
TORSDOF 5
ENDMDL
MODEL 4
REMARK VINA RESULT:      -8.2      2.750      7.683
REMARK  5 active torsions:
REMARK  status: ('A' for Active; 'I' for Inactive)
REMARK    1  A    between atoms: N1_1  and  C1_2 
REMARK    2  A    between atoms: N4_10  and  C7_11 
REMARK    3  A    between atoms: C7_11  and  C8_12 
REMARK    4  A    between atoms: C8_12  and  C9_13 
REMARK    5  A    between atoms: C13_17  and  O1_18 
ROOT
HETATM    1  C8  UNL     1      24.034  -0.818  53.081  1.00  0.00     0.027 C 
ENDROOT
BRANCH   1   2
HETATM    2  C7  UNL     1      23.107   0.289  53.518  1.00  0.00     0.130 C 
BRANCH   2   3
HETATM    3  N4  UNL     1      22.090   0.464  52.486  1.00  0.00    -0.341 N 
HETATM    4  C3  UNL     1      20.798   0.107  52.459  1.00  0.00     0.145 A 
HETATM    5  N3  UNL     1      20.076  -0.516  53.386  1.00  0.00    -0.223 NA
HETATM    6  C4  UNL     1      20.234   0.492  51.249  1.00  0.00     0.057 A 
HETATM    7  C2  UNL     1      18.760  -0.783  53.148  1.00  0.00     0.237 A 
HETATM    8  N2  UNL     1      18.157  -0.433  51.988  1.00  0.00    -0.224 NA
HETATM    9  C1  UNL     1      18.897   0.198  51.055  1.00  0.00     0.136 A 
HETATM   10  C5  UNL     1      21.226   1.107  50.510  1.00  0.00     0.036 A 
HETATM   11  C6  UNL     1      22.357   1.075  51.297  1.00  0.00     0.093 A 
BRANCH   9  12
HETATM   12  N1  UNL     1      18.370   0.617  49.790  1.00  0.00    -0.383 N 
HETATM   13  H1  UNL     1      17.499   0.498  49.226  1.00  0.00     0.157 HD
HETATM   14  H2  UNL     1      18.924   1.228  49.139  1.00  0.00     0.157 HD
ENDBRANCH   9  12
ENDBRANCH   2   3
ENDBRANCH   1   2
BRANCH   1  15
HETATM   15  C9  UNL     1      25.473  -0.430  53.155  1.00  0.00     0.019 C 
HETATM   16  C10 UNL     1      26.017   0.521  52.294  1.00  0.00     0.033 C 
HETATM   17  C11 UNL     1      25.958   1.866  51.850  1.00  0.00    -0.024 C 
HETATM   18  C12 UNL     1      27.118   2.545  52.187  1.00  0.00     0.032 C 
HETATM   19  C13 UNL     1      28.298   2.001  52.925  1.00  0.00     0.063 C 
HETATM   20  C14 UNL     1      28.747   0.895  53.507  1.00  0.00     0.045 C 
HETATM   21  C15 UNL     1      28.424  -0.542  53.837  1.00  0.00     0.250 C 
HETATM   22  C16 UNL     1      29.656  -1.440  53.644  1.00  0.00     0.070 C 
HETATM   23  N5  UNL     1      27.781  -1.315  52.880  1.00  0.00     0.097 N 
HETATM   24  C17 UNL     1      28.646  -2.438  53.055  1.00  0.00     0.275 C 
HETATM   25  C18 UNL     1      26.390  -1.669  52.923  1.00  0.00     0.278 C 
BRANCH  19  26
HETATM   26  O1  UNL     1      29.241   3.059  53.014  1.00  0.00    -0.361 OA
HETATM   27  H15 UNL     1      29.977   2.878  53.693  1.00  0.00     0.217 HD
ENDBRANCH  19  26
ENDBRANCH   1  15
TORSDOF 5
ENDMDL
MODEL 5
REMARK VINA RESULT:      -8.0      2.594      3.551
REMARK  5 active torsions:
REMARK  status: ('A' for Active; 'I' for Inactive)
REMARK    1  A    between atoms: N1_1  and  C1_2 
REMARK    2  A    between atoms: N4_10  and  C7_11 
REMARK    3  A    between atoms: C7_11  and  C8_12 
REMARK    4  A    between atoms: C8_12  and  C9_13 
REMARK    5  A    between atoms: C13_17  and  O1_18 
ROOT
HETATM    1  C8  UNL     1      25.747   2.618  51.500  1.00  0.00     0.027 C 
ENDROOT
BRANCH   1   2
HETATM    2  C7  UNL     1      26.248   2.274  52.881  1.00  0.00     0.130 C 
BRANCH   2   3
HETATM    3  N4  UNL     1      26.623   0.864  52.891  1.00  0.00    -0.341 N 
HETATM    4  C3  UNL     1      27.798   0.272  53.147  1.00  0.00     0.145 A 
HETATM    5  N3  UNL     1      28.967   0.819  53.468  1.00  0.00    -0.223 NA
HETATM    6  C4  UNL     1      27.659  -1.106  53.031  1.00  0.00     0.057 A 
HETATM    7  C2  UNL     1      30.048   0.019  53.690  1.00  0.00     0.237 A 
HETATM    8  N2  UNL     1      29.973  -1.330  53.591  1.00  0.00    -0.224 NA
HETATM    9  C1  UNL     1      28.784  -1.875  53.265  1.00  0.00     0.136 A 
HETATM   10  C5  UNL     1      26.345  -1.360  52.691  1.00  0.00     0.036 A 
HETATM   11  C6  UNL     1      25.731  -0.129  52.611  1.00  0.00     0.093 A 
BRANCH   9  12
HETATM   12  N1  UNL     1      28.582  -3.287  53.131  1.00  0.00    -0.383 N 
HETATM   13  H1  UNL     1      29.102  -4.124  52.783  1.00  0.00     0.157 HD
HETATM   14  H2  UNL     1      27.687  -3.745  53.436  1.00  0.00     0.157 HD
ENDBRANCH   9  12
ENDBRANCH   2   3
ENDBRANCH   1   2
BRANCH   1  15
HETATM   15  C9  UNL     1      24.385   3.228  51.514  1.00  0.00     0.019 C 
HETATM   16  C10 UNL     1      23.266   2.521  51.082  1.00  0.00     0.033 C 
HETATM   17  C11 UNL     1      22.457   1.374  51.284  1.00  0.00    -0.024 C 
HETATM   18  C12 UNL     1      21.186   1.738  51.701  1.00  0.00     0.032 C 
HETATM   19  C13 UNL     1      20.677   3.122  51.936  1.00  0.00     0.063 C 
HETATM   20  C14 UNL     1      21.056   4.395  51.901  1.00  0.00     0.045 C 
HETATM   21  C15 UNL     1      22.205   5.330  51.616  1.00  0.00     0.250 C 
HETATM   22  C16 UNL     1      21.722   6.580  50.865  1.00  0.00     0.070 C 
HETATM   23  N5  UNL     1      23.025   5.063  50.530  1.00  0.00     0.097 N 
HETATM   24  C17 UNL     1      23.022   6.413  50.062  1.00  0.00     0.275 C 
HETATM   25  C18 UNL     1      24.347   4.509  50.626  1.00  0.00     0.278 C 
BRANCH  19  26
HETATM   26  O1  UNL     1      19.319   2.991  52.332  1.00  0.00    -0.361 OA
HETATM   27  H15 UNL     1      19.184   2.285  53.053  1.00  0.00     0.217 HD
ENDBRANCH  19  26
ENDBRANCH   1  15
TORSDOF 5
ENDMDL
MODEL 6
REMARK VINA RESULT:      -7.9      2.615      3.945
REMARK  5 active torsions:
REMARK  status: ('A' for Active; 'I' for Inactive)
REMARK    1  A    between atoms: N1_1  and  C1_2 
REMARK    2  A    between atoms: N4_10  and  C7_11 
REMARK    3  A    between atoms: C7_11  and  C8_12 
REMARK    4  A    between atoms: C8_12  and  C9_13 
REMARK    5  A    between atoms: C13_17  and  O1_18 
ROOT
HETATM    1  C8  UNL     1      23.481   2.035  52.925  1.00  0.00     0.027 C 
ENDROOT
BRANCH   1   2
HETATM    2  C7  UNL     1      24.908   2.429  53.213  1.00  0.00     0.130 C 
BRANCH   2   3
HETATM    3  N4  UNL     1      25.726   1.220  53.189  1.00  0.00    -0.341 N 
HETATM    4  C3  UNL     1      27.014   1.028  53.508  1.00  0.00     0.145 A 
HETATM    5  N3  UNL     1      27.916   1.904  53.941  1.00  0.00    -0.223 NA
HETATM    6  C4  UNL     1      27.344  -0.309  53.322  1.00  0.00     0.057 A 
HETATM    7  C2  UNL     1      29.187   1.488  54.209  1.00  0.00     0.237 A 
HETATM    8  N2  UNL     1      29.566   0.198  54.046  1.00  0.00    -0.224 NA
HETATM    9  C1  UNL     1      28.645  -0.682  53.607  1.00  0.00     0.136 A 
HETATM   10  C5  UNL     1      26.210  -0.954  52.872  1.00  0.00     0.036 A 
HETATM   11  C6  UNL     1      25.229   0.012  52.799  1.00  0.00     0.093 A 
BRANCH   9  12
HETATM   12  N1  UNL     1      28.928  -2.070  53.396  1.00  0.00    -0.383 N 
HETATM   13  H1  UNL     1      28.718  -2.816  52.695  1.00  0.00     0.157 HD
HETATM   14  H2  UNL     1      29.511  -2.622  54.076  1.00  0.00     0.157 HD
ENDBRANCH   9  12
ENDBRANCH   2   3
ENDBRANCH   1   2
BRANCH   1  15
HETATM   15  C9  UNL     1      22.993   2.549  51.611  1.00  0.00     0.019 C 
HETATM   16  C10 UNL     1      22.562   1.688  50.605  1.00  0.00     0.033 C 
HETATM   17  C11 UNL     1      21.631   0.680  50.248  1.00  0.00    -0.024 C 
HETATM   18  C12 UNL     1      20.783   1.128  49.248  1.00  0.00     0.032 C 
HETATM   19  C13 UNL     1      20.785   2.474  48.600  1.00  0.00     0.063 C 
HETATM   20  C14 UNL     1      21.409   3.646  48.630  1.00  0.00     0.045 C 
HETATM   21  C15 UNL     1      22.507   4.441  49.294  1.00  0.00     0.250 C 
HETATM   22  C16 UNL     1      23.277   5.281  48.263  1.00  0.00     0.070 C 
HETATM   23  N5  UNL     1      23.705   3.804  49.586  1.00  0.00     0.097 N 
HETATM   24  C17 UNL     1      24.514   4.865  49.074  1.00  0.00     0.275 C 
HETATM   25  C18 UNL     1      24.102   3.383  50.900  1.00  0.00     0.278 C 
BRANCH  19  26
HETATM   26  O1  UNL     1      19.753   2.455  47.626  1.00  0.00    -0.361 OA
HETATM   27  H15 UNL     1      20.071   2.753  46.706  1.00  0.00     0.217 HD
ENDBRANCH  19  26
ENDBRANCH   1  15
TORSDOF 5
ENDMDL
MODEL 7
REMARK VINA RESULT:      -7.9      3.742      6.088
REMARK  5 active torsions:
REMARK  status: ('A' for Active; 'I' for Inactive)
REMARK    1  A    between atoms: N1_1  and  C1_2 
REMARK    2  A    between atoms: N4_10  and  C7_11 
REMARK    3  A    between atoms: C7_11  and  C8_12 
REMARK    4  A    between atoms: C8_12  and  C9_13 
REMARK    5  A    between atoms: C13_17  and  O1_18 
ROOT
HETATM    1  C8  UNL     1      23.266   2.292  50.197  1.00  0.00     0.027 C 
ENDROOT
BRANCH   1   2
HETATM    2  C7  UNL     1      23.011   3.744  50.519  1.00  0.00     0.130 C 
BRANCH   2   3
HETATM    3  N4  UNL     1      24.198   4.507  50.146  1.00  0.00    -0.341 N 
HETATM    4  C3  UNL     1      24.456   5.820  50.224  1.00  0.00     0.145 A 
HETATM    5  N3  UNL     1      23.684   6.806  50.672  1.00  0.00    -0.223 NA
HETATM    6  C4  UNL     1      25.735   6.072  49.744  1.00  0.00     0.057 A 
HETATM    7  C2  UNL     1      24.152   8.087  50.662  1.00  0.00     0.237 A 
HETATM    8  N2  UNL     1      25.390   8.393  50.205  1.00  0.00    -0.224 NA
HETATM    9  C1  UNL     1      26.164   7.386  49.753  1.00  0.00     0.136 A 
HETATM   10  C5  UNL     1      26.276   4.861  49.358  1.00  0.00     0.036 A 
HETATM   11  C6  UNL     1      25.307   3.916  49.617  1.00  0.00     0.093 A 
BRANCH   9  12
HETATM   12  N1  UNL     1      27.489   7.586  49.247  1.00  0.00    -0.383 N 
HETATM   13  H1  UNL     1      28.071   8.362  48.856  1.00  0.00     0.157 HD
HETATM   14  H2  UNL     1      28.184   6.799  49.198  1.00  0.00     0.157 HD
ENDBRANCH   9  12
ENDBRANCH   2   3
ENDBRANCH   1   2
BRANCH   1  15
HETATM   15  C9  UNL     1      23.272   1.423  51.411  1.00  0.00     0.019 C 
HETATM   16  C10 UNL     1      22.326   1.576  52.422  1.00  0.00     0.033 C 
HETATM   17  C11 UNL     1      20.946   1.552  52.745  1.00  0.00    -0.024 C 
HETATM   18  C12 UNL     1      20.664   0.510  53.614  1.00  0.00     0.032 C 
HETATM   19  C13 UNL     1      21.628  -0.491  54.163  1.00  0.00     0.063 C 
HETATM   20  C14 UNL     1      22.908  -0.841  54.119  1.00  0.00     0.045 C 
HETATM   21  C15 UNL     1      24.256  -0.512  53.525  1.00  0.00     0.250 C 
HETATM   22  C16 UNL     1      25.370  -0.664  54.573  1.00  0.00     0.070 C 
HETATM   23  N5  UNL     1      24.624   0.821  53.410  1.00  0.00     0.097 N 
HETATM   24  C17 UNL     1      25.937   0.612  53.931  1.00  0.00     0.275 C 
HETATM   25  C18 UNL     1      24.622   1.560  52.179  1.00  0.00     0.278 C 
BRANCH  19  26
HETATM   26  O1  UNL     1      20.880  -1.343  55.019  1.00  0.00    -0.361 OA
HETATM   27  H15 UNL     1      20.745  -0.951  55.948  1.00  0.00     0.217 HD
ENDBRANCH  19  26
ENDBRANCH   1  15
TORSDOF 5
ENDMDL
MODEL 8
REMARK VINA RESULT:      -7.8      3.643      5.109
REMARK  5 active torsions:
REMARK  status: ('A' for Active; 'I' for Inactive)
REMARK    1  A    between atoms: N1_1  and  C1_2 
REMARK    2  A    between atoms: N4_10  and  C7_11 
REMARK    3  A    between atoms: C7_11  and  C8_12 
REMARK    4  A    between atoms: C8_12  and  C9_13 
REMARK    5  A    between atoms: C13_17  and  O1_18 
ROOT
HETATM    1  C8  UNL     1      22.747   3.296  51.874  1.00  0.00     0.027 C 
ENDROOT
BRANCH   1   2
HETATM    2  C7  UNL     1      22.964   3.185  50.385  1.00  0.00     0.130 C 
BRANCH   2   3
HETATM    3  N4  UNL     1      24.337   3.585  50.095  1.00  0.00    -0.341 N 
HETATM    4  C3  UNL     1      24.819   4.657  49.451  1.00  0.00     0.145 A 
HETATM    5  N3  UNL     1      24.165   5.670  48.890  1.00  0.00    -0.223 NA
HETATM    6  C4  UNL     1      26.208   4.599  49.427  1.00  0.00     0.057 A 
HETATM    7  C2  UNL     1      24.863   6.670  48.280  1.00  0.00     0.237 A 
HETATM    8  N2  UNL     1      26.216   6.667  48.224  1.00  0.00    -0.224 NA
HETATM    9  C1  UNL     1      26.870   5.636  48.796  1.00  0.00     0.136 A 
HETATM   10  C5  UNL     1      26.583   3.444  50.083  1.00  0.00     0.036 A 
HETATM   11  C6  UNL     1      25.411   2.839  50.483  1.00  0.00     0.093 A 
BRANCH   9  12
HETATM   12  N1  UNL     1      28.299   5.523  48.801  1.00  0.00    -0.383 N 
HETATM   13  H1  UNL     1      29.119   5.935  48.302  1.00  0.00     0.157 HD
HETATM   14  H2  UNL     1      28.796   4.867  49.453  1.00  0.00     0.157 HD
ENDBRANCH   9  12
ENDBRANCH   2   3
ENDBRANCH   1   2
BRANCH   1  15
HETATM   15  C9  UNL     1      22.143   2.066  52.464  1.00  0.00     0.019 C 
HETATM   16  C10 UNL     1      22.876   0.890  52.607  1.00  0.00     0.033 C 
HETATM   17  C11 UNL     1      24.014   0.286  53.198  1.00  0.00    -0.024 C 
HETATM   18  C12 UNL     1      23.635  -0.677  54.120  1.00  0.00     0.032 C 
HETATM   19  C13 UNL     1      22.242  -1.066  54.495  1.00  0.00     0.063 C 
HETATM   20  C14 UNL     1      20.972  -0.776  54.239  1.00  0.00     0.045 C 
HETATM   21  C15 UNL     1      20.047   0.102  53.431  1.00  0.00     0.250 C 
HETATM   22  C16 UNL     1      18.840  -0.698  52.918  1.00  0.00     0.070 C 
HETATM   23  N5  UNL     1      20.367   0.362  52.107  1.00  0.00     0.097 N 
HETATM   24  C17 UNL     1      19.043   0.116  51.630  1.00  0.00     0.275 C 
HETATM   25  C18 UNL     1      20.909   1.604  51.631  1.00  0.00     0.278 C 
BRANCH  19  26
HETATM   26  O1  UNL     1      22.359  -2.103  55.458  1.00  0.00    -0.361 OA
HETATM   27  H15 UNL     1      22.356  -1.757  56.415  1.00  0.00     0.217 HD
ENDBRANCH  19  26
ENDBRANCH   1  15
TORSDOF 5
ENDMDL
MODEL 9
REMARK VINA RESULT:      -7.8      4.581      6.657
REMARK  5 active torsions:
REMARK  status: ('A' for Active; 'I' for Inactive)
REMARK    1  A    between atoms: N1_1  and  C1_2 
REMARK    2  A    between atoms: N4_10  and  C7_11 
REMARK    3  A    between atoms: C7_11  and  C8_12 
REMARK    4  A    between atoms: C8_12  and  C9_13 
REMARK    5  A    between atoms: C13_17  and  O1_18 
ROOT
HETATM    1  C8  UNL     1      23.508   2.774  49.983  1.00  0.00     0.027 C 
ENDROOT
BRANCH   1   2
HETATM    2  C7  UNL     1      22.748   2.800  51.285  1.00  0.00     0.130 C 
BRANCH   2   3
HETATM    3  N4  UNL     1      23.259   1.727  52.132  1.00  0.00    -0.341 N 
HETATM    4  C3  UNL     1      24.391   1.638  52.845  1.00  0.00     0.145 A 
HETATM    5  N3  UNL     1      25.376   2.521  52.979  1.00  0.00    -0.223 NA
HETATM    6  C4  UNL     1      24.436   0.410  53.495  1.00  0.00     0.057 A 
HETATM    7  C2  UNL     1      26.449   2.222  53.766  1.00  0.00     0.237 A 
HETATM    8  N2  UNL     1      26.548   1.041  54.422  1.00  0.00    -0.224 NA
HETATM    9  C1  UNL     1      25.544   0.153  54.280  1.00  0.00     0.136 A 
HETATM   10  C5  UNL     1      23.284  -0.274  53.161  1.00  0.00     0.036 A 
HETATM   11  C6  UNL     1      22.579   0.561  52.321  1.00  0.00     0.093 A 
BRANCH   9  12
HETATM   12  N1  UNL     1      25.537  -1.127  54.924  1.00  0.00    -0.383 N 
HETATM   13  H1  UNL     1      25.505  -2.138  54.659  1.00  0.00     0.157 HD
HETATM   14  H2  UNL     1      25.569  -1.216  55.970  1.00  0.00     0.157 HD
ENDBRANCH   9  12
ENDBRANCH   2   3
ENDBRANCH   1   2
BRANCH   1  15
HETATM   15  C9  UNL     1      24.206   4.061  49.695  1.00  0.00     0.019 C 
HETATM   16  C10 UNL     1      25.586   4.189  49.834  1.00  0.00     0.033 C 
HETATM   17  C11 UNL     1      26.853   3.720  49.404  1.00  0.00    -0.024 C 
HETATM   18  C12 UNL     1      27.543   4.717  48.732  1.00  0.00     0.032 C 
HETATM   19  C13 UNL     1      27.072   6.107  48.453  1.00  0.00     0.063 C 
HETATM   20  C14 UNL     1      26.031   6.913  48.630  1.00  0.00     0.045 C 
HETATM   21  C15 UNL     1      24.640   7.020  49.207  1.00  0.00     0.250 C 
HETATM   22  C16 UNL     1      24.433   8.382  49.889  1.00  0.00     0.070 C 
HETATM   23  N5  UNL     1      24.383   6.429  50.435  1.00  0.00     0.097 N 
HETATM   24  C17 UNL     1      23.684   7.562  50.952  1.00  0.00     0.275 C 
HETATM   25  C18 UNL     1      23.660   5.200  50.609  1.00  0.00     0.278 C 
BRANCH  19  26
HETATM   26  O1  UNL     1      28.127   6.758  47.760  1.00  0.00    -0.361 OA
HETATM   27  H15 UNL     1      28.966   6.865  48.326  1.00  0.00     0.217 HD
ENDBRANCH  19  26
ENDBRANCH   1  15
TORSDOF 5
ENDMDL
