MODEL 1
REMARK VINA RESULT:      -7.5      0.000      0.000
REMARK  5 active torsions:
REMARK  status: ('A' for Active; 'I' for Inactive)
REMARK    1  A    between atoms: O1_2  and  C2_3 
REMARK    2  A    between atoms: C3_4  and  O2_5 
REMARK    3  A    between atoms: O2_5  and  C4_6 
REMARK    4  A    between atoms: C4_6  and  N1_7 
REMARK    5  A    between atoms: C7_12  and  C8_13 
ROOT
HETATM    1  C2  UNL     1      26.651  -0.061  53.801  1.00  0.00     0.130 A 
HETATM    2  C3  UNL     1      27.613   0.918  54.006  1.00  0.00     0.122 A 
HETATM    3  C5  UNL     1      26.947   2.115  53.833  1.00  0.00     0.138 A 
HETATM    4  N2  UNL     1      25.657   1.925  53.539  1.00  0.00    -0.311 N 
HETATM    5  C6  UNL     1      24.706   2.847  53.304  1.00  0.00     0.215 A 
HETATM    6  N3  UNL     1      23.469   2.409  53.026  1.00  0.00    -0.243 NA
HETATM    7  C7  UNL     1      23.145   1.106  52.975  1.00  0.00     0.073 A 
HETATM    8  C14 UNL     1      24.147   0.192  53.220  1.00  0.00     0.065 A 
HETATM    9  C15 UNL     1      25.450   0.595  53.514  1.00  0.00     0.078 A 
ENDROOT
BRANCH   7  10
HETATM   10  C8  UNL     1      21.782   0.693  52.668  1.00  0.00     0.031 A 
HETATM   11  C9  UNL     1      21.192   0.755  51.431  1.00  0.00     0.018 A 
HETATM   12  C10 UNL     1      19.907   0.356  51.182  1.00  0.00     0.020 A 
HETATM   13  C11 UNL     1      19.121  -0.142  52.203  1.00  0.00     0.013 A 
HETATM   14 BR1  UNL     1      17.358  -0.673  51.785  1.00  0.00    -0.051 Br
HETATM   15  C12 UNL     1      19.669  -0.223  53.458  1.00  0.00     0.062 A 
HETATM   16  C13 UNL     1      20.985   0.194  53.677  1.00  0.00     0.130 A 
HETATM   17  F1  UNL     1      21.399   0.060  54.960  1.00  0.00    -0.205 F 
ENDBRANCH   7  10
BRANCH   1  18
HETATM   18  O1  UNL     1      26.681  -1.456  53.833  1.00  0.00    -0.351 OA
HETATM   19  C1  UNL     1      26.799  -2.178  52.617  1.00  0.00     0.210 C 
ENDBRANCH   1  18
BRANCH   2  20
HETATM   20  O2  UNL     1      28.864   0.466  54.303  1.00  0.00    -0.318 OA
BRANCH  20  21
HETATM   21  C4  UNL     1      29.793  -0.113  53.425  1.00  0.00     0.441 C 
BRANCH  21  22
HETATM   22  N1  UNL     1      30.004  -1.484  53.832  1.00  0.00     0.101 N 
HETATM   23  H6  UNL     1      29.494  -1.640  54.731  1.00  0.00     0.315 HD
HETATM   24  H7  UNL     1      29.633  -2.099  53.078  1.00  0.00     0.315 HD
ENDBRANCH  21  22
ENDBRANCH  20  21
ENDBRANCH   2  20
TORSDOF 5
ENDMDL
MODEL 2
REMARK VINA RESULT:      -7.3      3.397      4.271
REMARK  5 active torsions:
REMARK  status: ('A' for Active; 'I' for Inactive)
REMARK    1  A    between atoms: O1_2  and  C2_3 
REMARK    2  A    between atoms: C3_4  and  O2_5 
REMARK    3  A    between atoms: O2_5  and  C4_6 
REMARK    4  A    between atoms: C4_6  and  N1_7 
REMARK    5  A    between atoms: C7_12  and  C8_13 
ROOT
HETATM    1  C2  UNL     1      27.153   0.759  53.053  1.00  0.00     0.130 A 
HETATM    2  C3  UNL     1      27.104  -0.489  53.656  1.00  0.00     0.122 A 
HETATM    3  C5  UNL     1      25.761  -0.801  53.723  1.00  0.00     0.138 A 
HETATM    4  N2  UNL     1      25.002   0.170  53.204  1.00  0.00    -0.311 N 
HETATM    5  C6  UNL     1      23.662   0.219  53.097  1.00  0.00     0.215 A 
HETATM    6  N3  UNL     1      23.122   1.311  52.534  1.00  0.00    -0.243 NA
HETATM    7  C7  UNL     1      23.854   2.341  52.078  1.00  0.00     0.073 A 
HETATM    8  C14 UNL     1      25.224   2.254  52.207  1.00  0.00     0.065 A 
HETATM    9  C15 UNL     1      25.835   1.140  52.785  1.00  0.00     0.078 A 
ENDROOT
BRANCH   7  10
HETATM   10  C8  UNL     1      23.208   3.499  51.475  1.00  0.00     0.031 A 
HETATM   11  C9  UNL     1      22.530   4.476  52.159  1.00  0.00     0.018 A 
HETATM   12  C10 UNL     1      21.936   5.552  51.556  1.00  0.00     0.020 A 
HETATM   13  C11 UNL     1      21.997   5.703  50.184  1.00  0.00     0.013 A 
HETATM   14 BR1  UNL     1      21.154   7.212  49.422  1.00  0.00    -0.051 Br
HETATM   15  C12 UNL     1      22.665   4.750  49.459  1.00  0.00     0.062 A 
HETATM   16  C13 UNL     1      23.260   3.665  50.106  1.00  0.00     0.130 A 
HETATM   17  F1  UNL     1      23.886   2.800  49.272  1.00  0.00    -0.205 F 
ENDBRANCH   7  10
BRANCH   1  18
HETATM   18  O1  UNL     1      28.200   1.614  52.702  1.00  0.00    -0.351 OA
HETATM   19  C1  UNL     1      28.746   2.484  53.681  1.00  0.00     0.210 C 
ENDBRANCH   1  18
BRANCH   2  20
HETATM   20  O2  UNL     1      28.307  -1.032  53.994  1.00  0.00    -0.318 OA
BRANCH  20  21
HETATM   21  C4  UNL     1      29.137  -1.832  53.193  1.00  0.00     0.441 C 
BRANCH  21  22
HETATM   22  N1  UNL     1      28.598  -3.174  53.183  1.00  0.00     0.101 N 
HETATM   23  H6  UNL     1      28.826  -3.624  54.097  1.00  0.00     0.315 HD
HETATM   24  H7  UNL     1      27.568  -3.099  53.047  1.00  0.00     0.315 HD
ENDBRANCH  21  22
ENDBRANCH  20  21
ENDBRANCH   2  20
TORSDOF 5
ENDMDL
MODEL 3
REMARK VINA RESULT:      -7.1      4.841      6.752
REMARK  5 active torsions:
REMARK  status: ('A' for Active; 'I' for Inactive)
REMARK    1  A    between atoms: O1_2  and  C2_3 
REMARK    2  A    between atoms: C3_4  and  O2_5 
REMARK    3  A    between atoms: O2_5  and  C4_6 
REMARK    4  A    between atoms: C4_6  and  N1_7 
REMARK    5  A    between atoms: C7_12  and  C8_13 
ROOT
HETATM    1  C2  UNL     1      23.693   0.404  52.757  1.00  0.00     0.130 A 
HETATM    2  C3  UNL     1      22.474  -0.259  52.740  1.00  0.00     0.122 A 
HETATM    3  C5  UNL     1      21.775   0.306  51.693  1.00  0.00     0.138 A 
HETATM    4  N2  UNL     1      22.485   1.259  51.081  1.00  0.00    -0.311 N 
HETATM    5  C6  UNL     1      22.133   2.021  50.030  1.00  0.00     0.215 A 
HETATM    6  N3  UNL     1      23.025   2.921  49.587  1.00  0.00    -0.243 NA
HETATM    7  C7  UNL     1      24.237   3.089  50.142  1.00  0.00     0.073 A 
HETATM    8  C14 UNL     1      24.560   2.289  51.218  1.00  0.00     0.065 A 
HETATM    9  C15 UNL     1      23.668   1.338  51.716  1.00  0.00     0.078 A 
ENDROOT
BRANCH   7  10
HETATM   10  C8  UNL     1      25.162   4.083  49.616  1.00  0.00     0.031 A 
HETATM   11  C9  UNL     1      24.858   5.398  49.368  1.00  0.00     0.018 A 
HETATM   12  C10 UNL     1      25.757   6.304  48.873  1.00  0.00     0.020 A 
HETATM   13  C11 UNL     1      27.053   5.917  48.591  1.00  0.00     0.013 A 
HETATM   14 BR1  UNL     1      28.237   7.222  47.909  1.00  0.00    -0.051 Br
HETATM   15  C12 UNL     1      27.402   4.612  48.823  1.00  0.00     0.062 A 
HETATM   16  C13 UNL     1      26.460   3.713  49.329  1.00  0.00     0.130 A 
HETATM   17  F1  UNL     1      26.937   2.458  49.511  1.00  0.00    -0.205 F 
ENDBRANCH   7  10
BRANCH   1  18
HETATM   18  O1  UNL     1      24.830   0.302  53.561  1.00  0.00    -0.351 OA
HETATM   19  C1  UNL     1      25.826  -0.656  53.240  1.00  0.00     0.210 C 
ENDBRANCH   1  18
BRANCH   2  20
HETATM   20  O2  UNL     1      22.310  -1.220  53.692  1.00  0.00    -0.318 OA
BRANCH  20  21
HETATM   21  C4  UNL     1      22.156  -1.034  55.074  1.00  0.00     0.441 C 
BRANCH  21  22
HETATM   22  N1  UNL     1      23.336  -1.550  55.733  1.00  0.00     0.101 N 
HETATM   23  H6  UNL     1      24.139  -1.474  55.070  1.00  0.00     0.315 HD
HETATM   24  H7  UNL     1      23.497  -0.975  56.586  1.00  0.00     0.315 HD
ENDBRANCH  21  22
ENDBRANCH  20  21
ENDBRANCH   2  20
TORSDOF 5
ENDMDL
MODEL 4
REMARK VINA RESULT:      -7.0      4.507      7.645
REMARK  5 active torsions:
REMARK  status: ('A' for Active; 'I' for Inactive)
REMARK    1  A    between atoms: O1_2  and  C2_3 
REMARK    2  A    between atoms: C3_4  and  O2_5 
REMARK    3  A    between atoms: O2_5  and  C4_6 
REMARK    4  A    between atoms: C4_6  and  N1_7 
REMARK    5  A    between atoms: C7_12  and  C8_13 
ROOT
HETATM    1  C2  UNL     1      21.378   3.004  52.177  1.00  0.00     0.130 A 
HETATM    2  C3  UNL     1      20.044   2.639  52.288  1.00  0.00     0.122 A 
HETATM    3  C5  UNL     1      20.066   1.334  52.737  1.00  0.00     0.138 A 
HETATM    4  N2  UNL     1      21.316   0.890  52.903  1.00  0.00    -0.311 N 
HETATM    5  C6  UNL     1      21.726  -0.321  53.323  1.00  0.00     0.215 A 
HETATM    6  N3  UNL     1      23.048  -0.535  53.409  1.00  0.00    -0.243 NA
HETATM    7  C7  UNL     1      23.965   0.397  53.100  1.00  0.00     0.073 A 
HETATM    8  C14 UNL     1      23.505   1.624  52.673  1.00  0.00     0.065 A 
HETATM    9  C15 UNL     1      22.141   1.898  52.566  1.00  0.00     0.078 A 
ENDROOT
BRANCH   7  10
HETATM   10  C8  UNL     1      25.387   0.103  53.215  1.00  0.00     0.031 A 
HETATM   11  C9  UNL     1      26.007  -1.025  52.741  1.00  0.00     0.018 A 
HETATM   12  C10 UNL     1      27.348  -1.264  52.868  1.00  0.00     0.020 A 
HETATM   13  C11 UNL     1      28.163  -0.347  53.504  1.00  0.00     0.013 A 
HETATM   14 BR1  UNL     1      30.004  -0.746  53.642  1.00  0.00    -0.051 Br
HETATM   15  C12 UNL     1      27.587   0.796  53.994  1.00  0.00     0.062 A 
HETATM   16  C13 UNL     1      26.214   1.009  53.847  1.00  0.00     0.130 A 
HETATM   17  F1  UNL     1      25.777   2.178  54.377  1.00  0.00    -0.205 F 
ENDBRANCH   7  10
BRANCH   1  18
HETATM   18  O1  UNL     1      22.022   4.178  51.781  1.00  0.00    -0.351 OA
HETATM   19  C1  UNL     1      22.178   4.454  50.399  1.00  0.00     0.210 C 
ENDBRANCH   1  18
BRANCH   2  20
HETATM   20  O2  UNL     1      19.138   3.599  51.951  1.00  0.00    -0.318 OA
BRANCH  20  21
HETATM   21  C4  UNL     1      17.826   3.411  51.490  1.00  0.00     0.441 C 
BRANCH  21  22
HETATM   22  N1  UNL     1      17.401   4.625  50.829  1.00  0.00     0.101 N 
HETATM   23  H6  UNL     1      16.741   4.364  50.062  1.00  0.00     0.315 HD
HETATM   24  H7  UNL     1      16.932   5.224  51.540  1.00  0.00     0.315 HD
ENDBRANCH  21  22
ENDBRANCH  20  21
ENDBRANCH   2  20
TORSDOF 5
ENDMDL
MODEL 5
REMARK VINA RESULT:      -6.9      2.280      2.861
REMARK  5 active torsions:
REMARK  status: ('A' for Active; 'I' for Inactive)
REMARK    1  A    between atoms: O1_2  and  C2_3 
REMARK    2  A    between atoms: C3_4  and  O2_5 
REMARK    3  A    between atoms: O2_5  and  C4_6 
REMARK    4  A    between atoms: C4_6  and  N1_7 
REMARK    5  A    between atoms: C7_12  and  C8_13 
ROOT
HETATM    1  C2  UNL     1      25.984   1.231  53.661  1.00  0.00     0.130 A 
HETATM    2  C3  UNL     1      26.442   0.312  54.595  1.00  0.00     0.122 A 
HETATM    3  C5  UNL     1      25.416  -0.601  54.731  1.00  0.00     0.138 A 
HETATM    4  N2  UNL     1      24.376  -0.296  53.948  1.00  0.00    -0.311 N 
HETATM    5  C6  UNL     1      23.208  -0.950  53.814  1.00  0.00     0.215 A 
HETATM    6  N3  UNL     1      22.307  -0.446  52.957  1.00  0.00    -0.243 NA
HETATM    7  C7  UNL     1      22.521   0.667  52.235  1.00  0.00     0.073 A 
HETATM    8  C14 UNL     1      23.730   1.309  52.401  1.00  0.00     0.065 A 
HETATM    9  C15 UNL     1      24.701   0.826  53.280  1.00  0.00     0.078 A 
ENDROOT
BRANCH   7  10
HETATM   10  C8  UNL     1      21.503   1.164  51.320  1.00  0.00     0.031 A 
HETATM   11  C9  UNL     1      21.485   0.958  49.964  1.00  0.00     0.018 A 
HETATM   12  C10 UNL     1      20.508   1.442  49.136  1.00  0.00     0.020 A 
HETATM   13  C11 UNL     1      19.463   2.185  49.651  1.00  0.00     0.013 A 
HETATM   14 BR1  UNL     1      18.152   2.820  48.448  1.00  0.00    -0.051 Br
HETATM   15  C12 UNL     1      19.440   2.416  51.002  1.00  0.00     0.062 A 
HETATM   16  C13 UNL     1      20.453   1.908  51.818  1.00  0.00     0.130 A 
HETATM   17  F1  UNL     1      20.307   2.211  53.131  1.00  0.00    -0.205 F 
ENDBRANCH   7  10
BRANCH   1  18
HETATM   18  O1  UNL     1      26.538   2.381  53.095  1.00  0.00    -0.351 OA
HETATM   19  C1  UNL     1      26.983   2.348  51.748  1.00  0.00     0.210 C 
ENDBRANCH   1  18
BRANCH   2  20
HETATM   20  O2  UNL     1      27.691   0.542  55.088  1.00  0.00    -0.318 OA
BRANCH  20  21
HETATM   21  C4  UNL     1      28.895   0.598  54.369  1.00  0.00     0.441 C 
BRANCH  21  22
HETATM   22  N1  UNL     1      29.415   1.944  54.462  1.00  0.00     0.101 N 
HETATM   23  H6  UNL     1      28.887   2.545  53.789  1.00  0.00     0.315 HD
HETATM   24  H7  UNL     1      29.278   2.269  55.442  1.00  0.00     0.315 HD
ENDBRANCH  21  22
ENDBRANCH  20  21
ENDBRANCH   2  20
TORSDOF 5
ENDMDL
MODEL 6
REMARK VINA RESULT:      -6.9      4.352      7.586
REMARK  5 active torsions:
REMARK  status: ('A' for Active; 'I' for Inactive)
REMARK    1  A    between atoms: O1_2  and  C2_3 
REMARK    2  A    between atoms: C3_4  and  O2_5 
REMARK    3  A    between atoms: O2_5  and  C4_6 
REMARK    4  A    between atoms: C4_6  and  N1_7 
REMARK    5  A    between atoms: C7_12  and  C8_13 
ROOT
HETATM    1  C2  UNL     1      20.976   0.793  52.030  1.00  0.00     0.130 A 
HETATM    2  C3  UNL     1      19.754   0.394  52.552  1.00  0.00     0.122 A 
HETATM    3  C5  UNL     1      20.070  -0.386  53.646  1.00  0.00     0.138 A 
HETATM    4  N2  UNL     1      21.392  -0.484  53.817  1.00  0.00    -0.311 N 
HETATM    5  C6  UNL     1      22.066  -1.155  54.769  1.00  0.00     0.215 A 
HETATM    6  N3  UNL     1      23.407  -1.106  54.735  1.00  0.00    -0.243 NA
HETATM    7  C7  UNL     1      24.093  -0.422  53.804  1.00  0.00     0.073 A 
HETATM    8  C14 UNL     1      23.367   0.253  52.846  1.00  0.00     0.065 A 
HETATM    9  C15 UNL     1      21.971   0.233  52.837  1.00  0.00     0.078 A 
ENDROOT
BRANCH   7  10
HETATM   10  C8  UNL     1      25.549  -0.406  53.820  1.00  0.00     0.031 A 
HETATM   11  C9  UNL     1      26.327   0.354  54.656  1.00  0.00     0.018 A 
HETATM   12  C10 UNL     1      27.695   0.340  54.642  1.00  0.00     0.020 A 
HETATM   13  C11 UNL     1      28.375  -0.469  53.752  1.00  0.00     0.013 A 
HETATM   14 BR1  UNL     1      30.263  -0.435  53.789  1.00  0.00    -0.051 Br
HETATM   15  C12 UNL     1      27.639  -1.247  52.896  1.00  0.00     0.062 A 
HETATM   16  C13 UNL     1      26.243  -1.208  52.937  1.00  0.00     0.130 A 
HETATM   17  F1  UNL     1      25.642  -2.026  52.039  1.00  0.00    -0.205 F 
ENDBRANCH   7  10
BRANCH   1  18
HETATM   18  O1  UNL     1      21.341   1.585  50.940  1.00  0.00    -0.351 OA
HETATM   19  C1  UNL     1      21.532   0.979  49.671  1.00  0.00     0.210 C 
ENDBRANCH   1  18
BRANCH   2  20
HETATM   20  O2  UNL     1      18.652   0.849  51.892  1.00  0.00    -0.318 OA
BRANCH  20  21
HETATM   21  C4  UNL     1      17.764   0.106  51.099  1.00  0.00     0.441 C 
BRANCH  21  22
HETATM   22  N1  UNL     1      17.938   0.515  49.723  1.00  0.00     0.101 N 
HETATM   23  H6  UNL     1      18.946   0.749  49.577  1.00  0.00     0.315 HD
HETATM   24  H7  UNL     1      17.645  -0.280  49.117  1.00  0.00     0.315 HD
ENDBRANCH  21  22
ENDBRANCH  20  21
ENDBRANCH   2  20
TORSDOF 5
ENDMDL
MODEL 7
REMARK VINA RESULT:      -6.8      1.918      2.390
REMARK  5 active torsions:
REMARK  status: ('A' for Active; 'I' for Inactive)
REMARK    1  A    between atoms: O1_2  and  C2_3 
REMARK    2  A    between atoms: C3_4  and  O2_5 
REMARK    3  A    between atoms: O2_5  and  C4_6 
REMARK    4  A    between atoms: C4_6  and  N1_7 
REMARK    5  A    between atoms: C7_12  and  C8_13 
ROOT
HETATM    1  C2  UNL     1      26.084   1.204  53.684  1.00  0.00     0.130 A 
HETATM    2  C3  UNL     1      26.813   0.541  54.661  1.00  0.00     0.122 A 
HETATM    3  C5  UNL     1      25.968  -0.444  55.130  1.00  0.00     0.138 A 
HETATM    4  N2  UNL     1      24.786  -0.420  54.505  1.00  0.00    -0.311 N 
HETATM    5  C6  UNL     1      23.722  -1.221  54.695  1.00  0.00     0.215 A 
HETATM    6  N3  UNL     1      22.634  -1.001  53.940  1.00  0.00    -0.243 NA
HETATM    7  C7  UNL     1      22.566  -0.028  53.015  1.00  0.00     0.073 A 
HETATM    8  C14 UNL     1      23.677   0.772  52.852  1.00  0.00     0.065 A 
HETATM    9  C15 UNL     1      24.832   0.584  53.611  1.00  0.00     0.078 A 
ENDROOT
BRANCH   7  10
HETATM   10  C8  UNL     1      21.356   0.161  52.227  1.00  0.00     0.031 A 
HETATM   11  C9  UNL     1      21.317   0.545  50.911  1.00  0.00     0.018 A 
HETATM   12  C10 UNL     1      20.158   0.712  50.203  1.00  0.00     0.020 A 
HETATM   13  C11 UNL     1      18.934   0.492  50.806  1.00  0.00     0.013 A 
HETATM   14 BR1  UNL     1      17.377   0.741  49.767  1.00  0.00    -0.051 Br
HETATM   15  C12 UNL     1      18.925   0.105  52.122  1.00  0.00     0.062 A 
HETATM   16  C13 UNL     1      20.127  -0.055  52.815  1.00  0.00     0.130 A 
HETATM   17  F1  UNL     1      19.972  -0.439  54.106  1.00  0.00    -0.205 F 
ENDBRANCH   7  10
BRANCH   1  18
HETATM   18  O1  UNL     1      26.366   2.282  52.842  1.00  0.00    -0.351 OA
HETATM   19  C1  UNL     1      26.656   2.041  51.475  1.00  0.00     0.210 C 
ENDBRANCH   1  18
BRANCH   2  20
HETATM   20  O2  UNL     1      28.075   1.008  54.877  1.00  0.00    -0.318 OA
BRANCH  20  21
HETATM   21  C4  UNL     1      29.136   1.053  53.960  1.00  0.00     0.441 C 
BRANCH  21  22
HETATM   22  N1  UNL     1      29.456   2.440  53.708  1.00  0.00     0.101 N 
HETATM   23  H6  UNL     1      30.179   2.477  52.954  1.00  0.00     0.315 HD
HETATM   24  H7  UNL     1      28.580   2.918  53.412  1.00  0.00     0.315 HD
ENDBRANCH  21  22
ENDBRANCH  20  21
ENDBRANCH   2  20
TORSDOF 5
ENDMDL
MODEL 8
REMARK VINA RESULT:      -6.6      4.450      7.480
REMARK  5 active torsions:
REMARK  status: ('A' for Active; 'I' for Inactive)
REMARK    1  A    between atoms: O1_2  and  C2_3 
REMARK    2  A    between atoms: C3_4  and  O2_5 
REMARK    3  A    between atoms: O2_5  and  C4_6 
REMARK    4  A    between atoms: C4_6  and  N1_7 
REMARK    5  A    between atoms: C7_12  and  C8_13 
ROOT
HETATM    1  C2  UNL     1      20.693   2.270  52.528  1.00  0.00     0.130 A 
HETATM    2  C3  UNL     1      20.098   3.431  52.054  1.00  0.00     0.122 A 
HETATM    3  C5  UNL     1      21.146   4.217  51.620  1.00  0.00     0.138 A 
HETATM    4  N2  UNL     1      22.325   3.613  51.799  1.00  0.00    -0.311 N 
HETATM    5  C6  UNL     1      23.554   4.070  51.499  1.00  0.00     0.215 A 
HETATM    6  N3  UNL     1      24.599   3.273  51.776  1.00  0.00    -0.243 NA
HETATM    7  C7  UNL     1      24.468   2.056  52.330  1.00  0.00     0.073 A 
HETATM    8  C14 UNL     1      23.192   1.625  52.624  1.00  0.00     0.065 A 
HETATM    9  C15 UNL     1      22.073   2.415  52.356  1.00  0.00     0.078 A 
ENDROOT
BRANCH   7  10
HETATM   10  C8  UNL     1      25.642   1.239  52.606  1.00  0.00     0.031 A 
HETATM   11  C9  UNL     1      25.930   0.036  52.012  1.00  0.00     0.018 A 
HETATM   12  C10 UNL     1      27.046  -0.704  52.298  1.00  0.00     0.020 A 
HETATM   13  C11 UNL     1      27.960  -0.254  53.232  1.00  0.00     0.013 A 
HETATM   14 BR1  UNL     1      29.475  -1.328  53.575  1.00  0.00    -0.051 Br
HETATM   15  C12 UNL     1      27.713   0.944  53.851  1.00  0.00     0.062 A 
HETATM   16  C13 UNL     1      26.564   1.674  53.536  1.00  0.00     0.130 A 
HETATM   17  F1  UNL     1      26.444   2.837  54.221  1.00  0.00    -0.205 F 
ENDBRANCH   7  10
BRANCH   1  18
HETATM   18  O1  UNL     1      20.190   1.096  53.093  1.00  0.00    -0.351 OA
HETATM   19  C1  UNL     1      19.684   0.077  52.245  1.00  0.00     0.210 C 
ENDBRANCH   1  18
BRANCH   2  20
HETATM   20  O2  UNL     1      18.739   3.476  52.138  1.00  0.00    -0.318 OA
BRANCH  20  21
HETATM   21  C4  UNL     1      17.813   3.277  51.103  1.00  0.00     0.441 C 
BRANCH  21  22
HETATM   22  N1  UNL     1      16.830   2.318  51.555  1.00  0.00     0.101 N 
HETATM   23  H6  UNL     1      15.996   2.386  50.930  1.00  0.00     0.315 HD
HETATM   24  H7  UNL     1      17.263   1.372  51.501  1.00  0.00     0.315 HD
ENDBRANCH  21  22
ENDBRANCH  20  21
ENDBRANCH   2  20
TORSDOF 5
ENDMDL
MODEL 9
REMARK VINA RESULT:      -6.5      8.020      9.183
REMARK  5 active torsions:
REMARK  status: ('A' for Active; 'I' for Inactive)
REMARK    1  A    between atoms: O1_2  and  C2_3 
REMARK    2  A    between atoms: C3_4  and  O2_5 
REMARK    3  A    between atoms: O2_5  and  C4_6 
REMARK    4  A    between atoms: C4_6  and  N1_7 
REMARK    5  A    between atoms: C7_12  and  C8_13 
ROOT
HETATM    1  C2  UNL     1      31.941   5.311  47.946  1.00  0.00     0.130 A 
HETATM    2  C3  UNL     1      32.916   6.296  47.874  1.00  0.00     0.122 A 
HETATM    3  C5  UNL     1      32.232   7.487  48.012  1.00  0.00     0.138 A 
HETATM    4  N2  UNL     1      30.919   7.288  48.160  1.00  0.00    -0.311 N 
HETATM    5  C6  UNL     1      29.946   8.204  48.319  1.00  0.00     0.215 A 
HETATM    6  N3  UNL     1      28.686   7.758  48.449  1.00  0.00    -0.243 NA
HETATM    7  C7  UNL     1      28.363   6.454  48.429  1.00  0.00     0.073 A 
HETATM    8  C14 UNL     1      29.388   5.547  48.264  1.00  0.00     0.065 A 
HETATM    9  C15 UNL     1      30.714   5.959  48.124  1.00  0.00     0.078 A 
ENDROOT
BRANCH   7  10
HETATM   10  C8  UNL     1      26.977   6.032  48.576  1.00  0.00     0.031 A 
HETATM   11  C9  UNL     1      26.559   4.857  49.148  1.00  0.00     0.018 A 
HETATM   12  C10 UNL     1      25.244   4.497  49.269  1.00  0.00     0.020 A 
HETATM   13  C11 UNL     1      24.247   5.331  48.801  1.00  0.00     0.013 A 
HETATM   14 BR1  UNL     1      22.456   4.767  49.001  1.00  0.00    -0.051 Br
HETATM   15  C12 UNL     1      24.618   6.517  48.221  1.00  0.00     0.062 A 
HETATM   16  C13 UNL     1      25.969   6.854  48.114  1.00  0.00     0.130 A 
HETATM   17  F1  UNL     1      26.193   8.052  47.521  1.00  0.00    -0.205 F 
ENDBRANCH   7  10
BRANCH   1  18
HETATM   18  O1  UNL     1      31.979   3.917  47.878  1.00  0.00    -0.351 OA
HETATM   19  C1  UNL     1      32.049   3.284  46.611  1.00  0.00     0.210 C 
ENDBRANCH   1  18
BRANCH   2  20
HETATM   20  O2  UNL     1      34.193   5.853  47.702  1.00  0.00    -0.318 OA
BRANCH  20  21
HETATM   21  C4  UNL     1      35.108   5.478  48.697  1.00  0.00     0.441 C 
BRANCH  21  22
HETATM   22  N1  UNL     1      35.056   4.040  48.841  1.00  0.00     0.101 N 
HETATM   23  H6  UNL     1      34.061   3.765  49.005  1.00  0.00     0.315 HD
HETATM   24  H7  UNL     1      35.422   3.621  47.961  1.00  0.00     0.315 HD
ENDBRANCH  21  22
ENDBRANCH  20  21
ENDBRANCH   2  20
TORSDOF 5
ENDMDL
