MODEL 1
REMARK VINA RESULT:      -7.5      0.000      0.000
REMARK  9 active torsions:
REMARK  status: ('A' for Active; 'I' for Inactive)
REMARK    1  A    between atoms: C7_11  and  N3_12 
REMARK    2  A    between atoms: N3_12  and  C8_13 
REMARK    3  A    between atoms: C8_13  and  S1_14 
REMARK    4  A    between atoms: S1_14  and  C9_15 
REMARK    5  A    between atoms: C10_16  and  C11_17 
REMARK    6  A    between atoms: N4_22  and  C15_23 
REMARK    7  A    between atoms: C15_23  and  C16_24 
REMARK    8  A    between atoms: C16_24  and  C17_25 
REMARK    9  A    between atoms: C17_25  and  N5_26 
ROOT
HETATM    1  O1  UNL     1      29.083   0.784  52.819  1.00  0.00    -0.271 OA
HETATM    2  C1  UNL     1      27.960   0.661  53.389  1.00  0.00     0.248 C 
HETATM    3  C2  UNL     1      27.979   0.380  54.853  1.00  0.00     0.279 C 
HETATM    4  O2  UNL     1      26.941  -0.523  55.185  1.00  0.00    -0.340 OA
HETATM    5  C3  UNL     1      25.684  -0.443  54.570  1.00  0.00     0.098 A 
HETATM    6  C4  UNL     1      24.631  -1.015  55.226  1.00  0.00     0.071 A 
HETATM    7  C5  UNL     1      23.381  -0.958  54.656  1.00  0.00     0.075 A 
HETATM    8  N1  UNL     1      22.240  -1.488  55.181  1.00  0.00    -0.241 NA
HETATM    9  C6  UNL     1      21.073  -1.366  54.509  1.00  0.00     0.236 A 
HETATM   10  N2  UNL     1      20.978  -0.729  53.305  1.00  0.00    -0.223 NA
HETATM   11  C7  UNL     1      22.086  -0.195  52.760  1.00  0.00     0.149 A 
HETATM   12  C12 UNL     1      23.276  -0.316  53.439  1.00  0.00     0.042 A 
HETATM   13  C13 UNL     1      24.314   0.267  52.760  1.00  0.00     0.050 A 
HETATM   14  C14 UNL     1      25.552   0.206  53.334  1.00  0.00     0.071 A 
HETATM   15  N4  UNL     1      26.715   0.770  52.732  1.00  0.00    -0.314 N 
ENDROOT
BRANCH  15  16
HETATM   16  C15 UNL     1      26.680   1.452  51.464  1.00  0.00     0.134 C 
BRANCH  16  17
HETATM   17  C16 UNL     1      26.526   2.922  51.567  1.00  0.00     0.040 C 
BRANCH  17  18
HETATM   18  C17 UNL     1      26.022   3.481  50.263  1.00  0.00     0.118 C 
BRANCH  18  19
HETATM   19  N5  UNL     1      24.869   4.310  50.355  1.00  0.00    -0.408 N 
HETATM   20  C18 UNL     1      25.074   5.653  50.002  1.00  0.00     0.143 C 
HETATM   21  C19 UNL     1      24.491   6.624  51.040  1.00  0.00     0.187 C 
HETATM   22  O3  UNL     1      23.182   6.249  51.215  1.00  0.00    -0.388 OA
HETATM   23  C20 UNL     1      23.011   5.005  51.804  1.00  0.00     0.187 C 
HETATM   24  C21 UNL     1      23.770   3.914  51.103  1.00  0.00     0.143 C 
ENDBRANCH  18  19
ENDBRANCH  17  18
ENDBRANCH  16  17
ENDBRANCH  15  16
BRANCH  11  25
HETATM   25  N3  UNL     1      21.987   0.473  51.483  1.00  0.00    -0.300 N 
HETATM   26  H5  UNL     1      22.491   0.389  50.599  1.00  0.00     0.177 HD
BRANCH  25  27
HETATM   27  C8  UNL     1      21.030   1.418  51.423  1.00  0.00     0.010 C 
BRANCH  27  28
HETATM   28  S1  UNL     1      19.977   2.426  51.370  1.00  0.00    -0.041 SA
BRANCH  28  29
HETATM   29  C9  UNL     1      18.734   3.613  51.278  1.00  0.00     0.058 C 
HETATM   30  C10 UNL     1      17.514   3.284  51.646  1.00  0.00     0.012 C 
BRANCH  30  31
HETATM   31  C11 UNL     1      16.430   4.287  51.577  1.00  0.00     0.250 C 
HETATM   32  F1  UNL     1      15.974   4.656  52.812  1.00  0.00    -0.251 F 
ENDBRANCH  30  31
ENDBRANCH  28  29
ENDBRANCH  27  28
ENDBRANCH  25  27
ENDBRANCH  11  25
TORSDOF 9
ENDMDL
MODEL 2
REMARK VINA RESULT:      -7.5      3.647      6.365
REMARK  9 active torsions:
REMARK  status: ('A' for Active; 'I' for Inactive)
REMARK    1  A    between atoms: C7_11  and  N3_12 
REMARK    2  A    between atoms: N3_12  and  C8_13 
REMARK    3  A    between atoms: C8_13  and  S1_14 
REMARK    4  A    between atoms: S1_14  and  C9_15 
REMARK    5  A    between atoms: C10_16  and  C11_17 
REMARK    6  A    between atoms: N4_22  and  C15_23 
REMARK    7  A    between atoms: C15_23  and  C16_24 
REMARK    8  A    between atoms: C16_24  and  C17_25 
REMARK    9  A    between atoms: C17_25  and  N5_26 
ROOT
HETATM    1  O1  UNL     1      20.851  -1.538  54.553  1.00  0.00    -0.271 OA
HETATM    2  C1  UNL     1      22.096  -1.364  54.408  1.00  0.00     0.248 C 
HETATM    3  C2  UNL     1      22.988  -2.100  55.349  1.00  0.00     0.279 C 
HETATM    4  O2  UNL     1      24.093  -1.288  55.701  1.00  0.00    -0.340 OA
HETATM    5  C3  UNL     1      24.712  -0.457  54.758  1.00  0.00     0.098 A 
HETATM    6  C4  UNL     1      25.994  -0.063  55.018  1.00  0.00     0.071 A 
HETATM    7  C5  UNL     1      26.637   0.753  54.118  1.00  0.00     0.075 A 
HETATM    8  N1  UNL     1      27.907   1.234  54.242  1.00  0.00    -0.241 NA
HETATM    9  C6  UNL     1      28.416   2.038  53.282  1.00  0.00     0.236 A 
HETATM   10  N2  UNL     1      27.708   2.401  52.172  1.00  0.00    -0.223 NA
HETATM   11  C7  UNL     1      26.453   1.943  52.020  1.00  0.00     0.149 A 
HETATM   12  C12 UNL     1      25.929   1.125  52.994  1.00  0.00     0.042 A 
HETATM   13  C13 UNL     1      24.644   0.746  52.706  1.00  0.00     0.050 A 
HETATM   14  C14 UNL     1      24.014  -0.065  53.607  1.00  0.00     0.071 A 
HETATM   15  N4  UNL     1      22.677  -0.530  53.429  1.00  0.00    -0.314 N 
ENDROOT
BRANCH  15  16
HETATM   16  C15 UNL     1      21.880  -0.180  52.282  1.00  0.00     0.134 C 
BRANCH  16  17
HETATM   17  C16 UNL     1      21.169   1.114  52.406  1.00  0.00     0.040 C 
BRANCH  17  18
HETATM   18  C17 UNL     1      21.175   1.837  51.085  1.00  0.00     0.118 C 
BRANCH  18  19
HETATM   19  N5  UNL     1      22.161   2.853  50.946  1.00  0.00    -0.408 N 
HETATM   20  C18 UNL     1      22.501   3.516  52.135  1.00  0.00     0.143 C 
HETATM   21  C19 UNL     1      22.496   5.045  51.972  1.00  0.00     0.187 C 
HETATM   22  O3  UNL     1      23.301   5.311  50.892  1.00  0.00    -0.388 OA
HETATM   23  C20 UNL     1      22.809   4.855  49.677  1.00  0.00     0.187 C 
HETATM   24  C21 UNL     1      22.446   3.397  49.702  1.00  0.00     0.143 C 
ENDBRANCH  18  19
ENDBRANCH  17  18
ENDBRANCH  16  17
ENDBRANCH  15  16
BRANCH  11  25
HETATM   25  N3  UNL     1      25.702   2.334  50.849  1.00  0.00    -0.300 N 
HETATM   26  H5  UNL     1      24.831   2.009  50.425  1.00  0.00     0.177 HD
BRANCH  25  27
HETATM   27  C8  UNL     1      26.253   3.341  50.146  1.00  0.00     0.010 C 
BRANCH  27  28
HETATM   28  S1  UNL     1      26.831   4.447  49.391  1.00  0.00    -0.041 SA
BRANCH  28  29
HETATM   29  C9  UNL     1      27.485   5.764  48.497  1.00  0.00     0.058 C 
HETATM   30  C10 UNL     1      28.770   5.760  48.210  1.00  0.00     0.012 C 
BRANCH  30  31
HETATM   31  C11 UNL     1      29.355   6.880  47.441  1.00  0.00     0.250 C 
HETATM   32  F1  UNL     1      28.542   7.304  46.427  1.00  0.00    -0.251 F 
ENDBRANCH  30  31
ENDBRANCH  28  29
ENDBRANCH  27  28
ENDBRANCH  25  27
ENDBRANCH  11  25
TORSDOF 9
ENDMDL
MODEL 3
REMARK VINA RESULT:      -7.4      3.911      7.166
REMARK  9 active torsions:
REMARK  status: ('A' for Active; 'I' for Inactive)
REMARK    1  A    between atoms: C7_11  and  N3_12 
REMARK    2  A    between atoms: N3_12  and  C8_13 
REMARK    3  A    between atoms: C8_13  and  S1_14 
REMARK    4  A    between atoms: S1_14  and  C9_15 
REMARK    5  A    between atoms: C10_16  and  C11_17 
REMARK    6  A    between atoms: N4_22  and  C15_23 
REMARK    7  A    between atoms: C15_23  and  C16_24 
REMARK    8  A    between atoms: C16_24  and  C17_25 
REMARK    9  A    between atoms: C17_25  and  N5_26 
ROOT
HETATM    1  O1  UNL     1      22.506  -1.999  55.253  1.00  0.00    -0.271 OA
HETATM    2  C1  UNL     1      22.187  -1.044  54.486  1.00  0.00     0.248 C 
HETATM    3  C2  UNL     1      20.731  -0.752  54.351  1.00  0.00     0.279 C 
HETATM    4  O2  UNL     1      20.433  -0.389  53.015  1.00  0.00    -0.340 OA
HETATM    5  C3  UNL     1      21.312   0.403  52.266  1.00  0.00     0.098 A 
HETATM    6  C4  UNL     1      20.790   1.073  51.195  1.00  0.00     0.071 A 
HETATM    7  C5  UNL     1      21.620   1.862  50.433  1.00  0.00     0.075 A 
HETATM    8  N1  UNL     1      21.250   2.580  49.335  1.00  0.00    -0.241 NA
HETATM    9  C6  UNL     1      22.173   3.311  48.671  1.00  0.00     0.236 A 
HETATM   10  N2  UNL     1      23.484   3.365  49.050  1.00  0.00    -0.223 NA
HETATM   11  C7  UNL     1      23.881   2.668  50.129  1.00  0.00     0.149 A 
HETATM   12  C12 UNL     1      22.945   1.922  50.810  1.00  0.00     0.042 A 
HETATM   13  C13 UNL     1      23.496   1.263  51.878  1.00  0.00     0.050 A 
HETATM   14  C14 UNL     1      22.664   0.482  52.629  1.00  0.00     0.071 A 
HETATM   15  N4  UNL     1      23.109  -0.258  53.764  1.00  0.00    -0.314 N 
ENDROOT
BRANCH  15  16
HETATM   16  C15 UNL     1      24.478  -0.243  54.212  1.00  0.00     0.134 C 
BRANCH  16  17
HETATM   17  C16 UNL     1      25.380  -1.133  53.445  1.00  0.00     0.040 C 
BRANCH  17  18
HETATM   18  C17 UNL     1      26.480  -0.329  52.804  1.00  0.00     0.118 C 
BRANCH  18  19
HETATM   19  N5  UNL     1      27.199   0.534  53.677  1.00  0.00    -0.408 N 
HETATM   20  C18 UNL     1      27.086   1.901  53.385  1.00  0.00     0.143 C 
HETATM   21  C19 UNL     1      28.451   2.608  53.364  1.00  0.00     0.187 C 
HETATM   22  O3  UNL     1      29.052   2.303  54.560  1.00  0.00    -0.388 OA
HETATM   23  C20 UNL     1      29.383   0.965  54.717  1.00  0.00     0.187 C 
HETATM   24  C21 UNL     1      28.223   0.041  54.474  1.00  0.00     0.143 C 
ENDBRANCH  18  19
ENDBRANCH  17  18
ENDBRANCH  16  17
ENDBRANCH  15  16
BRANCH  11  25
HETATM   25  N3  UNL     1      25.268   2.720  50.526  1.00  0.00    -0.300 N 
HETATM   26  H5  UNL     1      25.827   2.215  51.216  1.00  0.00     0.177 HD
BRANCH  25  27
HETATM   27  C8  UNL     1      26.004   3.628  49.857  1.00  0.00     0.010 C 
BRANCH  27  28
HETATM   28  S1  UNL     1      26.810   4.620  49.156  1.00  0.00    -0.041 SA
BRANCH  28  29
HETATM   29  C9  UNL     1      27.776   5.769  48.314  1.00  0.00     0.058 C 
HETATM   30  C10 UNL     1      29.083   5.613  48.304  1.00  0.00     0.012 C 
BRANCH  30  31
HETATM   31  C11 UNL     1      29.934   6.587  47.586  1.00  0.00     0.250 C 
HETATM   32  F1  UNL     1      29.207   7.563  46.964  1.00  0.00    -0.251 F 
ENDBRANCH  30  31
ENDBRANCH  28  29
ENDBRANCH  27  28
ENDBRANCH  25  27
ENDBRANCH  11  25
TORSDOF 9
ENDMDL
MODEL 4
REMARK VINA RESULT:      -7.1      4.145      6.918
REMARK  9 active torsions:
REMARK  status: ('A' for Active; 'I' for Inactive)
REMARK    1  A    between atoms: C7_11  and  N3_12 
REMARK    2  A    between atoms: N3_12  and  C8_13 
REMARK    3  A    between atoms: C8_13  and  S1_14 
REMARK    4  A    between atoms: S1_14  and  C9_15 
REMARK    5  A    between atoms: C10_16  and  C11_17 
REMARK    6  A    between atoms: N4_22  and  C15_23 
REMARK    7  A    between atoms: C15_23  and  C16_24 
REMARK    8  A    between atoms: C16_24  and  C17_25 
REMARK    9  A    between atoms: C17_25  and  N5_26 
ROOT
HETATM    1  O1  UNL     1      19.508  -0.479  53.897  1.00  0.00    -0.271 OA
HETATM    2  C1  UNL     1      20.743  -0.565  53.634  1.00  0.00     0.248 C 
HETATM    3  C2  UNL     1      21.471  -1.730  54.214  1.00  0.00     0.279 C 
HETATM    4  O2  UNL     1      22.771  -1.337  54.614  1.00  0.00    -0.340 OA
HETATM    5  C3  UNL     1      23.523  -0.435  53.850  1.00  0.00     0.098 A 
HETATM    6  C4  UNL     1      24.877  -0.444  54.028  1.00  0.00     0.071 A 
HETATM    7  C5  UNL     1      25.652   0.427  53.297  1.00  0.00     0.075 A 
HETATM    8  N1  UNL     1      27.008   0.541  53.370  1.00  0.00    -0.241 NA
HETATM    9  C6  UNL     1      27.646   1.449  52.597  1.00  0.00     0.236 A 
HETATM   10  N2  UNL     1      26.987   2.274  51.732  1.00  0.00    -0.223 NA
HETATM   11  C7  UNL     1      25.649   2.186  51.637  1.00  0.00     0.149 A 
HETATM   12  C12 UNL     1      24.994   1.265  52.421  1.00  0.00     0.042 A 
HETATM   13  C13 UNL     1      23.638   1.296  52.222  1.00  0.00     0.050 A 
HETATM   14  C14 UNL     1      22.878   0.427  52.952  1.00  0.00     0.071 A 
HETATM   15  N4  UNL     1      21.457   0.358  52.842  1.00  0.00    -0.314 N 
ENDROOT
BRANCH  15  16
HETATM   16  C15 UNL     1      20.706   1.204  51.950  1.00  0.00     0.134 C 
BRANCH  16  17
HETATM   17  C16 UNL     1      20.427   0.598  50.627  1.00  0.00     0.040 C 
BRANCH  17  18
HETATM   18  C17 UNL     1      19.754   1.603  49.730  1.00  0.00     0.118 C 
BRANCH  18  19
HETATM   19  N5  UNL     1      20.428   1.885  48.509  1.00  0.00    -0.408 N 
HETATM   20  C18 UNL     1      21.755   1.434  48.446  1.00  0.00     0.143 C 
HETATM   21  C19 UNL     1      22.716   2.521  47.939  1.00  0.00     0.187 C 
HETATM   22  O3  UNL     1      22.185   2.972  46.756  1.00  0.00    -0.388 OA
HETATM   23  C20 UNL     1      20.977   3.643  46.883  1.00  0.00     0.187 C 
HETATM   24  C21 UNL     1      19.946   2.856  47.643  1.00  0.00     0.143 C 
ENDBRANCH  18  19
ENDBRANCH  17  18
ENDBRANCH  16  17
ENDBRANCH  15  16
BRANCH  11  25
HETATM   25  N3  UNL     1      24.952   3.065  50.727  1.00  0.00    -0.300 N 
HETATM   26  H5  UNL     1      23.968   3.205  50.492  1.00  0.00     0.177 HD
BRANCH  25  27
HETATM   27  C8  UNL     1      25.754   3.885  50.021  1.00  0.00     0.010 C 
BRANCH  27  28
HETATM   28  S1  UNL     1      26.618   4.791  49.274  1.00  0.00    -0.041 SA
BRANCH  28  29
HETATM   29  C9  UNL     1      27.617   5.883  48.397  1.00  0.00     0.058 C 
HETATM   30  C10 UNL     1      28.900   5.613  48.278  1.00  0.00     0.012 C 
BRANCH  30  31
HETATM   31  C11 UNL     1      29.780   6.536  47.527  1.00  0.00     0.250 C 
HETATM   32  F1  UNL     1      29.418   7.845  47.675  1.00  0.00    -0.251 F 
ENDBRANCH  30  31
ENDBRANCH  28  29
ENDBRANCH  27  28
ENDBRANCH  25  27
ENDBRANCH  11  25
TORSDOF 9
ENDMDL
MODEL 5
REMARK VINA RESULT:      -7.0      2.025      2.493
REMARK  9 active torsions:
REMARK  status: ('A' for Active; 'I' for Inactive)
REMARK    1  A    between atoms: C7_11  and  N3_12 
REMARK    2  A    between atoms: N3_12  and  C8_13 
REMARK    3  A    between atoms: C8_13  and  S1_14 
REMARK    4  A    between atoms: S1_14  and  C9_15 
REMARK    5  A    between atoms: C10_16  and  C11_17 
REMARK    6  A    between atoms: N4_22  and  C15_23 
REMARK    7  A    between atoms: C15_23  and  C16_24 
REMARK    8  A    between atoms: C16_24  and  C17_25 
REMARK    9  A    between atoms: C17_25  and  N5_26 
ROOT
HETATM    1  O1  UNL     1      28.966   0.459  52.863  1.00  0.00    -0.271 OA
HETATM    2  C1  UNL     1      27.823   0.423  53.404  1.00  0.00     0.248 C 
HETATM    3  C2  UNL     1      27.789   0.260  54.885  1.00  0.00     0.279 C 
HETATM    4  O2  UNL     1      26.706  -0.576  55.254  1.00  0.00    -0.340 OA
HETATM    5  C3  UNL     1      25.473  -0.499  54.594  1.00  0.00     0.098 A 
HETATM    6  C4  UNL     1      24.379  -0.978  55.258  1.00  0.00     0.071 A 
HETATM    7  C5  UNL     1      23.149  -0.921  54.645  1.00  0.00     0.075 A 
HETATM    8  N1  UNL     1      21.973  -1.365  55.174  1.00  0.00    -0.241 NA
HETATM    9  C6  UNL     1      20.833  -1.254  54.456  1.00  0.00     0.236 A 
HETATM   10  N2  UNL     1      20.798  -0.712  53.204  1.00  0.00    -0.223 NA
HETATM   11  C7  UNL     1      21.941  -0.265  52.655  1.00  0.00     0.149 A 
HETATM   12  C12 UNL     1      23.106  -0.374  53.380  1.00  0.00     0.042 A 
HETATM   13  C13 UNL     1      24.185   0.114  52.690  1.00  0.00     0.050 A 
HETATM   14  C14 UNL     1      25.402   0.053  53.307  1.00  0.00     0.071 A 
HETATM   15  N4  UNL     1      26.604   0.525  52.701  1.00  0.00    -0.314 N 
ENDROOT
BRANCH  15  16
HETATM   16  C15 UNL     1      26.632   1.104  51.383  1.00  0.00     0.134 C 
BRANCH  16  17
HETATM   17  C16 UNL     1      26.422   2.570  51.357  1.00  0.00     0.040 C 
BRANCH  17  18
HETATM   18  C17 UNL     1      26.386   3.063  49.934  1.00  0.00     0.118 C 
BRANCH  18  19
HETATM   19  N5  UNL     1      26.542   4.467  49.766  1.00  0.00    -0.408 N 
HETATM   20  C18 UNL     1      25.446   5.240  50.178  1.00  0.00     0.143 C 
HETATM   21  C19 UNL     1      25.036   6.279  49.122  1.00  0.00     0.187 C 
HETATM   22  O3  UNL     1      26.177   6.979  48.820  1.00  0.00    -0.388 OA
HETATM   23  C20 UNL     1      27.159   6.238  48.179  1.00  0.00     0.187 C 
HETATM   24  C21 UNL     1      27.510   4.973  48.911  1.00  0.00     0.143 C 
ENDBRANCH  18  19
ENDBRANCH  17  18
ENDBRANCH  16  17
ENDBRANCH  15  16
BRANCH  11  25
HETATM   25  N3  UNL     1      21.906   0.302  51.327  1.00  0.00    -0.300 N 
HETATM   26  H5  UNL     1      22.061  -0.075  50.391  1.00  0.00     0.177 HD
BRANCH  25  27
HETATM   27  C8  UNL     1      21.609   1.615  51.291  1.00  0.00     0.010 C 
BRANCH  27  28
HETATM   28  S1  UNL     1      21.263   3.032  51.252  1.00  0.00    -0.041 SA
BRANCH  28  29
HETATM   29  C9  UNL     1      20.832   4.697  51.188  1.00  0.00     0.058 C 
HETATM   30  C10 UNL     1      21.638   5.537  50.573  1.00  0.00     0.012 C 
BRANCH  30  31
HETATM   31  C11 UNL     1      21.288   6.972  50.502  1.00  0.00     0.250 C 
HETATM   32  F1  UNL     1      22.293   7.781  50.956  1.00  0.00    -0.251 F 
ENDBRANCH  30  31
ENDBRANCH  28  29
ENDBRANCH  27  28
ENDBRANCH  25  27
ENDBRANCH  11  25
TORSDOF 9
ENDMDL
MODEL 6
REMARK VINA RESULT:      -7.0      2.271      3.094
REMARK  9 active torsions:
REMARK  status: ('A' for Active; 'I' for Inactive)
REMARK    1  A    between atoms: C7_11  and  N3_12 
REMARK    2  A    between atoms: N3_12  and  C8_13 
REMARK    3  A    between atoms: C8_13  and  S1_14 
REMARK    4  A    between atoms: S1_14  and  C9_15 
REMARK    5  A    between atoms: C10_16  and  C11_17 
REMARK    6  A    between atoms: N4_22  and  C15_23 
REMARK    7  A    between atoms: C15_23  and  C16_24 
REMARK    8  A    between atoms: C16_24  and  C17_25 
REMARK    9  A    between atoms: C17_25  and  N5_26 
ROOT
HETATM    1  O1  UNL     1      26.702  -0.919  54.430  1.00  0.00    -0.271 OA
HETATM    2  C1  UNL     1      25.461  -0.677  54.474  1.00  0.00     0.248 C 
HETATM    3  C2  UNL     1      24.769  -0.963  55.763  1.00  0.00     0.279 C 
HETATM    4  O2  UNL     1      23.477  -1.486  55.512  1.00  0.00    -0.340 OA
HETATM    5  C3  UNL     1      22.688  -0.998  54.462  1.00  0.00     0.098 A 
HETATM    6  C4  UNL     1      21.340  -1.205  54.545  1.00  0.00     0.071 A 
HETATM    7  C5  UNL     1      20.531  -0.741  53.534  1.00  0.00     0.075 A 
HETATM    8  N1  UNL     1      19.176  -0.879  53.471  1.00  0.00    -0.241 NA
HETATM    9  C6  UNL     1      18.501  -0.381  52.411  1.00  0.00     0.236 A 
HETATM   10  N2  UNL     1      19.119   0.265  51.380  1.00  0.00    -0.223 NA
HETATM   11  C7  UNL     1      20.455   0.417  51.411  1.00  0.00     0.149 A 
HETATM   12  C12 UNL     1      21.148  -0.089  52.488  1.00  0.00     0.042 A 
HETATM   13  C13 UNL     1      22.496   0.134  52.378  1.00  0.00     0.050 A 
HETATM   14  C14 UNL     1      23.292  -0.330  53.387  1.00  0.00     0.071 A 
HETATM   15  N4  UNL     1      24.709  -0.166  53.395  1.00  0.00    -0.314 N 
ENDROOT
BRANCH  15  16
HETATM   16  C15 UNL     1      25.418   0.503  52.335  1.00  0.00     0.134 C 
BRANCH  16  17
HETATM   17  C16 UNL     1      25.723   1.926  52.609  1.00  0.00     0.040 C 
BRANCH  17  18
HETATM   18  C17 UNL     1      26.605   2.485  51.524  1.00  0.00     0.118 C 
BRANCH  18  19
HETATM   19  N5  UNL     1      25.944   3.265  50.536  1.00  0.00    -0.408 N 
HETATM   20  C18 UNL     1      26.710   3.548  49.394  1.00  0.00     0.143 C 
HETATM   21  C19 UNL     1      26.659   5.036  49.012  1.00  0.00     0.187 C 
HETATM   22  O3  UNL     1      25.327   5.359  48.930  1.00  0.00    -0.388 OA
HETATM   23  C20 UNL     1      24.644   5.312  50.137  1.00  0.00     0.187 C 
HETATM   24  C21 UNL     1      24.813   4.002  50.855  1.00  0.00     0.143 C 
ENDBRANCH  18  19
ENDBRANCH  17  18
ENDBRANCH  16  17
ENDBRANCH  15  16
BRANCH  11  25
HETATM   25  N3  UNL     1      21.110   1.093  50.316  1.00  0.00    -0.300 N 
HETATM   26  H5  UNL     1      21.668   0.777  49.521  1.00  0.00     0.177 HD
BRANCH  25  27
HETATM   27  C8  UNL     1      20.973   2.432  50.328  1.00  0.00     0.010 C 
BRANCH  27  28
HETATM   28  S1  UNL     1      20.798   3.880  50.347  1.00  0.00    -0.041 SA
BRANCH  28  29
HETATM   29  C9  UNL     1      20.590   5.588  50.340  1.00  0.00     0.058 C 
HETATM   30  C10 UNL     1      21.062   6.280  49.324  1.00  0.00     0.012 C 
BRANCH  30  31
HETATM   31  C11 UNL     1      20.894   7.750  49.295  1.00  0.00     0.250 C 
HETATM   32  F1  UNL     1      19.825   8.172  50.034  1.00  0.00    -0.251 F 
ENDBRANCH  30  31
ENDBRANCH  28  29
ENDBRANCH  27  28
ENDBRANCH  25  27
ENDBRANCH  11  25
TORSDOF 9
ENDMDL
MODEL 7
REMARK VINA RESULT:      -7.0      6.114     10.750
REMARK  9 active torsions:
REMARK  status: ('A' for Active; 'I' for Inactive)
REMARK    1  A    between atoms: C7_11  and  N3_12 
REMARK    2  A    between atoms: N3_12  and  C8_13 
REMARK    3  A    between atoms: C8_13  and  S1_14 
REMARK    4  A    between atoms: S1_14  and  C9_15 
REMARK    5  A    between atoms: C10_16  and  C11_17 
REMARK    6  A    between atoms: N4_22  and  C15_23 
REMARK    7  A    between atoms: C15_23  and  C16_24 
REMARK    8  A    between atoms: C16_24  and  C17_25 
REMARK    9  A    between atoms: C17_25  and  N5_26 
ROOT
HETATM    1  O1  UNL     1      23.377   2.642  49.339  1.00  0.00    -0.271 OA
HETATM    2  C1  UNL     1      23.901   3.793  49.315  1.00  0.00     0.248 C 
HETATM    3  C2  UNL     1      22.966   4.953  49.283  1.00  0.00     0.279 C 
HETATM    4  O2  UNL     1      23.489   5.972  48.449  1.00  0.00    -0.340 OA
HETATM    5  C3  UNL     1      24.859   6.260  48.429  1.00  0.00     0.098 A 
HETATM    6  C4  UNL     1      25.231   7.495  47.977  1.00  0.00     0.071 A 
HETATM    7  C5  UNL     1      26.567   7.817  47.941  1.00  0.00     0.075 A 
HETATM    8  N1  UNL     1      27.091   8.999  47.508  1.00  0.00    -0.241 NA
HETATM    9  C6  UNL     1      28.430   9.182  47.519  1.00  0.00     0.236 A 
HETATM   10  N2  UNL     1      29.302   8.223  47.947  1.00  0.00    -0.223 NA
HETATM   11  C7  UNL     1      28.818   7.046  48.379  1.00  0.00     0.149 A 
HETATM   12  C12 UNL     1      27.455   6.854  48.371  1.00  0.00     0.042 A 
HETATM   13  C13 UNL     1      27.112   5.608  48.830  1.00  0.00     0.050 A 
HETATM   14  C14 UNL     1      25.782   5.298  48.862  1.00  0.00     0.071 A 
HETATM   15  N4  UNL     1      25.291   4.038  49.315  1.00  0.00    -0.314 N 
ENDROOT
BRANCH  15  16
HETATM   16  C15 UNL     1      26.161   2.986  49.776  1.00  0.00     0.134 C 
BRANCH  16  17
HETATM   17  C16 UNL     1      26.191   2.822  51.249  1.00  0.00     0.040 C 
BRANCH  17  18
HETATM   18  C17 UNL     1      26.552   1.404  51.604  1.00  0.00     0.118 C 
BRANCH  18  19
HETATM   19  N5  UNL     1      27.100   1.216  52.903  1.00  0.00    -0.408 N 
HETATM   20  C18 UNL     1      27.721   2.347  53.454  1.00  0.00     0.143 C 
HETATM   21  C19 UNL     1      29.108   2.026  54.033  1.00  0.00     0.187 C 
HETATM   22  O3  UNL     1      28.923   0.971  54.893  1.00  0.00    -0.388 OA
HETATM   23  C20 UNL     1      28.546  -0.215  54.280  1.00  0.00     0.187 C 
HETATM   24  C21 UNL     1      27.345  -0.060  53.390  1.00  0.00     0.143 C 
ENDBRANCH  18  19
ENDBRANCH  17  18
ENDBRANCH  16  17
ENDBRANCH  15  16
BRANCH  11  25
HETATM   25  N3  UNL     1      29.741   6.029  48.825  1.00  0.00    -0.300 N 
HETATM   26  H5  UNL     1      29.754   5.380  49.614  1.00  0.00     0.177 HD
BRANCH  25  27
HETATM   27  C8  UNL     1      30.833   5.891  48.049  1.00  0.00     0.010 C 
BRANCH  27  28
HETATM   28  S1  UNL     1      32.031   5.743  47.230  1.00  0.00    -0.041 SA
BRANCH  28  29
HETATM   29  C9  UNL     1      33.448   5.541  46.275  1.00  0.00     0.058 C 
HETATM   30  C10 UNL     1      33.449   4.628  45.327  1.00  0.00     0.012 C 
BRANCH  30  31
HETATM   31  C11 UNL     1      34.655   4.437  44.492  1.00  0.00     0.250 C 
HETATM   32  F1  UNL     1      35.658   3.788  45.156  1.00  0.00    -0.251 F 
ENDBRANCH  30  31
ENDBRANCH  28  29
ENDBRANCH  27  28
ENDBRANCH  25  27
ENDBRANCH  11  25
TORSDOF 9
ENDMDL
MODEL 8
REMARK VINA RESULT:      -6.9      5.751      9.540
REMARK  9 active torsions:
REMARK  status: ('A' for Active; 'I' for Inactive)
REMARK    1  A    between atoms: C7_11  and  N3_12 
REMARK    2  A    between atoms: N3_12  and  C8_13 
REMARK    3  A    between atoms: C8_13  and  S1_14 
REMARK    4  A    between atoms: S1_14  and  C9_15 
REMARK    5  A    between atoms: C10_16  and  C11_17 
REMARK    6  A    between atoms: N4_22  and  C15_23 
REMARK    7  A    between atoms: C15_23  and  C16_24 
REMARK    8  A    between atoms: C16_24  and  C17_25 
REMARK    9  A    between atoms: C17_25  and  N5_26 
ROOT
HETATM    1  O1  UNL     1      30.608   9.568  47.552  1.00  0.00    -0.271 OA
HETATM    2  C1  UNL     1      29.399   9.352  47.857  1.00  0.00     0.248 C 
HETATM    3  C2  UNL     1      28.532  10.550  48.048  1.00  0.00     0.279 C 
HETATM    4  O2  UNL     1      27.628  10.326  49.115  1.00  0.00    -0.340 OA
HETATM    5  C3  UNL     1      27.033   9.073  49.311  1.00  0.00     0.098 A 
HETATM    6  C4  UNL     1      25.877   9.039  50.038  1.00  0.00     0.071 A 
HETATM    7  C5  UNL     1      25.260   7.828  50.253  1.00  0.00     0.075 A 
HETATM    8  N1  UNL     1      24.113   7.632  50.963  1.00  0.00    -0.241 NA
HETATM    9  C6  UNL     1      23.618   6.383  51.105  1.00  0.00     0.236 A 
HETATM   10  N2  UNL     1      24.222   5.284  50.565  1.00  0.00    -0.223 NA
HETATM   11  C7  UNL     1      25.356   5.443  49.859  1.00  0.00     0.149 A 
HETATM   12  C12 UNL     1      25.865   6.713  49.711  1.00  0.00     0.042 A 
HETATM   13  C13 UNL     1      27.023   6.717  48.978  1.00  0.00     0.050 A 
HETATM   14  C14 UNL     1      27.627   7.925  48.769  1.00  0.00     0.071 A 
HETATM   15  N4  UNL     1      28.836   8.069  48.026  1.00  0.00    -0.314 N 
ENDROOT
BRANCH  15  16
HETATM   16  C15 UNL     1      29.521   6.949  47.434  1.00  0.00     0.134 C 
BRANCH  16  17
HETATM   17  C16 UNL     1      30.442   6.242  48.354  1.00  0.00     0.040 C 
BRANCH  17  18
HETATM   18  C17 UNL     1      31.205   5.180  47.609  1.00  0.00     0.118 C 
BRANCH  18  19
HETATM   19  N5  UNL     1      32.449   4.798  48.183  1.00  0.00    -0.408 N 
HETATM   20  C18 UNL     1      33.169   5.841  48.784  1.00  0.00     0.143 C 
HETATM   21  C19 UNL     1      34.642   5.861  48.345  1.00  0.00     0.187 C 
HETATM   22  O3  UNL     1      35.122   4.596  48.578  1.00  0.00    -0.388 OA
HETATM   23  C20 UNL     1      34.561   3.608  47.782  1.00  0.00     0.187 C 
HETATM   24  C21 UNL     1      33.058   3.605  47.823  1.00  0.00     0.143 C 
ENDBRANCH  18  19
ENDBRANCH  17  18
ENDBRANCH  16  17
ENDBRANCH  15  16
BRANCH  11  25
HETATM   25  N3  UNL     1      25.999   4.280  49.294  1.00  0.00    -0.300 N 
HETATM   26  H5  UNL     1      26.307   4.028  48.354  1.00  0.00     0.177 HD
BRANCH  25  27
HETATM   27  C8  UNL     1      26.254   3.300  50.181  1.00  0.00     0.010 C 
BRANCH  27  28
HETATM   28  S1  UNL     1      26.504   2.235  51.146  1.00  0.00    -0.041 SA
BRANCH  28  29
HETATM   29  C9  UNL     1      26.801   0.998  52.306  1.00  0.00     0.058 C 
HETATM   30  C10 UNL     1      26.668  -0.259  51.940  1.00  0.00     0.012 C 
BRANCH  30  31
HETATM   31  C11 UNL     1      26.918  -1.340  52.919  1.00  0.00     0.250 C 
HETATM   32  F1  UNL     1      26.937  -2.578  52.341  1.00  0.00    -0.251 F 
ENDBRANCH  30  31
ENDBRANCH  28  29
ENDBRANCH  27  28
ENDBRANCH  25  27
ENDBRANCH  11  25
TORSDOF 9
ENDMDL
MODEL 9
REMARK VINA RESULT:      -6.9      4.114      7.319
REMARK  9 active torsions:
REMARK  status: ('A' for Active; 'I' for Inactive)
REMARK    1  A    between atoms: C7_11  and  N3_12 
REMARK    2  A    between atoms: N3_12  and  C8_13 
REMARK    3  A    between atoms: C8_13  and  S1_14 
REMARK    4  A    between atoms: S1_14  and  C9_15 
REMARK    5  A    between atoms: C10_16  and  C11_17 
REMARK    6  A    between atoms: N4_22  and  C15_23 
REMARK    7  A    between atoms: C15_23  and  C16_24 
REMARK    8  A    between atoms: C16_24  and  C17_25 
REMARK    9  A    between atoms: C17_25  and  N5_26 
ROOT
HETATM    1  O1  UNL     1      16.724   2.116  50.265  1.00  0.00    -0.271 OA
HETATM    2  C1  UNL     1      17.489   1.259  50.795  1.00  0.00     0.248 C 
HETATM    3  C2  UNL     1      16.873  -0.046  51.172  1.00  0.00     0.279 C 
HETATM    4  O2  UNL     1      17.428  -0.509  52.390  1.00  0.00    -0.340 OA
HETATM    5  C3  UNL     1      18.789  -0.343  52.676  1.00  0.00     0.098 A 
HETATM    6  C4  UNL     1      19.335  -1.173  53.613  1.00  0.00     0.071 A 
HETATM    7  C5  UNL     1      20.669  -1.043  53.923  1.00  0.00     0.075 A 
HETATM    8  N1  UNL     1      21.352  -1.788  54.838  1.00  0.00    -0.241 NA
HETATM    9  C6  UNL     1      22.665  -1.548  55.052  1.00  0.00     0.236 A 
HETATM   10  N2  UNL     1      23.355  -0.577  54.386  1.00  0.00    -0.223 NA
HETATM   11  C7  UNL     1      22.711   0.175  53.476  1.00  0.00     0.149 A 
HETATM   12  C12 UNL     1      21.374  -0.064  53.254  1.00  0.00     0.042 A 
HETATM   13  C13 UNL     1      20.853   0.783  52.310  1.00  0.00     0.050 A 
HETATM   14  C14 UNL     1      19.528   0.645  52.009  1.00  0.00     0.071 A 
HETATM   15  N4  UNL     1      18.862   1.462  51.048  1.00  0.00    -0.314 N 
ENDROOT
BRANCH  15  16
HETATM   16  C15 UNL     1      19.536   2.503  50.315  1.00  0.00     0.134 C 
BRANCH  16  17
HETATM   17  C16 UNL     1      19.597   3.804  51.022  1.00  0.00     0.040 C 
BRANCH  17  18
HETATM   18  C17 UNL     1      20.320   4.819  50.176  1.00  0.00     0.118 C 
BRANCH  18  19
HETATM   19  N5  UNL     1      21.692   5.017  50.493  1.00  0.00    -0.408 N 
HETATM   20  C18 UNL     1      22.597   4.552  49.527  1.00  0.00     0.143 C 
HETATM   21  C19 UNL     1      23.723   3.705  50.142  1.00  0.00     0.187 C 
HETATM   22  O3  UNL     1      24.265   4.470  51.144  1.00  0.00    -0.388 OA
HETATM   23  C20 UNL     1      23.416   4.707  52.216  1.00  0.00     0.187 C 
HETATM   24  C21 UNL     1      22.088   5.272  51.798  1.00  0.00     0.143 C 
ENDBRANCH  18  19
ENDBRANCH  17  18
ENDBRANCH  16  17
ENDBRANCH  15  16
BRANCH  11  25
HETATM   25  N3  UNL     1      23.440   1.208  52.777  1.00  0.00    -0.300 N 
HETATM   26  H5  UNL     1      23.163   2.001  52.197  1.00  0.00     0.177 HD
BRANCH  25  27
HETATM   27  C8  UNL     1      24.778   1.122  52.898  1.00  0.00     0.010 C 
BRANCH  27  28
HETATM   28  S1  UNL     1      26.228   1.012  53.009  1.00  0.00    -0.041 SA
BRANCH  28  29
HETATM   29  C9  UNL     1      27.937   0.885  53.170  1.00  0.00     0.058 C 
HETATM   30  C10 UNL     1      28.460  -0.284  53.475  1.00  0.00     0.012 C 
BRANCH  30  31
HETATM   31  C11 UNL     1      29.926  -0.420  53.617  1.00  0.00     0.250 C 
HETATM   32  F1  UNL     1      30.311  -1.701  53.896  1.00  0.00    -0.251 F 
ENDBRANCH  30  31
ENDBRANCH  28  29
ENDBRANCH  27  28
ENDBRANCH  25  27
ENDBRANCH  11  25
TORSDOF 9
ENDMDL
