MODEL 1
REMARK VINA RESULT:      -9.2      0.000      0.000
REMARK  7 active torsions:
REMARK  status: ('A' for Active; 'I' for Inactive)
REMARK    1  A    between atoms: O1_2  and  C2_3 
REMARK    2  A    between atoms: C5_6  and  N1_7 
REMARK    3  A    between atoms: N1_7  and  C6_8 
REMARK    4  A    between atoms: C9_11  and  C10_12 
REMARK    5  A    between atoms: C17_21  and  O2_22 
REMARK    6  A    between atoms: C22_29  and  O3_30 
REMARK    7  A    between atoms: O3_30  and  C23_31 
ROOT
HETATM    1  C6  UNL     1      20.519  -0.494  53.572  1.00  0.00     0.036 A 
HETATM    2  C7  UNL     1      21.240   0.080  52.541  1.00  0.00     0.030 A 
HETATM    3  C8  UNL     1      22.617   0.112  52.519  1.00  0.00     0.019 A 
HETATM    4  C9  UNL     1      23.199  -0.482  53.620  1.00  0.00     0.033 A 
HETATM    5  C17 UNL     1      22.561  -1.072  54.683  1.00  0.00     0.081 A 
HETATM    6  C18 UNL     1      21.188  -1.065  54.633  1.00  0.00     0.066 A 
ENDROOT
BRANCH   1   7
HETATM    7  N1  UNL     1      19.099  -0.486  53.521  1.00  0.00    -0.342 N 
HETATM    8  H6  UNL     1      18.934   0.516  53.797  1.00  0.00     0.167 HD
BRANCH   7   9
HETATM    9  C5  UNL     1      18.012  -1.353  53.236  1.00  0.00     0.111 A 
HETATM   10  C4  UNL     1      18.155  -2.545  53.802  1.00  0.00     0.051 A 
HETATM   11  C3  UNL     1      17.319  -3.739  53.797  1.00  0.00     0.043 A 
HETATM   12  C2  UNL     1      16.222  -4.141  53.177  1.00  0.00     0.102 A 
HETATM   13  C22 UNL     1      15.328  -3.553  52.190  1.00  0.00     0.115 A 
HETATM   14  C21 UNL     1      15.194  -2.348  51.616  1.00  0.00     0.090 A 
HETATM   15  C20 UNL     1      15.900  -1.070  51.733  1.00  0.00     0.132 A 
HETATM   16  N3  UNL     1      17.070  -0.665  52.407  1.00  0.00    -0.299 N 
HETATM   17  N4  UNL     1      15.750   0.124  51.294  1.00  0.00    -0.252 NA
HETATM   18  C19 UNL     1      16.902   0.677  51.917  1.00  0.00     0.284 A 
BRANCH  12  19
HETATM   19  O1  UNL     1      15.726  -5.407  53.467  1.00  0.00    -0.353 OA
HETATM   20  C1  UNL     1      15.274  -5.601  54.805  1.00  0.00     0.210 C 
ENDBRANCH  12  19
BRANCH  13  21
HETATM   21  O3  UNL     1      14.337  -4.364  51.652  1.00  0.00    -0.283 OA
BRANCH  21  22
HETATM   22  C23 UNL     1      13.473  -3.781  50.735  1.00  0.00     0.403 C 
HETATM   23  O4  UNL     1      12.811  -4.163  49.749  1.00  0.00    -0.276 OA
ENDBRANCH  21  22
ENDBRANCH  13  21
ENDBRANCH   7   9
ENDBRANCH   1   7
BRANCH   5  24
HETATM   24  O2  UNL     1      23.273  -1.637  55.732  1.00  0.00    -0.360 OA
HETATM   25  H13 UNL     1      23.900  -1.109  56.317  1.00  0.00     0.217 HD
ENDBRANCH   5  24
BRANCH   4  26
HETATM   26  C10 UNL     1      24.706  -0.445  53.592  1.00  0.00     0.112 A 
HETATM   27  N2  UNL     1      25.564  -1.168  53.368  1.00  0.00    -0.239 NA
HETATM   28  C11 UNL     1      26.868  -0.977  53.389  1.00  0.00     0.075 A 
HETATM   29  C12 UNL     1      27.888  -1.863  53.115  1.00  0.00     0.033 A 
HETATM   30  C16 UNL     1      27.273   0.285  53.734  1.00  0.00     0.035 A 
HETATM   31  C13 UNL     1      29.197  -1.443  53.201  1.00  0.00     0.002 A 
HETATM   32  C14 UNL     1      29.604  -0.171  53.547  1.00  0.00     0.002 A 
HETATM   33  C15 UNL     1      28.598   0.728  53.824  1.00  0.00     0.021 A 
HETATM   34  S1  UNL     1      25.685   1.128  54.009  1.00  0.00    -0.067 SA
ENDBRANCH   4  26
TORSDOF 7
ENDMDL
MODEL 2
REMARK VINA RESULT:      -9.0      8.075     13.400
REMARK  7 active torsions:
REMARK  status: ('A' for Active; 'I' for Inactive)
REMARK    1  A    between atoms: O1_2  and  C2_3 
REMARK    2  A    between atoms: C5_6  and  N1_7 
REMARK    3  A    between atoms: N1_7  and  C6_8 
REMARK    4  A    between atoms: C9_11  and  C10_12 
REMARK    5  A    between atoms: C17_21  and  O2_22 
REMARK    6  A    between atoms: C22_29  and  O3_30 
REMARK    7  A    between atoms: O3_30  and  C23_31 
ROOT
HETATM    1  C6  UNL     1      25.800   4.424  49.420  1.00  0.00     0.036 A 
HETATM    2  C7  UNL     1      24.422   4.421  49.533  1.00  0.00     0.030 A 
HETATM    3  C8  UNL     1      23.738   3.514  50.314  1.00  0.00     0.019 A 
HETATM    4  C9  UNL     1      24.560   2.618  50.965  1.00  0.00     0.033 A 
HETATM    5  C17 UNL     1      25.931   2.552  50.909  1.00  0.00     0.081 A 
HETATM    6  C18 UNL     1      26.541   3.489  50.110  1.00  0.00     0.066 A 
ENDROOT
BRANCH   1   7
HETATM    7  N1  UNL     1      26.431   5.393  48.594  1.00  0.00    -0.342 N 
HETATM    8  H6  UNL     1      25.922   5.194  47.695  1.00  0.00     0.167 HD
BRANCH   7   9
HETATM    9  C5  UNL     1      27.423   6.406  48.661  1.00  0.00     0.111 A 
HETATM   10  C4  UNL     1      28.608   5.981  48.239  1.00  0.00     0.051 A 
HETATM   11  C3  UNL     1      29.902   6.642  48.125  1.00  0.00     0.043 A 
HETATM   12  C2  UNL     1      30.421   7.807  48.479  1.00  0.00     0.102 A 
HETATM   13  C22 UNL     1      29.917   8.988  49.163  1.00  0.00     0.115 A 
HETATM   14  C21 UNL     1      28.717   9.408  49.593  1.00  0.00     0.090 A 
HETATM   15  C20 UNL     1      27.362   8.852  49.562  1.00  0.00     0.132 A 
HETATM   16  N3  UNL     1      26.832   7.604  49.174  1.00  0.00    -0.299 N 
HETATM   17  N4  UNL     1      26.182   9.251  49.858  1.00  0.00    -0.252 NA
HETATM   18  C19 UNL     1      25.506   8.051  49.505  1.00  0.00     0.284 A 
BRANCH  12  19
HETATM   19  O1  UNL     1      31.752   8.058  48.169  1.00  0.00    -0.353 OA
HETATM   20  C1  UNL     1      32.680   7.053  48.572  1.00  0.00     0.210 C 
ENDBRANCH  12  19
BRANCH  13  21
HETATM   21  O3  UNL     1      30.829   9.981  49.494  1.00  0.00    -0.283 OA
BRANCH  21  22
HETATM   22  C23 UNL     1      30.581  11.256  49.003  1.00  0.00     0.403 C 
HETATM   23  O4  UNL     1      30.792  12.426  49.381  1.00  0.00    -0.276 OA
ENDBRANCH  21  22
ENDBRANCH  13  21
ENDBRANCH   7   9
ENDBRANCH   1   7
BRANCH   5  24
HETATM   24  O2  UNL     1      26.639   1.594  51.620  1.00  0.00    -0.360 OA
HETATM   25  H13 UNL     1      27.337   1.001  51.200  1.00  0.00     0.217 HD
ENDBRANCH   5  24
BRANCH   4  26
HETATM   26  C10 UNL     1      23.808   1.628  51.818  1.00  0.00     0.112 A 
HETATM   27  N2  UNL     1      24.031   0.933  52.699  1.00  0.00    -0.239 NA
HETATM   28  C11 UNL     1      23.242   0.104  53.353  1.00  0.00     0.075 A 
HETATM   29  C12 UNL     1      23.529  -0.726  54.415  1.00  0.00     0.033 A 
HETATM   30  C16 UNL     1      21.945   0.057  52.913  1.00  0.00     0.035 A 
HETATM   31  C13 UNL     1      22.536  -1.518  54.948  1.00  0.00     0.002 A 
HETATM   32  C14 UNL     1      21.231  -1.565  54.507  1.00  0.00     0.002 A 
HETATM   33  C15 UNL     1      20.925  -0.742  53.445  1.00  0.00     0.021 A 
HETATM   34  S1  UNL     1      21.966   1.256  51.546  1.00  0.00    -0.067 SA
ENDBRANCH   4  26
TORSDOF 7
ENDMDL
MODEL 3
REMARK VINA RESULT:      -9.0      7.755     10.754
REMARK  7 active torsions:
REMARK  status: ('A' for Active; 'I' for Inactive)
REMARK    1  A    between atoms: O1_2  and  C2_3 
REMARK    2  A    between atoms: C5_6  and  N1_7 
REMARK    3  A    between atoms: N1_7  and  C6_8 
REMARK    4  A    between atoms: C9_11  and  C10_12 
REMARK    5  A    between atoms: C17_21  and  O2_22 
REMARK    6  A    between atoms: C22_29  and  O3_30 
REMARK    7  A    between atoms: O3_30  and  C23_31 
ROOT
HETATM    1  C6  UNL     1      25.873   4.943  49.709  1.00  0.00     0.036 A 
HETATM    2  C7  UNL     1      26.926   5.206  48.852  1.00  0.00     0.030 A 
HETATM    3  C8  UNL     1      27.384   6.480  48.599  1.00  0.00     0.019 A 
HETATM    4  C9  UNL     1      26.692   7.459  49.282  1.00  0.00     0.033 A 
HETATM    5  C17 UNL     1      25.641   7.286  50.148  1.00  0.00     0.081 A 
HETATM    6  C18 UNL     1      25.242   5.987  50.349  1.00  0.00     0.066 A 
ENDROOT
BRANCH   1   7
HETATM    7  N1  UNL     1      25.460   3.599  49.917  1.00  0.00    -0.342 N 
HETATM    8  H6  UNL     1      25.252   3.339  48.919  1.00  0.00     0.167 HD
BRANCH   7   9
HETATM    9  C5  UNL     1      25.283   2.661  50.967  1.00  0.00     0.111 A 
HETATM   10  C4  UNL     1      26.424   2.091  51.332  1.00  0.00     0.051 A 
HETATM   11  C3  UNL     1      26.740   1.089  52.344  1.00  0.00     0.043 A 
HETATM   12  C2  UNL     1      26.060   0.306  53.165  1.00  0.00     0.102 A 
HETATM   13  C22 UNL     1      24.647   0.087  53.439  1.00  0.00     0.115 A 
HETATM   14  C21 UNL     1      23.497   0.664  53.060  1.00  0.00     0.090 A 
HETATM   15  C20 UNL     1      23.150   1.790  52.189  1.00  0.00     0.132 A 
HETATM   16  N3  UNL     1      23.897   2.614  51.322  1.00  0.00    -0.299 N 
HETATM   17  N4  UNL     1      22.091   2.441  51.881  1.00  0.00    -0.252 NA
HETATM   18  C19 UNL     1      22.709   3.347  50.976  1.00  0.00     0.284 A 
BRANCH  12  19
HETATM   19  O1  UNL     1      26.769  -0.542  54.008  1.00  0.00    -0.353 OA
HETATM   20  C1  UNL     1      27.822   0.066  54.752  1.00  0.00     0.210 C 
ENDBRANCH  12  19
BRANCH  13  21
HETATM   21  O3  UNL     1      24.309  -0.956  54.291  1.00  0.00    -0.283 OA
BRANCH  21  22
HETATM   22  C23 UNL     1      22.979  -1.045  54.683  1.00  0.00     0.403 C 
HETATM   23  O4  UNL     1      22.297  -1.809  55.395  1.00  0.00    -0.276 OA
ENDBRANCH  21  22
ENDBRANCH  13  21
ENDBRANCH   7   9
ENDBRANCH   1   7
BRANCH   5  24
HETATM   24  O2  UNL     1      25.032   8.365  50.773  1.00  0.00    -0.360 OA
HETATM   25  H13 UNL     1      24.917   9.263  50.331  1.00  0.00     0.217 HD
ENDBRANCH   5  24
BRANCH   4  26
HETATM   26  C10 UNL     1      27.196   8.852  49.003  1.00  0.00     0.112 A 
HETATM   27  N2  UNL     1      26.757   9.861  48.688  1.00  0.00    -0.239 NA
HETATM   28  C11 UNL     1      27.348  11.021  48.480  1.00  0.00     0.075 A 
HETATM   29  C12 UNL     1      26.800  12.228  48.101  1.00  0.00     0.033 A 
HETATM   30  C16 UNL     1      28.705  11.032  48.665  1.00  0.00     0.035 A 
HETATM   31  C13 UNL     1      27.617  13.325  47.939  1.00  0.00     0.002 A 
HETATM   32  C14 UNL     1      28.984  13.336  48.127  1.00  0.00     0.002 A 
HETATM   33  C15 UNL     1      29.549  12.138  48.506  1.00  0.00     0.021 A 
HETATM   34  S1  UNL     1      29.034   9.309  49.144  1.00  0.00    -0.067 SA
ENDBRANCH   4  26
TORSDOF 7
ENDMDL
MODEL 4
REMARK VINA RESULT:      -8.9      7.496     10.546
REMARK  7 active torsions:
REMARK  status: ('A' for Active; 'I' for Inactive)
REMARK    1  A    between atoms: O1_2  and  C2_3 
REMARK    2  A    between atoms: C5_6  and  N1_7 
REMARK    3  A    between atoms: N1_7  and  C6_8 
REMARK    4  A    between atoms: C9_11  and  C10_12 
REMARK    5  A    between atoms: C17_21  and  O2_22 
REMARK    6  A    between atoms: C22_29  and  O3_30 
REMARK    7  A    between atoms: O3_30  and  C23_31 
ROOT
HETATM    1  C6  UNL     1      26.149   4.476  49.324  1.00  0.00     0.036 A 
HETATM    2  C7  UNL     1      25.625   5.756  49.338  1.00  0.00     0.030 A 
HETATM    3  C8  UNL     1      26.345   6.863  48.944  1.00  0.00     0.019 A 
HETATM    4  C9  UNL     1      27.630   6.567  48.538  1.00  0.00     0.033 A 
HETATM    5  C17 UNL     1      28.226   5.331  48.493  1.00  0.00     0.081 A 
HETATM    6  C18 UNL     1      27.444   4.277  48.900  1.00  0.00     0.066 A 
ENDROOT
BRANCH   1   7
HETATM    7  N1  UNL     1      25.340   3.385  49.746  1.00  0.00    -0.342 N 
HETATM    8  H6  UNL     1      24.746   3.283  48.883  1.00  0.00     0.167 HD
BRANCH   7   9
HETATM    9  C5  UNL     1      25.157   2.531  50.863  1.00  0.00     0.111 A 
HETATM   10  C4  UNL     1      26.287   1.945  51.241  1.00  0.00     0.051 A 
HETATM   11  C3  UNL     1      26.593   1.006  52.313  1.00  0.00     0.043 A 
HETATM   12  C2  UNL     1      25.908   0.308  53.203  1.00  0.00     0.102 A 
HETATM   13  C22 UNL     1      24.496   0.160  53.525  1.00  0.00     0.115 A 
HETATM   14  C21 UNL     1      23.357   0.751  53.133  1.00  0.00     0.090 A 
HETATM   15  C20 UNL     1      23.028   1.825  52.192  1.00  0.00     0.132 A 
HETATM   16  N3  UNL     1      23.781   2.559  51.253  1.00  0.00    -0.299 N 
HETATM   17  N4  UNL     1      21.985   2.492  51.864  1.00  0.00    -0.252 NA
HETATM   18  C19 UNL     1      22.610   3.309  50.883  1.00  0.00     0.284 A 
BRANCH  12  19
HETATM   19  O1  UNL     1      26.609  -0.506  54.087  1.00  0.00    -0.353 OA
HETATM   20  C1  UNL     1      27.768   0.079  54.676  1.00  0.00     0.210 C 
ENDBRANCH  12  19
BRANCH  13  21
HETATM   21  O3  UNL     1      24.143  -0.808  54.456  1.00  0.00    -0.283 OA
BRANCH  21  22
HETATM   22  C23 UNL     1      22.800  -1.152  54.531  1.00  0.00     0.403 C 
HETATM   23  O4  UNL     1      22.049  -1.679  55.376  1.00  0.00    -0.276 OA
ENDBRANCH  21  22
ENDBRANCH  13  21
ENDBRANCH   7   9
ENDBRANCH   1   7
BRANCH   5  24
HETATM   24  O2  UNL     1      29.535   5.174  48.060  1.00  0.00    -0.360 OA
HETATM   25  H13 UNL     1      30.308   5.692  48.445  1.00  0.00     0.217 HD
ENDBRANCH   5  24
BRANCH   4  26
HETATM   26  C10 UNL     1      28.415   7.781  48.109  1.00  0.00     0.112 A 
HETATM   27  N2  UNL     1      29.342   8.352  48.458  1.00  0.00    -0.239 NA
HETATM   28  C11 UNL     1      29.919   9.428  47.959  1.00  0.00     0.075 A 
HETATM   29  C12 UNL     1      31.039  10.104  48.394  1.00  0.00     0.033 A 
HETATM   30  C16 UNL     1      29.319   9.955  46.846  1.00  0.00     0.035 A 
HETATM   31  C13 UNL     1      31.469  11.220  47.712  1.00  0.00     0.002 A 
HETATM   32  C14 UNL     1      30.866  11.750  46.590  1.00  0.00     0.002 A 
HETATM   33  C15 UNL     1      29.744  11.088  46.141  1.00  0.00     0.021 A 
HETATM   34  S1  UNL     1      27.923   8.818  46.595  1.00  0.00    -0.067 SA
ENDBRANCH   4  26
TORSDOF 7
ENDMDL
MODEL 5
REMARK VINA RESULT:      -8.8      1.899      3.159
REMARK  7 active torsions:
REMARK  status: ('A' for Active; 'I' for Inactive)
REMARK    1  A    between atoms: O1_2  and  C2_3 
REMARK    2  A    between atoms: C5_6  and  N1_7 
REMARK    3  A    between atoms: N1_7  and  C6_8 
REMARK    4  A    between atoms: C9_11  and  C10_12 
REMARK    5  A    between atoms: C17_21  and  O2_22 
REMARK    6  A    between atoms: C22_29  and  O3_30 
REMARK    7  A    between atoms: O3_30  and  C23_31 
ROOT
HETATM    1  C6  UNL     1      20.995  -0.587  53.734  1.00  0.00     0.036 A 
HETATM    2  C7  UNL     1      21.679   0.028  52.701  1.00  0.00     0.030 A 
HETATM    3  C8  UNL     1      23.053   0.116  52.661  1.00  0.00     0.019 A 
HETATM    4  C9  UNL     1      23.673  -0.468  53.747  1.00  0.00     0.033 A 
HETATM    5  C17 UNL     1      23.073  -1.097  54.810  1.00  0.00     0.081 A 
HETATM    6  C18 UNL     1      21.700  -1.144  54.778  1.00  0.00     0.066 A 
ENDROOT
BRANCH   1   7
HETATM    7  N1  UNL     1      19.575  -0.636  53.700  1.00  0.00    -0.342 N 
HETATM    8  H6  UNL     1      19.390  -0.656  54.735  1.00  0.00     0.167 HD
BRANCH   7   9
HETATM    9  C5  UNL     1      18.505  -0.660  52.768  1.00  0.00     0.111 A 
HETATM   10  C4  UNL     1      18.542   0.368  51.930  1.00  0.00     0.051 A 
HETATM   11  C3  UNL     1      17.678   0.763  50.824  1.00  0.00     0.043 A 
HETATM   12  C2  UNL     1      16.523   0.363  50.318  1.00  0.00     0.102 A 
HETATM   13  C22 UNL     1      15.567  -0.685  50.645  1.00  0.00     0.115 A 
HETATM   14  C21 UNL     1      15.533  -1.718  51.500  1.00  0.00     0.090 A 
HETATM   15  C20 UNL     1      16.461  -2.256  52.498  1.00  0.00     0.132 A 
HETATM   16  N3  UNL     1      17.693  -1.811  53.019  1.00  0.00    -0.299 N 
HETATM   17  N4  UNL     1      16.523  -3.288  53.254  1.00  0.00    -0.252 NA
HETATM   18  C19 UNL     1      17.765  -2.969  53.869  1.00  0.00     0.284 A 
BRANCH  12  19
HETATM   19  O1  UNL     1      16.019   1.037  49.210  1.00  0.00    -0.353 OA
HETATM   20  C1  UNL     1      16.696   2.241  48.860  1.00  0.00     0.210 C 
ENDBRANCH  12  19
BRANCH  13  21
HETATM   21  O3  UNL     1      14.363  -0.699  49.953  1.00  0.00    -0.283 OA
BRANCH  21  22
HETATM   22  C23 UNL     1      13.211  -0.919  50.697  1.00  0.00     0.403 C 
HETATM   23  O4  UNL     1      11.988  -0.999  50.465  1.00  0.00    -0.276 OA
ENDBRANCH  21  22
ENDBRANCH  13  21
ENDBRANCH   7   9
ENDBRANCH   1   7
BRANCH   5  24
HETATM   24  O2  UNL     1      23.820  -1.645  55.843  1.00  0.00    -0.360 OA
HETATM   25  H13 UNL     1      23.414  -2.192  56.585  1.00  0.00     0.217 HD
ENDBRANCH   5  24
BRANCH   4  26
HETATM   26  C10 UNL     1      25.177  -0.370  53.701  1.00  0.00     0.112 A 
HETATM   27  N2  UNL     1      26.063  -1.073  53.531  1.00  0.00    -0.239 NA
HETATM   28  C11 UNL     1      27.358  -0.826  53.522  1.00  0.00     0.075 A 
HETATM   29  C12 UNL     1      28.413  -1.689  53.314  1.00  0.00     0.033 A 
HETATM   30  C16 UNL     1      27.711   0.477  53.753  1.00  0.00     0.035 A 
HETATM   31  C13 UNL     1      29.703  -1.208  53.350  1.00  0.00     0.002 A 
HETATM   32  C14 UNL     1      30.058   0.105  53.582  1.00  0.00     0.002 A 
HETATM   33  C15 UNL     1      29.016   0.982  53.792  1.00  0.00     0.021 A 
HETATM   34  S1  UNL     1      26.090   1.273  53.972  1.00  0.00    -0.067 SA
ENDBRANCH   4  26
TORSDOF 7
ENDMDL
MODEL 6
REMARK VINA RESULT:      -8.7      8.575     14.726
REMARK  7 active torsions:
REMARK  status: ('A' for Active; 'I' for Inactive)
REMARK    1  A    between atoms: O1_2  and  C2_3 
REMARK    2  A    between atoms: C5_6  and  N1_7 
REMARK    3  A    between atoms: N1_7  and  C6_8 
REMARK    4  A    between atoms: C9_11  and  C10_12 
REMARK    5  A    between atoms: C17_21  and  O2_22 
REMARK    6  A    between atoms: C22_29  and  O3_30 
REMARK    7  A    between atoms: O3_30  and  C23_31 
ROOT
HETATM    1  C6  UNL     1      27.054   5.486  48.860  1.00  0.00     0.036 A 
HETATM    2  C7  UNL     1      27.272   4.129  49.012  1.00  0.00     0.030 A 
HETATM    3  C8  UNL     1      26.349   3.284  49.588  1.00  0.00     0.019 A 
HETATM    4  C9  UNL     1      25.195   3.923  49.994  1.00  0.00     0.033 A 
HETATM    5  C17 UNL     1      24.899   5.259  49.880  1.00  0.00     0.081 A 
HETATM    6  C18 UNL     1      25.869   6.037  49.295  1.00  0.00     0.066 A 
ENDROOT
BRANCH   1   7
HETATM    7  N1  UNL     1      28.057   6.291  48.254  1.00  0.00    -0.342 N 
HETATM    8  H6  UNL     1      27.437   6.914  47.677  1.00  0.00     0.167 HD
BRANCH   7   9
HETATM    9  C5  UNL     1      29.468   6.445  48.234  1.00  0.00     0.111 A 
HETATM   10  C4  UNL     1      30.087   5.360  47.787  1.00  0.00     0.051 A 
HETATM   11  C3  UNL     1      31.498   5.047  47.590  1.00  0.00     0.043 A 
HETATM   12  C2  UNL     1      32.657   5.622  47.866  1.00  0.00     0.102 A 
HETATM   13  C22 UNL     1      33.058   6.864  48.511  1.00  0.00     0.115 A 
HETATM   14  C21 UNL     1      32.424   7.955  48.967  1.00  0.00     0.090 A 
HETATM   15  C20 UNL     1      31.025   8.385  49.016  1.00  0.00     0.132 A 
HETATM   16  N3  UNL     1      29.802   7.752  48.710  1.00  0.00    -0.299 N 
HETATM   17  N4  UNL     1      30.385   9.447  49.338  1.00  0.00    -0.252 NA
HETATM   18  C19 UNL     1      29.082   8.944  49.071  1.00  0.00     0.284 A 
BRANCH  12  19
HETATM   19  O1  UNL     1      33.825   4.967  47.493  1.00  0.00    -0.353 OA
HETATM   20  C1  UNL     1      33.819   3.551  47.661  1.00  0.00     0.210 C 
ENDBRANCH  12  19
BRANCH  13  21
HETATM   21  O3  UNL     1      34.411   7.055  48.758  1.00  0.00    -0.283 OA
BRANCH  21  22
HETATM   22  C23 UNL     1      34.985   8.216  48.256  1.00  0.00     0.403 C 
HETATM   23  O4  UNL     1      36.111   8.754  48.290  1.00  0.00    -0.276 OA
ENDBRANCH  21  22
ENDBRANCH  13  21
ENDBRANCH   7   9
ENDBRANCH   1   7
BRANCH   5  24
HETATM   24  O2  UNL     1      23.692   5.774  50.332  1.00  0.00    -0.360 OA
HETATM   25  H13 UNL     1      22.989   5.212  50.784  1.00  0.00     0.217 HD
ENDBRANCH   5  24
BRANCH   4  26
HETATM   26  C10 UNL     1      24.188   2.995  50.624  1.00  0.00     0.112 A 
HETATM   27  N2  UNL     1      23.241   2.437  50.306  1.00  0.00    -0.239 NA
HETATM   28  C11 UNL     1      22.449   1.641  50.996  1.00  0.00     0.075 A 
HETATM   29  C12 UNL     1      21.310   0.975  50.595  1.00  0.00     0.033 A 
HETATM   30  C16 UNL     1      22.806   1.443  52.304  1.00  0.00     0.035 A 
HETATM   31  C13 UNL     1      20.629   0.186  51.496  1.00  0.00     0.002 A 
HETATM   32  C14 UNL     1      20.990  -0.013  52.812  1.00  0.00     0.002 A 
HETATM   33  C15 UNL     1      22.126   0.644  53.231  1.00  0.00     0.021 A 
HETATM   34  S1  UNL     1      24.310   2.456  52.441  1.00  0.00    -0.067 SA
ENDBRANCH   4  26
TORSDOF 7
ENDMDL
MODEL 7
REMARK VINA RESULT:      -8.5      7.715     10.432
REMARK  7 active torsions:
REMARK  status: ('A' for Active; 'I' for Inactive)
REMARK    1  A    between atoms: O1_2  and  C2_3 
REMARK    2  A    between atoms: C5_6  and  N1_7 
REMARK    3  A    between atoms: N1_7  and  C6_8 
REMARK    4  A    between atoms: C9_11  and  C10_12 
REMARK    5  A    between atoms: C17_21  and  O2_22 
REMARK    6  A    between atoms: C22_29  and  O3_30 
REMARK    7  A    between atoms: O3_30  and  C23_31 
ROOT
HETATM    1  C6  UNL     1      25.908   4.794  49.608  1.00  0.00     0.036 A 
HETATM    2  C7  UNL     1      26.957   5.164  48.787  1.00  0.00     0.030 A 
HETATM    3  C8  UNL     1      27.320   6.478  48.584  1.00  0.00     0.019 A 
HETATM    4  C9  UNL     1      26.538   7.378  49.278  1.00  0.00     0.033 A 
HETATM    5  C17 UNL     1      25.483   7.097  50.111  1.00  0.00     0.081 A 
HETATM    6  C18 UNL     1      25.182   5.764  50.263  1.00  0.00     0.066 A 
ENDROOT
BRANCH   1   7
HETATM    7  N1  UNL     1      25.596   3.415  49.764  1.00  0.00    -0.342 N 
HETATM    8  H6  UNL     1      26.199   3.026  48.996  1.00  0.00     0.167 HD
BRANCH   7   9
HETATM    9  C5  UNL     1      24.799   2.561  50.570  1.00  0.00     0.111 A 
HETATM   10  C4  UNL     1      23.576   2.400  50.079  1.00  0.00     0.051 A 
HETATM   11  C3  UNL     1      22.427   1.633  50.543  1.00  0.00     0.043 A 
HETATM   12  C2  UNL     1      22.110   0.935  51.621  1.00  0.00     0.102 A 
HETATM   13  C22 UNL     1      22.788   0.608  52.867  1.00  0.00     0.115 A 
HETATM   14  C21 UNL     1      24.023   0.781  53.360  1.00  0.00     0.090 A 
HETATM   15  C20 UNL     1      25.257   1.384  52.851  1.00  0.00     0.132 A 
HETATM   16  N3  UNL     1      25.572   2.122  51.691  1.00  0.00    -0.299 N 
HETATM   17  N4  UNL     1      26.476   1.480  53.232  1.00  0.00    -0.252 NA
HETATM   18  C19 UNL     1      26.941   2.230  52.117  1.00  0.00     0.284 A 
BRANCH  12  19
HETATM   19  O1  UNL     1      20.859   0.331  51.673  1.00  0.00    -0.353 OA
HETATM   20  C1  UNL     1      19.811   1.024  50.998  1.00  0.00     0.210 C 
ENDBRANCH  12  19
BRANCH  13  21
HETATM   21  O3  UNL     1      22.053  -0.044  53.850  1.00  0.00    -0.283 OA
BRANCH  21  22
HETATM   22  C23 UNL     1      22.685  -1.078  54.528  1.00  0.00     0.403 C 
HETATM   23  O4  UNL     1      22.371  -1.906  55.407  1.00  0.00    -0.276 OA
ENDBRANCH  21  22
ENDBRANCH  13  21
ENDBRANCH   7   9
ENDBRANCH   1   7
BRANCH   5  24
HETATM   24  O2  UNL     1      24.777   8.105  50.752  1.00  0.00    -0.360 OA
HETATM   25  H13 UNL     1      24.872   8.303  51.735  1.00  0.00     0.217 HD
ENDBRANCH   5  24
BRANCH   4  26
HETATM   26  C10 UNL     1      26.938   8.814  49.054  1.00  0.00     0.112 A 
HETATM   27  N2  UNL     1      26.437   9.787  48.719  1.00  0.00    -0.239 NA
HETATM   28  C11 UNL     1      26.939  10.997  48.570  1.00  0.00     0.075 A 
HETATM   29  C12 UNL     1      26.318  12.159  48.165  1.00  0.00     0.033 A 
HETATM   30  C16 UNL     1      28.273  11.121  48.858  1.00  0.00     0.035 A 
HETATM   31  C13 UNL     1      27.047  13.325  48.077  1.00  0.00     0.002 A 
HETATM   32  C14 UNL     1      28.389  13.450  48.368  1.00  0.00     0.002 A 
HETATM   33  C15 UNL     1      29.027  12.298  48.775  1.00  0.00     0.021 A 
HETATM   34  S1  UNL     1      28.714   9.424  49.340  1.00  0.00    -0.067 SA
ENDBRANCH   4  26
TORSDOF 7
ENDMDL
MODEL 8
REMARK VINA RESULT:      -8.5      3.045      3.973
REMARK  7 active torsions:
REMARK  status: ('A' for Active; 'I' for Inactive)
REMARK    1  A    between atoms: O1_2  and  C2_3 
REMARK    2  A    between atoms: C5_6  and  N1_7 
REMARK    3  A    between atoms: N1_7  and  C6_8 
REMARK    4  A    between atoms: C9_11  and  C10_12 
REMARK    5  A    between atoms: C17_21  and  O2_22 
REMARK    6  A    between atoms: C22_29  and  O3_30 
REMARK    7  A    between atoms: O3_30  and  C23_31 
ROOT
HETATM    1  C6  UNL     1      20.659   0.530  51.607  1.00  0.00     0.036 A 
HETATM    2  C7  UNL     1      21.599   1.207  50.852  1.00  0.00     0.030 A 
HETATM    3  C8  UNL     1      22.938   1.237  51.176  1.00  0.00     0.019 A 
HETATM    4  C9  UNL     1      23.243   0.529  52.321  1.00  0.00     0.033 A 
HETATM    5  C17 UNL     1      22.375  -0.168  53.125  1.00  0.00     0.081 A 
HETATM    6  C18 UNL     1      21.057  -0.151  52.736  1.00  0.00     0.066 A 
ENDROOT
BRANCH   1   7
HETATM    7  N1  UNL     1      19.296   0.547  51.204  1.00  0.00    -0.342 N 
HETATM    8  H6  UNL     1      19.403   0.104  50.257  1.00  0.00     0.167 HD
BRANCH   7   9
HETATM    9  C5  UNL     1      18.022   0.950  51.682  1.00  0.00     0.111 A 
HETATM   10  C4  UNL     1      17.276  -0.081  52.060  1.00  0.00     0.051 A 
HETATM   11  C3  UNL     1      15.927  -0.167  52.606  1.00  0.00     0.043 A 
HETATM   12  C2  UNL     1      14.922   0.667  52.818  1.00  0.00     0.102 A 
HETATM   13  C22 UNL     1      14.704   2.089  52.597  1.00  0.00     0.115 A 
HETATM   14  C21 UNL     1      15.462   3.125  52.206  1.00  0.00     0.090 A 
HETATM   15  C20 UNL     1      16.868   3.283  51.826  1.00  0.00     0.132 A 
HETATM   16  N3  UNL     1      17.925   2.375  51.611  1.00  0.00    -0.299 N 
HETATM   17  N4  UNL     1      17.658   4.254  51.553  1.00  0.00    -0.252 NA
HETATM   18  C19 UNL     1      18.813   3.464  51.304  1.00  0.00     0.284 A 
BRANCH  12  19
HETATM   19  O1  UNL     1      13.755   0.164  53.384  1.00  0.00    -0.353 OA
HETATM   20  C1  UNL     1      13.255  -1.037  52.801  1.00  0.00     0.210 C 
ENDBRANCH  12  19
BRANCH  13  21
HETATM   21  O3  UNL     1      13.427   2.589  52.816  1.00  0.00    -0.283 OA
BRANCH  21  22
HETATM   22  C23 UNL     1      13.326   3.930  53.161  1.00  0.00     0.403 C 
HETATM   23  O4  UNL     1      13.402   4.600  54.211  1.00  0.00    -0.276 OA
ENDBRANCH  21  22
ENDBRANCH  13  21
ENDBRANCH   7   9
ENDBRANCH   1   7
BRANCH   5  24
HETATM   24  O2  UNL     1      22.817  -0.841  54.255  1.00  0.00    -0.360 OA
HETATM   25  H13 UNL     1      23.582  -1.496  54.241  1.00  0.00     0.217 HD
ENDBRANCH   5  24
BRANCH   4  26
HETATM   26  C10 UNL     1      24.708   0.564  52.673  1.00  0.00     0.112 A 
HETATM   27  N2  UNL     1      25.572  -0.180  52.763  1.00  0.00    -0.239 NA
HETATM   28  C11 UNL     1      26.834   0.014  53.092  1.00  0.00     0.075 A 
HETATM   29  C12 UNL     1      27.863  -0.899  53.195  1.00  0.00     0.033 A 
HETATM   30  C16 UNL     1      27.177   1.310  53.373  1.00  0.00     0.035 A 
HETATM   31  C13 UNL     1      29.120  -0.469  53.559  1.00  0.00     0.002 A 
HETATM   32  C14 UNL     1      29.465   0.837  53.842  1.00  0.00     0.002 A 
HETATM   33  C15 UNL     1      28.450   1.762  53.744  1.00  0.00     0.021 A 
HETATM   34  S1  UNL     1      25.598   2.178  53.132  1.00  0.00    -0.067 SA
ENDBRANCH   4  26
TORSDOF 7
ENDMDL
MODEL 9
REMARK VINA RESULT:      -8.3      3.213      4.217
REMARK  7 active torsions:
REMARK  status: ('A' for Active; 'I' for Inactive)
REMARK    1  A    between atoms: O1_2  and  C2_3 
REMARK    2  A    between atoms: C5_6  and  N1_7 
REMARK    3  A    between atoms: N1_7  and  C6_8 
REMARK    4  A    between atoms: C9_11  and  C10_12 
REMARK    5  A    between atoms: C17_21  and  O2_22 
REMARK    6  A    between atoms: C22_29  and  O3_30 
REMARK    7  A    between atoms: O3_30  and  C23_31 
ROOT
HETATM    1  C6  UNL     1      20.599   0.599  51.654  1.00  0.00     0.036 A 
HETATM    2  C7  UNL     1      21.018   0.007  52.831  1.00  0.00     0.030 A 
HETATM    3  C8  UNL     1      22.322   0.064  53.274  1.00  0.00     0.019 A 
HETATM    4  C9  UNL     1      23.159   0.766  52.431  1.00  0.00     0.033 A 
HETATM    5  C17 UNL     1      22.826   1.383  51.250  1.00  0.00     0.081 A 
HETATM    6  C18 UNL     1      21.508   1.282  50.876  1.00  0.00     0.066 A 
ENDROOT
BRANCH   1   7
HETATM    7  N1  UNL     1      19.235   0.495  51.266  1.00  0.00    -0.342 N 
HETATM    8  H6  UNL     1      19.366  -0.019  50.357  1.00  0.00     0.167 HD
BRANCH   7   9
HETATM    9  C5  UNL     1      17.941   0.853  51.722  1.00  0.00     0.111 A 
HETATM   10  C4  UNL     1      17.248  -0.195  52.150  1.00  0.00     0.051 A 
HETATM   11  C3  UNL     1      15.903  -0.324  52.698  1.00  0.00     0.043 A 
HETATM   12  C2  UNL     1      14.855   0.466  52.868  1.00  0.00     0.102 A 
HETATM   13  C22 UNL     1      14.565   1.861  52.575  1.00  0.00     0.115 A 
HETATM   14  C21 UNL     1      15.269   2.915  52.134  1.00  0.00     0.090 A 
HETATM   15  C20 UNL     1      16.666   3.128  51.748  1.00  0.00     0.132 A 
HETATM   16  N3  UNL     1      17.770   2.267  51.579  1.00  0.00    -0.299 N 
HETATM   17  N4  UNL     1      17.405   4.124  51.427  1.00  0.00    -0.252 NA
HETATM   18  C19 UNL     1      18.601   3.384  51.219  1.00  0.00     0.284 A 
BRANCH  12  19
HETATM   19  O1  UNL     1      13.715  -0.068  53.456  1.00  0.00    -0.353 OA
HETATM   20  C1  UNL     1      13.240  -1.287  52.889  1.00  0.00     0.210 C 
ENDBRANCH  12  19
BRANCH  13  21
HETATM   21  O3  UNL     1      13.263   2.304  52.768  1.00  0.00    -0.283 OA
BRANCH  21  22
HETATM   22  C23 UNL     1      13.100   3.520  53.419  1.00  0.00     0.403 C 
HETATM   23  O4  UNL     1      12.175   4.109  54.014  1.00  0.00    -0.276 OA
ENDBRANCH  21  22
ENDBRANCH  13  21
ENDBRANCH   7   9
ENDBRANCH   1   7
BRANCH   5  24
HETATM   24  O2  UNL     1      23.773   2.061  50.495  1.00  0.00    -0.360 OA
HETATM   25  H13 UNL     1      24.345   2.802  50.867  1.00  0.00     0.217 HD
ENDBRANCH   5  24
BRANCH   4  26
HETATM   26  C10 UNL     1      24.584   0.826  52.919  1.00  0.00     0.112 A 
HETATM   27  N2  UNL     1      25.482   1.528  52.817  1.00  0.00    -0.239 NA
HETATM   28  C11 UNL     1      26.697   1.438  53.320  1.00  0.00     0.075 A 
HETATM   29  C12 UNL     1      27.767   2.297  53.186  1.00  0.00     0.033 A 
HETATM   30  C16 UNL     1      26.935   0.329  54.088  1.00  0.00     0.035 A 
HETATM   31  C13 UNL     1      28.960   1.999  53.807  1.00  0.00     0.002 A 
HETATM   32  C14 UNL     1      29.200   0.883  54.581  1.00  0.00     0.002 A 
HETATM   33  C15 UNL     1      28.141   0.013  54.727  1.00  0.00     0.021 A 
HETATM   34  S1  UNL     1      25.331  -0.526  54.024  1.00  0.00    -0.067 SA
ENDBRANCH   4  26
TORSDOF 7
ENDMDL
