MODEL 1
REMARK VINA RESULT:      -8.3      0.000      0.000
REMARK  6 active torsions:
REMARK  status: ('A' for Active; 'I' for Inactive)
REMARK    1  A    between atoms: C1_2  and  C2_3 
REMARK       I    between atoms: C1_2  and  N2_12 
REMARK    2  A    between atoms: C3_4  and  C4_5 
REMARK    3  A    between atoms: C4_5  and  N1_6 
REMARK    4  A    between atoms: N2_12  and  C9_13 
REMARK    5  A    between atoms: N3_17  and  C13_18 
REMARK    6  A    between atoms: C14_19  and  C15_20 
ROOT
HETATM    1  C9  UNL     1      24.361   4.354  49.684  1.00  0.00     0.032 A 
HETATM    2  C10 UNL     1      23.750   3.268  49.262  1.00  0.00     0.009 A 
HETATM    3  C11 UNL     1      22.565   2.517  49.705  1.00  0.00     0.088 A 
HETATM    4  C12 UNL     1      22.014   3.213  50.896  1.00  0.00     0.037 A 
HETATM    5  N3  UNL     1      20.986   2.706  51.429  1.00  0.00    -0.265 NA
HETATM    6  C21 UNL     1      22.659   4.416  51.392  1.00  0.00     0.029 A 
HETATM    7  C22 UNL     1      23.737   4.950  50.846  1.00  0.00     0.031 A 
ENDROOT
BRANCH   1   8
HETATM    8  N2  UNL     1      25.515   4.956  49.133  1.00  0.00    -0.317 N 
HETATM    9  C1  UNL     1      26.859   4.542  49.162  1.00  0.00     0.301 C 
HETATM   10  O1  UNL     1      27.158   3.479  49.751  1.00  0.00    -0.258 OA
HETATM   11  H11 UNL     1      25.402   5.851  48.614  1.00  0.00     0.170 HD
BRANCH   9  12
HETATM   12  C2  UNL     1      27.945   5.257  48.556  1.00  0.00    -0.004 C 
HETATM   13  C3  UNL     1      28.867   5.859  48.056  1.00  0.00    -0.077 C 
BRANCH  13  14
HETATM   14  C4  UNL     1      29.998   6.569  47.438  1.00  0.00     0.212 C 
BRANCH  14  15
HETATM   15  N1  UNL     1      31.184   5.892  47.848  1.00  0.00    -0.401 N 
HETATM   16  C5  UNL     1      31.348   4.581  47.338  1.00  0.00     0.128 C 
HETATM   17  C6  UNL     1      32.669   4.369  46.616  1.00  0.00     0.093 C 
HETATM   18  S1  UNL     1      33.941   4.531  47.923  1.00  0.00    -0.166 SA
HETATM   19  C7  UNL     1      33.380   5.988  48.863  1.00  0.00     0.093 C 
HETATM   20  C8  UNL     1      32.352   6.672  47.998  1.00  0.00     0.128 C 
ENDBRANCH  14  15
ENDBRANCH  13  14
ENDBRANCH   9  12
ENDBRANCH   1   8
BRANCH   5  21
HETATM   21  C13 UNL     1      20.360   1.531  50.941  1.00  0.00     0.118 C 
HETATM   22  C14 UNL     1      20.468   0.314  51.424  1.00  0.00     0.030 C 
BRANCH  22  23
HETATM   23  C15 UNL     1      21.238  -0.131  52.553  1.00  0.00    -0.034 A 
HETATM   24  C16 UNL     1      20.766  -0.589  53.757  1.00  0.00     0.011 A 
HETATM   25  C17 UNL     1      21.525  -1.007  54.815  1.00  0.00     0.002 A 
HETATM   26  C18 UNL     1      22.885  -0.979  54.692  1.00  0.00     0.019 A 
HETATM   27  C19 UNL     1      23.442  -0.538  53.528  1.00  0.00     0.011 A 
HETATM   28 BR1  UNL     1      25.330  -0.493  53.347  1.00  0.00    -0.051 Br
HETATM   29  C20 UNL     1      22.638  -0.128  52.492  1.00  0.00     0.030 A 
ENDBRANCH  22  23
ENDBRANCH   5  21
TORSDOF 6
ENDMDL
MODEL 2
REMARK VINA RESULT:      -8.1      1.021      1.307
REMARK  6 active torsions:
REMARK  status: ('A' for Active; 'I' for Inactive)
REMARK    1  A    between atoms: C1_2  and  C2_3 
REMARK       I    between atoms: C1_2  and  N2_12 
REMARK    2  A    between atoms: C3_4  and  C4_5 
REMARK    3  A    between atoms: C4_5  and  N1_6 
REMARK    4  A    between atoms: N2_12  and  C9_13 
REMARK    5  A    between atoms: N3_17  and  C13_18 
REMARK    6  A    between atoms: C14_19  and  C15_20 
ROOT
HETATM    1  C9  UNL     1      24.776   4.745  49.800  1.00  0.00     0.032 A 
HETATM    2  C10 UNL     1      24.234   3.646  49.323  1.00  0.00     0.009 A 
HETATM    3  C11 UNL     1      23.176   2.736  49.788  1.00  0.00     0.088 A 
HETATM    4  C12 UNL     1      22.681   3.254  51.089  1.00  0.00     0.037 A 
HETATM    5  N3  UNL     1      21.763   2.593  51.655  1.00  0.00    -0.265 NA
HETATM    6  C21 UNL     1      23.252   4.465  51.649  1.00  0.00     0.029 A 
HETATM    7  C22 UNL     1      24.215   5.159  51.069  1.00  0.00     0.031 A 
ENDROOT
BRANCH   1   8
HETATM    8  N2  UNL     1      25.808   5.515  49.216  1.00  0.00    -0.317 N 
HETATM    9  C1  UNL     1      27.103   5.144  48.811  1.00  0.00     0.301 C 
HETATM   10  O1  UNL     1      27.472   3.957  48.959  1.00  0.00    -0.258 OA
HETATM   11  H11 UNL     1      25.626   6.525  49.038  1.00  0.00     0.170 HD
BRANCH   9  12
HETATM   12  C2  UNL     1      28.060   6.037  48.225  1.00  0.00    -0.004 C 
HETATM   13  C3  UNL     1      28.861   6.789  47.719  1.00  0.00    -0.077 C 
BRANCH  13  14
HETATM   14  C4  UNL     1      29.823   7.724  47.113  1.00  0.00     0.212 C 
BRANCH  14  15
HETATM   15  N1  UNL     1      31.120   7.316  47.540  1.00  0.00    -0.401 N 
HETATM   16  C5  UNL     1      31.397   7.495  48.917  1.00  0.00     0.128 C 
HETATM   17  C6  UNL     1      31.857   6.226  49.617  1.00  0.00     0.093 C 
HETATM   18  S1  UNL     1      33.476   5.841  48.855  1.00  0.00    -0.166 SA
HETATM   19  C7  UNL     1      33.170   6.114  47.079  1.00  0.00     0.093 C 
HETATM   20  C8  UNL     1      31.673   6.174  46.919  1.00  0.00     0.128 C 
ENDBRANCH  14  15
ENDBRANCH  13  14
ENDBRANCH   9  12
ENDBRANCH   1   8
BRANCH   5  21
HETATM   21  C13 UNL     1      21.208   1.410  51.104  1.00  0.00     0.118 C 
HETATM   22  C14 UNL     1      21.300   0.191  51.586  1.00  0.00     0.030 C 
BRANCH  22  23
HETATM   23  C15 UNL     1      21.977  -0.249  52.775  1.00  0.00    -0.034 A 
HETATM   24  C16 UNL     1      21.413  -0.778  53.908  1.00  0.00     0.011 A 
HETATM   25  C17 UNL     1      22.085  -1.188  55.027  1.00  0.00     0.002 A 
HETATM   26  C18 UNL     1      23.445  -1.076  55.047  1.00  0.00     0.019 A 
HETATM   27  C19 UNL     1      24.090  -0.560  53.962  1.00  0.00     0.011 A 
HETATM   28 BR1  UNL     1      25.981  -0.397  53.980  1.00  0.00    -0.051 Br
HETATM   29  C20 UNL     1      23.373  -0.161  52.860  1.00  0.00     0.030 A 
ENDBRANCH  22  23
ENDBRANCH   5  21
TORSDOF 6
ENDMDL
MODEL 3
REMARK VINA RESULT:      -8.1      2.002      2.560
REMARK  6 active torsions:
REMARK  status: ('A' for Active; 'I' for Inactive)
REMARK    1  A    between atoms: C1_2  and  C2_3 
REMARK       I    between atoms: C1_2  and  N2_12 
REMARK    2  A    between atoms: C3_4  and  C4_5 
REMARK    3  A    between atoms: C4_5  and  N1_6 
REMARK    4  A    between atoms: N2_12  and  C9_13 
REMARK    5  A    between atoms: N3_17  and  C13_18 
REMARK    6  A    between atoms: C14_19  and  C15_20 
ROOT
HETATM    1  C9  UNL     1      24.352   4.466  49.681  1.00  0.00     0.032 A 
HETATM    2  C10 UNL     1      23.744   3.390  49.232  1.00  0.00     0.009 A 
HETATM    3  C11 UNL     1      22.566   2.621  49.661  1.00  0.00     0.088 A 
HETATM    4  C12 UNL     1      22.020   3.279  50.876  1.00  0.00     0.037 A 
HETATM    5  N3  UNL     1      20.998   2.751  51.401  1.00  0.00    -0.265 NA
HETATM    6  C21 UNL     1      22.662   4.470  51.403  1.00  0.00     0.029 A 
HETATM    7  C22 UNL     1      23.734   5.025  50.865  1.00  0.00     0.031 A 
ENDROOT
BRANCH   1   8
HETATM    8  N2  UNL     1      25.499   5.090  49.140  1.00  0.00    -0.317 N 
HETATM    9  C1  UNL     1      26.838   4.659  49.102  1.00  0.00     0.301 C 
HETATM   10  O1  UNL     1      27.137   3.554  49.609  1.00  0.00    -0.258 OA
HETATM   11  H11 UNL     1      25.385   6.020  48.687  1.00  0.00     0.170 HD
BRANCH   9  12
HETATM   12  C2  UNL     1      27.917   5.400  48.515  1.00  0.00    -0.004 C 
HETATM   13  C3  UNL     1      28.817   6.032  48.013  1.00  0.00    -0.077 C 
BRANCH  13  14
HETATM   14  C4  UNL     1      29.913   6.816  47.421  1.00  0.00     0.212 C 
BRANCH  14  15
HETATM   15  N1  UNL     1      29.637   8.186  47.702  1.00  0.00    -0.401 N 
HETATM   16  C5  UNL     1      29.733   8.566  49.063  1.00  0.00     0.128 C 
HETATM   17  C6  UNL     1      30.671   9.737  49.304  1.00  0.00     0.093 C 
HETATM   18  S1  UNL     1      29.862  11.154  48.475  1.00  0.00    -0.166 SA
HETATM   19  C7  UNL     1      29.315  10.444  46.888  1.00  0.00     0.093 C 
HETATM   20  C8  UNL     1      30.050   9.136  46.741  1.00  0.00     0.128 C 
ENDBRANCH  14  15
ENDBRANCH  13  14
ENDBRANCH   9  12
ENDBRANCH   1   8
BRANCH   5  21
HETATM   21  C13 UNL     1      20.375   1.588  50.884  1.00  0.00     0.118 C 
HETATM   22  C14 UNL     1      20.462   0.364  51.355  1.00  0.00     0.030 C 
BRANCH  22  23
HETATM   23  C15 UNL     1      21.201  -0.102  52.496  1.00  0.00    -0.034 A 
HETATM   24  C16 UNL     1      20.696  -0.573  53.681  1.00  0.00     0.011 A 
HETATM   25  C17 UNL     1      21.427  -1.010  54.752  1.00  0.00     0.002 A 
HETATM   26  C18 UNL     1      22.789  -0.989  54.663  1.00  0.00     0.019 A 
HETATM   27  C19 UNL     1      23.377  -0.536  53.519  1.00  0.00     0.011 A 
HETATM   28 BR1  UNL     1      25.270  -0.500  53.386  1.00  0.00    -0.051 Br
HETATM   29  C20 UNL     1      22.602  -0.107  52.470  1.00  0.00     0.030 A 
ENDBRANCH  22  23
ENDBRANCH   5  21
TORSDOF 6
ENDMDL
MODEL 4
REMARK VINA RESULT:      -7.6      5.997      8.674
REMARK  6 active torsions:
REMARK  status: ('A' for Active; 'I' for Inactive)
REMARK    1  A    between atoms: C1_2  and  C2_3 
REMARK       I    between atoms: C1_2  and  N2_12 
REMARK    2  A    between atoms: C3_4  and  C4_5 
REMARK    3  A    between atoms: C4_5  and  N1_6 
REMARK    4  A    between atoms: N2_12  and  C9_13 
REMARK    5  A    between atoms: N3_17  and  C13_18 
REMARK    6  A    between atoms: C14_19  and  C15_20 
ROOT
HETATM    1  C9  UNL     1      19.553   0.813  51.949  1.00  0.00     0.032 A 
HETATM    2  C10 UNL     1      19.143   2.019  51.620  1.00  0.00     0.009 A 
HETATM    3  C11 UNL     1      17.828   2.619  51.350  1.00  0.00     0.088 A 
HETATM    4  C12 UNL     1      16.808   1.550  51.501  1.00  0.00     0.037 A 
HETATM    5  N3  UNL     1      15.603   1.876  51.298  1.00  0.00    -0.265 NA
HETATM    6  C21 UNL     1      17.220   0.206  51.864  1.00  0.00     0.029 A 
HETATM    7  C22 UNL     1      18.476  -0.146  52.072  1.00  0.00     0.031 A 
ENDROOT
BRANCH   1   8
HETATM    8  N2  UNL     1      20.883   0.394  52.177  1.00  0.00    -0.317 N 
HETATM    9  C1  UNL     1      21.597   0.244  53.380  1.00  0.00     0.301 C 
HETATM   10  O1  UNL     1      21.027   0.505  54.464  1.00  0.00    -0.258 OA
HETATM   11  H11 UNL     1      21.468   0.145  51.352  1.00  0.00     0.170 HD
BRANCH   9  12
HETATM   12  C2  UNL     1      22.960  -0.195  53.469  1.00  0.00    -0.004 C 
HETATM   13  C3  UNL     1      24.113  -0.553  53.540  1.00  0.00    -0.077 C 
BRANCH  13  14
HETATM   14  C4  UNL     1      25.516  -0.982  53.651  1.00  0.00     0.212 C 
BRANCH  14  15
HETATM   15  N1  UNL     1      26.309   0.203  53.672  1.00  0.00    -0.401 N 
HETATM   16  C5  UNL     1      27.178   0.340  54.782  1.00  0.00     0.128 C 
HETATM   17  C6  UNL     1      28.630   0.569  54.393  1.00  0.00     0.093 C 
HETATM   18  S1  UNL     1      28.637   2.210  53.583  1.00  0.00    -0.166 SA
HETATM   19  C7  UNL     1      27.168   2.143  52.506  1.00  0.00     0.093 C 
HETATM   20  C8  UNL     1      26.773   0.690  52.430  1.00  0.00     0.128 C 
ENDBRANCH  14  15
ENDBRANCH  13  14
ENDBRANCH   9  12
ENDBRANCH   1   8
BRANCH   5  21
HETATM   21  C13 UNL     1      15.206   3.189  50.942  1.00  0.00     0.118 C 
HETATM   22  C14 UNL     1      14.294   3.930  51.531  1.00  0.00     0.030 C 
BRANCH  22  23
HETATM   23  C15 UNL     1      13.478   3.604  52.669  1.00  0.00    -0.034 A 
HETATM   24  C16 UNL     1      12.844   4.474  53.518  1.00  0.00     0.011 A 
HETATM   25  C17 UNL     1      12.073   4.132  54.594  1.00  0.00     0.002 A 
HETATM   26  C18 UNL     1      11.897   2.808  54.875  1.00  0.00     0.019 A 
HETATM   27  C19 UNL     1      12.492   1.871  54.082  1.00  0.00     0.011 A 
HETATM   28 BR1  UNL     1      12.257   0.028  54.465  1.00  0.00    -0.051 Br
HETATM   29  C20 UNL     1      13.259   2.263  53.011  1.00  0.00     0.030 A 
ENDBRANCH  22  23
ENDBRANCH   5  21
TORSDOF 6
ENDMDL
MODEL 5
REMARK VINA RESULT:      -7.5      1.767      2.296
REMARK  6 active torsions:
REMARK  status: ('A' for Active; 'I' for Inactive)
REMARK    1  A    between atoms: C1_2  and  C2_3 
REMARK       I    between atoms: C1_2  and  N2_12 
REMARK    2  A    between atoms: C3_4  and  C4_5 
REMARK    3  A    between atoms: C4_5  and  N1_6 
REMARK    4  A    between atoms: N2_12  and  C9_13 
REMARK    5  A    between atoms: N3_17  and  C13_18 
REMARK    6  A    between atoms: C14_19  and  C15_20 
ROOT
HETATM    1  C9  UNL     1      25.571   5.315  49.933  1.00  0.00     0.032 A 
HETATM    2  C10 UNL     1      24.524   5.606  50.675  1.00  0.00     0.009 A 
HETATM    3  C11 UNL     1      23.296   4.887  51.045  1.00  0.00     0.088 A 
HETATM    4  C12 UNL     1      23.338   3.558  50.385  1.00  0.00     0.037 A 
HETATM    5  N3  UNL     1      22.353   2.790  50.582  1.00  0.00    -0.265 NA
HETATM    6  C21 UNL     1      24.477   3.197  49.559  1.00  0.00     0.029 A 
HETATM    7  C22 UNL     1      25.508   3.994  49.343  1.00  0.00     0.031 A 
ENDROOT
BRANCH   1   8
HETATM    8  N2  UNL     1      26.691   6.136  49.673  1.00  0.00    -0.317 N 
HETATM    9  C1  UNL     1      26.941   7.026  48.612  1.00  0.00     0.301 C 
HETATM   10  O1  UNL     1      26.077   7.165  47.716  1.00  0.00    -0.258 OA
HETATM   11  H11 UNL     1      27.484   6.113  50.347  1.00  0.00     0.170 HD
BRANCH   9  12
HETATM   12  C2  UNL     1      28.135   7.807  48.468  1.00  0.00    -0.004 C 
HETATM   13  C3  UNL     1      29.148   8.455  48.339  1.00  0.00    -0.077 C 
BRANCH  13  14
HETATM   14  C4  UNL     1      30.370   9.257  48.162  1.00  0.00     0.212 C 
BRANCH  14  15
HETATM   15  N1  UNL     1      31.471   8.356  48.258  1.00  0.00    -0.401 N 
HETATM   16  C5  UNL     1      31.750   7.866  49.557  1.00  0.00     0.128 C 
HETATM   17  C6  UNL     1      31.786   6.348  49.640  1.00  0.00     0.093 C 
HETATM   18  S1  UNL     1      33.234   5.865  48.631  1.00  0.00    -0.166 SA
HETATM   19  C7  UNL     1      33.075   6.919  47.153  1.00  0.00     0.093 C 
HETATM   20  C8  UNL     1      31.671   7.466  47.180  1.00  0.00     0.128 C 
ENDBRANCH  14  15
ENDBRANCH  13  14
ENDBRANCH   9  12
ENDBRANCH   1   8
BRANCH   5  21
HETATM   21  C13 UNL     1      21.243   3.146  51.388  1.00  0.00     0.118 C 
HETATM   22  C14 UNL     1      20.809   2.525  52.462  1.00  0.00     0.030 C 
BRANCH  22  23
HETATM   23  C15 UNL     1      21.339   1.342  53.083  1.00  0.00    -0.034 A 
HETATM   24  C16 UNL     1      20.656   0.410  53.822  1.00  0.00     0.011 A 
HETATM   25  C17 UNL     1      21.190  -0.708  54.401  1.00  0.00     0.002 A 
HETATM   26  C18 UNL     1      22.525  -0.947  54.248  1.00  0.00     0.019 A 
HETATM   27  C19 UNL     1      23.283  -0.071  53.528  1.00  0.00     0.011 A 
HETATM   28 BR1  UNL     1      25.140  -0.393  53.309  1.00  0.00    -0.051 Br
HETATM   29  C20 UNL     1      22.702   1.039  52.963  1.00  0.00     0.030 A 
ENDBRANCH  22  23
ENDBRANCH   5  21
TORSDOF 6
ENDMDL
MODEL 6
REMARK VINA RESULT:      -7.4      3.214      4.114
REMARK  6 active torsions:
REMARK  status: ('A' for Active; 'I' for Inactive)
REMARK    1  A    between atoms: C1_2  and  C2_3 
REMARK       I    between atoms: C1_2  and  N2_12 
REMARK    2  A    between atoms: C3_4  and  C4_5 
REMARK    3  A    between atoms: C4_5  and  N1_6 
REMARK    4  A    between atoms: N2_12  and  C9_13 
REMARK    5  A    between atoms: N3_17  and  C13_18 
REMARK    6  A    between atoms: C14_19  and  C15_20 
ROOT
HETATM    1  C9  UNL     1      26.337   4.843  49.470  1.00  0.00     0.032 A 
HETATM    2  C10 UNL     1      26.859   3.685  49.815  1.00  0.00     0.009 A 
HETATM    3  C11 UNL     1      26.424   2.580  50.682  1.00  0.00     0.088 A 
HETATM    4  C12 UNL     1      25.101   2.948  51.247  1.00  0.00     0.037 A 
HETATM    5  N3  UNL     1      24.562   2.115  52.031  1.00  0.00    -0.265 NA
HETATM    6  C21 UNL     1      24.490   4.216  50.890  1.00  0.00     0.029 A 
HETATM    7  C22 UNL     1      25.047   5.095  50.076  1.00  0.00     0.031 A 
ENDROOT
BRANCH   1   8
HETATM    8  N2  UNL     1      26.899   5.812  48.608  1.00  0.00    -0.317 N 
HETATM    9  C1  UNL     1      28.230   6.002  48.195  1.00  0.00     0.301 C 
HETATM   10  O1  UNL     1      29.116   5.225  48.619  1.00  0.00    -0.258 OA
HETATM   11  H11 UNL     1      26.263   6.521  48.186  1.00  0.00     0.170 HD
BRANCH   9  12
HETATM   12  C2  UNL     1      28.668   7.039  47.306  1.00  0.00    -0.004 C 
HETATM   13  C3  UNL     1      29.036   7.904  46.546  1.00  0.00    -0.077 C 
BRANCH  13  14
HETATM   14  C4  UNL     1      29.460   8.967  45.621  1.00  0.00     0.212 C 
BRANCH  14  15
HETATM   15  N1  UNL     1      29.570  10.163  46.389  1.00  0.00    -0.401 N 
HETATM   16  C5  UNL     1      28.348  10.722  46.833  1.00  0.00     0.128 C 
HETATM   17  C6  UNL     1      28.289  10.944  48.336  1.00  0.00     0.093 C 
HETATM   18  S1  UNL     1      29.545  12.236  48.660  1.00  0.00    -0.166 SA
HETATM   19  C7  UNL     1      30.959  11.698  47.644  1.00  0.00     0.093 C 
HETATM   20  C8  UNL     1      30.677  10.268  47.260  1.00  0.00     0.128 C 
ENDBRANCH  14  15
ENDBRANCH  13  14
ENDBRANCH   9  12
ENDBRANCH   1   8
BRANCH   5  21
HETATM   21  C13 UNL     1      25.163   0.878  52.378  1.00  0.00     0.118 C 
HETATM   22  C14 UNL     1      24.573  -0.171  52.906  1.00  0.00     0.030 C 
BRANCH  22  23
HETATM   23  C15 UNL     1      23.190  -0.330  53.263  1.00  0.00    -0.034 A 
HETATM   24  C16 UNL     1      22.683  -0.835  54.434  1.00  0.00     0.011 A 
HETATM   25  C17 UNL     1      21.359  -0.974  54.745  1.00  0.00     0.002 A 
HETATM   26  C18 UNL     1      20.428  -0.581  53.827  1.00  0.00     0.019 A 
HETATM   27  C19 UNL     1      20.843  -0.066  52.634  1.00  0.00     0.011 A 
HETATM   28 BR1  UNL     1      19.559   0.482  51.349  1.00  0.00    -0.051 Br
HETATM   29  C20 UNL     1      22.185   0.055  52.365  1.00  0.00     0.030 A 
ENDBRANCH  22  23
ENDBRANCH   5  21
TORSDOF 6
ENDMDL
MODEL 7
REMARK VINA RESULT:      -7.3      2.263      3.207
REMARK  6 active torsions:
REMARK  status: ('A' for Active; 'I' for Inactive)
REMARK    1  A    between atoms: C1_2  and  C2_3 
REMARK       I    between atoms: C1_2  and  N2_12 
REMARK    2  A    between atoms: C3_4  and  C4_5 
REMARK    3  A    between atoms: C4_5  and  N1_6 
REMARK    4  A    between atoms: N2_12  and  C9_13 
REMARK    5  A    between atoms: N3_17  and  C13_18 
REMARK    6  A    between atoms: C14_19  and  C15_20 
ROOT
HETATM    1  C9  UNL     1      25.160   4.333  50.744  1.00  0.00     0.032 A 
HETATM    2  C10 UNL     1      25.180   3.021  50.847  1.00  0.00     0.009 A 
HETATM    3  C11 UNL     1      24.355   2.034  51.560  1.00  0.00     0.088 A 
HETATM    4  C12 UNL     1      23.305   2.779  52.300  1.00  0.00     0.037 A 
HETATM    5  N3  UNL     1      22.494   2.094  52.987  1.00  0.00    -0.265 NA
HETATM    6  C21 UNL     1      23.248   4.227  52.212  1.00  0.00     0.029 A 
HETATM    7  C22 UNL     1      24.094   4.953  51.502  1.00  0.00     0.031 A 
ENDROOT
BRANCH   1   8
HETATM    8  N2  UNL     1      26.045   5.146  50.001  1.00  0.00    -0.317 N 
HETATM    9  C1  UNL     1      27.089   4.794  49.127  1.00  0.00     0.301 C 
HETATM   10  O1  UNL     1      27.333   3.582  48.925  1.00  0.00    -0.258 OA
HETATM   11  H11 UNL     1      25.947   6.180  50.081  1.00  0.00     0.170 HD
BRANCH   9  12
HETATM   12  C2  UNL     1      27.920   5.732  48.429  1.00  0.00    -0.004 C 
HETATM   13  C3  UNL     1      28.627   6.513  47.835  1.00  0.00    -0.077 C 
BRANCH  13  14
HETATM   14  C4  UNL     1      29.468   7.467  47.094  1.00  0.00     0.212 C 
BRANCH  14  15
HETATM   15  N1  UNL     1      30.813   7.238  47.508  1.00  0.00    -0.401 N 
HETATM   16  C5  UNL     1      31.062   7.386  48.894  1.00  0.00     0.128 C 
HETATM   17  C6  UNL     1      31.710   6.166  49.530  1.00  0.00     0.093 C 
HETATM   18  S1  UNL     1      33.368   6.072  48.760  1.00  0.00    -0.166 SA
HETATM   19  C7  UNL     1      33.021   6.387  46.999  1.00  0.00     0.093 C 
HETATM   20  C8  UNL     1      31.532   6.228  46.832  1.00  0.00     0.128 C 
ENDBRANCH  14  15
ENDBRANCH  13  14
ENDBRANCH   9  12
ENDBRANCH   1   8
BRANCH   5  21
HETATM   21  C13 UNL     1      22.553   0.680  53.071  1.00  0.00     0.118 C 
HETATM   22  C14 UNL     1      21.686  -0.182  52.588  1.00  0.00     0.030 C 
BRANCH  22  23
HETATM   23  C15 UNL     1      20.474   0.085  51.864  1.00  0.00    -0.034 A 
HETATM   24  C16 UNL     1      20.346   0.732  50.662  1.00  0.00     0.011 A 
HETATM   25  C17 UNL     1      19.175   0.971  49.996  1.00  0.00     0.002 A 
HETATM   26  C18 UNL     1      18.008   0.536  50.552  1.00  0.00     0.019 A 
HETATM   27  C19 UNL     1      18.041  -0.119  51.749  1.00  0.00     0.011 A 
HETATM   28 BR1  UNL     1      16.424  -0.727  52.533  1.00  0.00    -0.051 Br
HETATM   29  C20 UNL     1      19.241  -0.336  52.381  1.00  0.00     0.030 A 
ENDBRANCH  22  23
ENDBRANCH   5  21
TORSDOF 6
ENDMDL
MODEL 8
REMARK VINA RESULT:      -7.2      6.225      8.524
REMARK  6 active torsions:
REMARK  status: ('A' for Active; 'I' for Inactive)
REMARK    1  A    between atoms: C1_2  and  C2_3 
REMARK       I    between atoms: C1_2  and  N2_12 
REMARK    2  A    between atoms: C3_4  and  C4_5 
REMARK    3  A    between atoms: C4_5  and  N1_6 
REMARK    4  A    between atoms: N2_12  and  C9_13 
REMARK    5  A    between atoms: N3_17  and  C13_18 
REMARK    6  A    between atoms: C14_19  and  C15_20 
ROOT
HETATM    1  C9  UNL     1      19.266  -0.083  51.930  1.00  0.00     0.032 A 
HETATM    2  C10 UNL     1      18.259   0.070  51.098  1.00  0.00     0.009 A 
HETATM    3  C11 UNL     1      16.841  -0.320  51.118  1.00  0.00     0.088 A 
HETATM    4  C12 UNL     1      16.594  -1.045  52.391  1.00  0.00     0.037 A 
HETATM    5  N3  UNL     1      15.420  -1.470  52.588  1.00  0.00    -0.265 NA
HETATM    6  C21 UNL     1      17.680  -1.233  53.337  1.00  0.00     0.029 A 
HETATM    7  C22 UNL     1      18.911  -0.798  53.138  1.00  0.00     0.031 A 
ENDROOT
BRANCH   1   8
HETATM    8  N2  UNL     1      20.596   0.363  51.756  1.00  0.00    -0.317 N 
HETATM    9  C1  UNL     1      21.217   1.558  52.163  1.00  0.00     0.301 C 
HETATM   10  O1  UNL     1      20.546   2.412  52.786  1.00  0.00    -0.258 OA
HETATM   11  H11 UNL     1      21.260  -0.259  51.250  1.00  0.00     0.170 HD
BRANCH   9  12
HETATM   12  C2  UNL     1      22.591   1.888  51.916  1.00  0.00    -0.004 C 
HETATM   13  C3  UNL     1      23.753   2.153  51.713  1.00  0.00    -0.077 C 
BRANCH  13  14
HETATM   14  C4  UNL     1      25.165   2.470  51.442  1.00  0.00     0.212 C 
BRANCH  14  15
HETATM   15  N1  UNL     1      25.942   1.720  52.371  1.00  0.00    -0.401 N 
HETATM   16  C5  UNL     1      25.611   0.347  52.482  1.00  0.00     0.128 C 
HETATM   17  C6  UNL     1      26.793  -0.584  52.263  1.00  0.00     0.093 C 
HETATM   18  S1  UNL     1      27.909  -0.252  53.675  1.00  0.00    -0.166 SA
HETATM   19  C7  UNL     1      27.900   1.567  53.787  1.00  0.00     0.093 C 
HETATM   20  C8  UNL     1      27.307   2.061  52.493  1.00  0.00     0.128 C 
ENDBRANCH  14  15
ENDBRANCH  13  14
ENDBRANCH   9  12
ENDBRANCH   1   8
BRANCH   5  21
HETATM   21  C13 UNL     1      14.363  -1.284  51.662  1.00  0.00     0.118 C 
HETATM   22  C14 UNL     1      13.214  -0.684  51.877  1.00  0.00     0.030 C 
BRANCH  22  23
HETATM   23  C15 UNL     1      12.741  -0.073  53.089  1.00  0.00    -0.034 A 
HETATM   24  C16 UNL     1      12.324  -0.704  54.233  1.00  0.00     0.011 A 
HETATM   25  C17 UNL     1      11.878  -0.094  55.373  1.00  0.00     0.002 A 
HETATM   26  C18 UNL     1      11.833   1.270  55.408  1.00  0.00     0.019 A 
HETATM   27  C19 UNL     1      12.230   1.980  54.313  1.00  0.00     0.011 A 
HETATM   28 BR1  UNL     1      12.171   3.876  54.349  1.00  0.00    -0.051 Br
HETATM   29  C20 UNL     1      12.671   1.323  53.189  1.00  0.00     0.030 A 
ENDBRANCH  22  23
ENDBRANCH   5  21
TORSDOF 6
ENDMDL
MODEL 9
REMARK VINA RESULT:      -7.0      2.094      2.586
REMARK  6 active torsions:
REMARK  status: ('A' for Active; 'I' for Inactive)
REMARK    1  A    between atoms: C1_2  and  C2_3 
REMARK       I    between atoms: C1_2  and  N2_12 
REMARK    2  A    between atoms: C3_4  and  C4_5 
REMARK    3  A    between atoms: C4_5  and  N1_6 
REMARK    4  A    between atoms: N2_12  and  C9_13 
REMARK    5  A    between atoms: N3_17  and  C13_18 
REMARK    6  A    between atoms: C14_19  and  C15_20 
ROOT
HETATM    1  C9  UNL     1      25.279   4.711  49.907  1.00  0.00     0.032 A 
HETATM    2  C10 UNL     1      24.324   5.144  50.702  1.00  0.00     0.009 A 
HETATM    3  C11 UNL     1      23.060   4.575  51.193  1.00  0.00     0.088 A 
HETATM    4  C12 UNL     1      22.920   3.219  50.603  1.00  0.00     0.037 A 
HETATM    5  N3  UNL     1      21.880   2.568  50.907  1.00  0.00    -0.265 NA
HETATM    6  C21 UNL     1      23.953   2.705  49.722  1.00  0.00     0.029 A 
HETATM    7  C22 UNL     1      25.041   3.379  49.394  1.00  0.00     0.031 A 
ENDROOT
BRANCH   1   8
HETATM    8  N2  UNL     1      26.454   5.399  49.528  1.00  0.00    -0.317 N 
HETATM    9  C1  UNL     1      26.623   6.529  48.707  1.00  0.00     0.301 C 
HETATM   10  O1  UNL     1      25.616   7.067  48.194  1.00  0.00    -0.258 OA
HETATM   11  H11 UNL     1      27.366   5.050  49.890  1.00  0.00     0.170 HD
BRANCH   9  12
HETATM   12  C2  UNL     1      27.889   7.131  48.400  1.00  0.00    -0.004 C 
HETATM   13  C3  UNL     1      28.961   7.632  48.151  1.00  0.00    -0.077 C 
BRANCH  13  14
HETATM   14  C4  UNL     1      30.269   8.224  47.829  1.00  0.00     0.212 C 
BRANCH  14  15
HETATM   15  N1  UNL     1      31.177   7.141  47.641  1.00  0.00    -0.401 N 
HETATM   16  C5  UNL     1      32.135   7.316  46.613  1.00  0.00     0.128 C 
HETATM   17  C6  UNL     1      33.570   7.131  47.081  1.00  0.00     0.093 C 
HETATM   18  S1  UNL     1      33.683   5.362  47.536  1.00  0.00    -0.166 SA
HETATM   19  C7  UNL     1      32.139   5.077  48.462  1.00  0.00     0.093 C 
HETATM   20  C8  UNL     1      31.595   6.443  48.795  1.00  0.00     0.128 C 
ENDBRANCH  14  15
ENDBRANCH  13  14
ENDBRANCH   9  12
ENDBRANCH   1   8
BRANCH   5  21
HETATM   21  C13 UNL     1      20.873   3.075  51.767  1.00  0.00     0.118 C 
HETATM   22  C14 UNL     1      20.285   2.445  52.759  1.00  0.00     0.030 C 
BRANCH  22  23
HETATM   23  C15 UNL     1      20.507   1.101  53.218  1.00  0.00    -0.034 A 
HETATM   24  C16 UNL     1      21.676   0.564  53.694  1.00  0.00     0.011 A 
HETATM   25  C17 UNL     1      21.857  -0.721  54.124  1.00  0.00     0.002 A 
HETATM   26  C18 UNL     1      20.792  -1.575  54.091  1.00  0.00     0.019 A 
HETATM   27  C19 UNL     1      19.589  -1.126  53.632  1.00  0.00     0.011 A 
HETATM   28 BR1  UNL     1      18.103  -2.305  53.580  1.00  0.00    -0.051 Br
HETATM   29  C20 UNL     1      19.455   0.175  53.210  1.00  0.00     0.030 A 
ENDBRANCH  22  23
ENDBRANCH   5  21
TORSDOF 6
ENDMDL
