MODEL 1
REMARK VINA RESULT:      -8.6      0.000      0.000
REMARK  7 active torsions:
REMARK  status: ('A' for Active; 'I' for Inactive)
REMARK    1  A    between atoms: O1_2  and  C2_3 
REMARK    2  A    between atoms: C7_9  and  N2_10 
REMARK    3  A    between atoms: C15_20  and  N3_21 
REMARK    4  A    between atoms: N3_21  and  C16_22 
REMARK    5  A    between atoms: C16_22  and  C17_23 
REMARK    6  A    between atoms: C18_24  and  C19_25 
REMARK    7  A    between atoms: C19_25  and  N4_26 
ROOT
HETATM    1  C2  UNL     1      26.653   6.274  48.777  1.00  0.00     0.096 A 
HETATM    2  C3  UNL     1      27.226   7.411  48.191  1.00  0.00     0.071 A 
HETATM    3  C4  UNL     1      28.517   7.356  47.743  1.00  0.00     0.071 A 
HETATM    4  N1  UNL     1      29.045   8.455  47.191  1.00  0.00    -0.260 NA
HETATM    5  C5  UNL     1      30.318   8.452  46.737  1.00  0.00     0.119 A 
HETATM    6  C6  UNL     1      31.131   7.340  46.811  1.00  0.00     0.049 A 
HETATM    7  C7  UNL     1      30.631   6.161  47.378  1.00  0.00     0.047 A 
HETATM    8  C13 UNL     1      29.331   6.257  47.812  1.00  0.00     0.022 A 
HETATM    9  C14 UNL     1      28.790   5.140  48.380  1.00  0.00     0.048 A 
HETATM   10  C15 UNL     1      27.505   5.167  48.836  1.00  0.00     0.063 A 
ENDROOT
BRANCH  10  11
HETATM   11  N3  UNL     1      26.739   4.103  49.491  1.00  0.00    -0.384 N 
HETATM   12  H15 UNL     1      27.106   4.260  50.485  1.00  0.00     0.160 HD
BRANCH  11  13
HETATM   13  C16 UNL     1      26.026   3.109  50.102  1.00  0.00     0.147 C 
BRANCH  13  14
HETATM   14  C17 UNL     1      26.575   2.556  51.396  1.00  0.00    -0.010 C 
HETATM   15  C18 UNL     1      26.826   1.427  52.033  1.00  0.00    -0.010 C 
BRANCH  15  16
HETATM   16  C19 UNL     1      26.801  -0.029  52.047  1.00  0.00     0.144 C 
BRANCH  16  17
HETATM   17  N4  UNL     1      27.227  -0.676  53.234  1.00  0.00    -0.405 N 
HETATM   18  C20 UNL     1      28.290  -1.602  53.140  1.00  0.00     0.143 C 
HETATM   19  C21 UNL     1      29.629  -0.992  53.306  1.00  0.00     0.187 C 
HETATM   20  O2  UNL     1      29.574   0.187  53.985  1.00  0.00    -0.388 OA
HETATM   21  C22 UNL     1      28.629   0.313  54.967  1.00  0.00     0.187 C 
HETATM   22  C23 UNL     1      27.223   0.118  54.432  1.00  0.00     0.143 C 
ENDBRANCH  16  17
ENDBRANCH  15  16
ENDBRANCH  13  14
ENDBRANCH  11  13
ENDBRANCH  10  11
BRANCH   1  23
HETATM   23  O1  UNL     1      25.344   6.349  49.224  1.00  0.00    -0.354 OA
HETATM   24  C1  UNL     1      25.050   7.242  50.281  1.00  0.00     0.210 C 
ENDBRANCH   1  23
BRANCH   7  25
HETATM   25  N2  UNL     1      31.467   5.011  47.437  1.00  0.00    -0.338 N 
HETATM   26  C8  UNL     1      31.455   3.772  46.733  1.00  0.00     0.155 C 
HETATM   27  C9  UNL     1      32.797   3.335  46.245  1.00  0.00     0.007 C 
HETATM   28  C10 UNL     1      34.052   3.807  46.356  1.00  0.00    -0.024 C 
HETATM   29  C11 UNL     1      35.380   3.394  45.887  1.00  0.00     0.056 C 
HETATM   30  S1  UNL     1      34.055   5.326  47.353  1.00  0.00    -0.077 SA
HETATM   31  C12 UNL     1      32.561   5.104  48.403  1.00  0.00     0.340 C 
HETATM   32  F1  UNL     1      32.435   6.163  49.237  1.00  0.00    -0.214 F 
ENDBRANCH   7  25
TORSDOF 7
ENDMDL
MODEL 2
REMARK VINA RESULT:      -8.6      5.730      9.730
REMARK  7 active torsions:
REMARK  status: ('A' for Active; 'I' for Inactive)
REMARK    1  A    between atoms: O1_2  and  C2_3 
REMARK    2  A    between atoms: C7_9  and  N2_10 
REMARK    3  A    between atoms: C15_20  and  N3_21 
REMARK    4  A    between atoms: N3_21  and  C16_22 
REMARK    5  A    between atoms: C16_22  and  C17_23 
REMARK    6  A    between atoms: C18_24  and  C19_25 
REMARK    7  A    between atoms: C19_25  and  N4_26 
ROOT
HETATM    1  C2  UNL     1      20.221  -0.303  52.425  1.00  0.00     0.096 A 
HETATM    2  C3  UNL     1      20.549  -0.976  53.611  1.00  0.00     0.071 A 
HETATM    3  C4  UNL     1      21.834  -0.926  54.076  1.00  0.00     0.071 A 
HETATM    4  N1  UNL     1      22.125  -1.580  55.207  1.00  0.00    -0.260 NA
HETATM    5  C5  UNL     1      23.382  -1.565  55.706  1.00  0.00     0.119 A 
HETATM    6  C6  UNL     1      24.416  -0.888  55.093  1.00  0.00     0.049 A 
HETATM    7  C7  UNL     1      24.169  -0.185  53.907  1.00  0.00     0.047 A 
HETATM    8  C13 UNL     1      22.866  -0.257  53.476  1.00  0.00     0.022 A 
HETATM    9  C14 UNL     1      22.567   0.404  52.320  1.00  0.00     0.048 A 
HETATM   10  C15 UNL     1      21.293   0.371  51.832  1.00  0.00     0.063 A 
ENDROOT
BRANCH  10  11
HETATM   11  N3  UNL     1      20.759   0.984  50.613  1.00  0.00    -0.384 N 
HETATM   12  H15 UNL     1      20.998   2.000  50.853  1.00  0.00     0.160 HD
BRANCH  11  13
HETATM   13  C16 UNL     1      20.260   1.557  49.475  1.00  0.00     0.147 C 
BRANCH  13  14
HETATM   14  C17 UNL     1      21.241   1.874  48.371  1.00  0.00    -0.010 C 
HETATM   15  C18 UNL     1      22.245   2.672  48.056  1.00  0.00    -0.010 C 
BRANCH  15  16
HETATM   16  C19 UNL     1      23.138   3.759  48.430  1.00  0.00     0.144 C 
BRANCH  16  17
HETATM   17  N4  UNL     1      23.895   3.601  49.618  1.00  0.00    -0.405 N 
HETATM   18  C20 UNL     1      25.248   4.008  49.602  1.00  0.00     0.143 C 
HETATM   19  C21 UNL     1      25.448   5.427  49.977  1.00  0.00     0.187 C 
HETATM   20  O2  UNL     1      24.414   5.911  50.717  1.00  0.00    -0.388 OA
HETATM   21  C22 UNL     1      23.786   5.051  51.576  1.00  0.00     0.187 C 
HETATM   22  C23 UNL     1      23.205   3.850  50.854  1.00  0.00     0.143 C 
ENDBRANCH  16  17
ENDBRANCH  15  16
ENDBRANCH  13  14
ENDBRANCH  11  13
ENDBRANCH  10  11
BRANCH   1  23
HETATM   23  O1  UNL     1      18.915  -0.364  51.970  1.00  0.00    -0.354 OA
HETATM   24  C1  UNL     1      17.949  -0.990  52.794  1.00  0.00     0.210 C 
ENDBRANCH   1  23
BRANCH   7  25
HETATM   25  N2  UNL     1      25.235   0.526  53.288  1.00  0.00    -0.338 N 
HETATM   26  C8  UNL     1      25.526   1.916  53.167  1.00  0.00     0.155 C 
HETATM   27  C9  UNL     1      26.951   2.267  53.445  1.00  0.00     0.007 C 
HETATM   28  C10 UNL     1      28.065   1.570  53.734  1.00  0.00    -0.024 C 
HETATM   29  C11 UNL     1      29.470   1.893  54.010  1.00  0.00     0.056 C 
HETATM   30  S1  UNL     1      27.691  -0.207  53.771  1.00  0.00    -0.077 SA
HETATM   31  C12 UNL     1      26.239  -0.322  52.647  1.00  0.00     0.340 C 
HETATM   32  F1  UNL     1      25.848  -1.614  52.547  1.00  0.00    -0.214 F 
ENDBRANCH   7  25
TORSDOF 7
ENDMDL
MODEL 3
REMARK VINA RESULT:      -8.4      5.533      9.218
REMARK  7 active torsions:
REMARK  status: ('A' for Active; 'I' for Inactive)
REMARK    1  A    between atoms: O1_2  and  C2_3 
REMARK    2  A    between atoms: C7_9  and  N2_10 
REMARK    3  A    between atoms: C15_20  and  N3_21 
REMARK    4  A    between atoms: N3_21  and  C16_22 
REMARK    5  A    between atoms: C16_22  and  C17_23 
REMARK    6  A    between atoms: C18_24  and  C19_25 
REMARK    7  A    between atoms: C19_25  and  N4_26 
ROOT
HETATM    1  C2  UNL     1      25.613   0.239  52.673  1.00  0.00     0.096 A 
HETATM    2  C3  UNL     1      26.506   0.949  51.858  1.00  0.00     0.071 A 
HETATM    3  C4  UNL     1      26.077   2.079  51.220  1.00  0.00     0.071 A 
HETATM    4  N1  UNL     1      26.945   2.740  50.444  1.00  0.00    -0.260 NA
HETATM    5  C5  UNL     1      26.568   3.860  49.789  1.00  0.00     0.119 A 
HETATM    6  C6  UNL     1      25.294   4.380  49.879  1.00  0.00     0.049 A 
HETATM    7  C7  UNL     1      24.343   3.732  50.678  1.00  0.00     0.047 A 
HETATM    8  C13 UNL     1      24.815   2.604  51.304  1.00  0.00     0.022 A 
HETATM    9  C14 UNL     1      23.931   1.925  52.092  1.00  0.00     0.048 A 
HETATM   10  C15 UNL     1      24.332   0.794  52.740  1.00  0.00     0.063 A 
ENDROOT
BRANCH  10  11
HETATM   11  N3  UNL     1      23.553  -0.093  53.610  1.00  0.00    -0.384 N 
HETATM   12  H15 UNL     1      24.347  -0.763  53.871  1.00  0.00     0.160 HD
BRANCH  11  13
HETATM   13  C16 UNL     1      22.826  -0.921  54.420  1.00  0.00     0.147 C 
BRANCH  13  14
HETATM   14  C17 UNL     1      21.353  -0.624  54.571  1.00  0.00    -0.010 C 
HETATM   15  C18 UNL     1      20.265  -0.330  53.883  1.00  0.00    -0.010 C 
BRANCH  15  16
HETATM   16  C19 UNL     1      19.635  -0.078  52.594  1.00  0.00     0.144 C 
BRANCH  16  17
HETATM   17  N4  UNL     1      20.134   1.003  51.826  1.00  0.00    -0.405 N 
HETATM   18  C20 UNL     1      19.903   0.990  50.432  1.00  0.00     0.143 C 
HETATM   19  C21 UNL     1      18.632   1.638  50.032  1.00  0.00     0.187 C 
HETATM   20  O2  UNL     1      18.193   2.524  50.968  1.00  0.00    -0.388 OA
HETATM   21  C22 UNL     1      19.134   3.222  51.675  1.00  0.00     0.187 C 
HETATM   22  C23 UNL     1      20.073   2.304  52.435  1.00  0.00     0.143 C 
ENDBRANCH  16  17
ENDBRANCH  15  16
ENDBRANCH  13  14
ENDBRANCH  11  13
ENDBRANCH  10  11
BRANCH   1  23
HETATM   23  O1  UNL     1      26.066  -0.903  53.312  1.00  0.00    -0.354 OA
HETATM   24  C1  UNL     1      26.901  -1.787  52.587  1.00  0.00     0.210 C 
ENDBRANCH   1  23
BRANCH   7  25
HETATM   25  N2  UNL     1      23.034   4.281  50.782  1.00  0.00    -0.338 N 
HETATM   26  C8  UNL     1      22.428   5.156  51.730  1.00  0.00     0.155 C 
HETATM   27  C9  UNL     1      21.619   6.252  51.118  1.00  0.00     0.007 C 
HETATM   28  C10 UNL     1      21.270   6.594  49.863  1.00  0.00    -0.024 C 
HETATM   29  C11 UNL     1      20.480   7.663  49.242  1.00  0.00     0.056 C 
HETATM   30  S1  UNL     1      21.963   5.399  48.683  1.00  0.00    -0.077 SA
HETATM   31  C12 UNL     1      22.120   3.882  49.712  1.00  0.00     0.340 C 
HETATM   32  F1  UNL     1      22.610   2.873  48.955  1.00  0.00    -0.214 F 
ENDBRANCH   7  25
TORSDOF 7
ENDMDL
MODEL 4
REMARK VINA RESULT:      -8.3      5.163     10.605
REMARK  7 active torsions:
REMARK  status: ('A' for Active; 'I' for Inactive)
REMARK    1  A    between atoms: O1_2  and  C2_3 
REMARK    2  A    between atoms: C7_9  and  N2_10 
REMARK    3  A    between atoms: C15_20  and  N3_21 
REMARK    4  A    between atoms: N3_21  and  C16_22 
REMARK    5  A    between atoms: C16_22  and  C17_23 
REMARK    6  A    between atoms: C18_24  and  C19_25 
REMARK    7  A    between atoms: C19_25  and  N4_26 
ROOT
HETATM    1  C2  UNL     1      25.471   0.234  53.160  1.00  0.00     0.096 A 
HETATM    2  C3  UNL     1      24.624  -0.611  53.890  1.00  0.00     0.071 A 
HETATM    3  C4  UNL     1      23.273  -0.408  53.845  1.00  0.00     0.071 A 
HETATM    4  N1  UNL     1      22.483  -1.224  54.554  1.00  0.00    -0.260 NA
HETATM    5  C5  UNL     1      21.141  -1.061  54.545  1.00  0.00     0.119 A 
HETATM    6  C6  UNL     1      20.518  -0.067  53.819  1.00  0.00     0.049 A 
HETATM    7  C7  UNL     1      21.294   0.815  53.058  1.00  0.00     0.047 A 
HETATM    8  C13 UNL     1      22.645   0.575  53.127  1.00  0.00     0.022 A 
HETATM    9  C14 UNL     1      23.453   1.408  52.410  1.00  0.00     0.048 A 
HETATM   10  C15 UNL     1      24.805   1.229  52.438  1.00  0.00     0.063 A 
ENDROOT
BRANCH  10  11
HETATM   11  N3  UNL     1      25.850   2.009  51.768  1.00  0.00    -0.384 N 
HETATM   12  H15 UNL     1      25.206   2.706  51.272  1.00  0.00     0.160 HD
BRANCH  11  13
HETATM   13  C16 UNL     1      26.825   2.736  51.142  1.00  0.00     0.147 C 
BRANCH  13  14
HETATM   14  C17 UNL     1      26.465   3.392  49.830  1.00  0.00    -0.010 C 
HETATM   15  C18 UNL     1      26.849   4.333  48.987  1.00  0.00    -0.010 C 
BRANCH  15  16
HETATM   16  C19 UNL     1      27.793   5.386  48.638  1.00  0.00     0.144 C 
BRANCH  16  17
HETATM   17  N4  UNL     1      27.258   6.608  48.161  1.00  0.00    -0.405 N 
HETATM   18  C20 UNL     1      25.964   6.979  48.591  1.00  0.00     0.143 C 
HETATM   19  C21 UNL     1      25.954   7.768  49.844  1.00  0.00     0.187 C 
HETATM   20  O2  UNL     1      27.144   8.391  50.065  1.00  0.00    -0.388 OA
HETATM   21  C22 UNL     1      27.846   8.831  48.976  1.00  0.00     0.187 C 
HETATM   22  C23 UNL     1      28.182   7.700  48.021  1.00  0.00     0.143 C 
ENDBRANCH  16  17
ENDBRANCH  15  16
ENDBRANCH  13  14
ENDBRANCH  11  13
ENDBRANCH  10  11
BRANCH   1  23
HETATM   23  O1  UNL     1      26.836   0.012  53.217  1.00  0.00    -0.354 OA
HETATM   24  C1  UNL     1      27.490   0.191  54.460  1.00  0.00     0.210 C 
ENDBRANCH   1  23
BRANCH   7  25
HETATM   25  N2  UNL     1      20.646   1.829  52.297  1.00  0.00    -0.338 N 
HETATM   26  C8  UNL     1      20.487   3.231  52.495  1.00  0.00     0.155 C 
HETATM   27  C9  UNL     1      20.742   4.053  51.275  1.00  0.00     0.007 C 
HETATM   28  C10 UNL     1      21.040   3.784  49.990  1.00  0.00    -0.024 C 
HETATM   29  C11 UNL     1      21.293   4.573  48.779  1.00  0.00     0.056 C 
HETATM   30  S1  UNL     1      21.126   1.987  49.738  1.00  0.00    -0.077 SA
HETATM   31  C12 UNL     1      20.019   1.355  51.063  1.00  0.00     0.340 C 
HETATM   32  F1  UNL     1      19.957   0.005  50.992  1.00  0.00    -0.214 F 
ENDBRANCH   7  25
TORSDOF 7
ENDMDL
MODEL 5
REMARK VINA RESULT:      -8.3      4.972     10.111
REMARK  7 active torsions:
REMARK  status: ('A' for Active; 'I' for Inactive)
REMARK    1  A    between atoms: O1_2  and  C2_3 
REMARK    2  A    between atoms: C7_9  and  N2_10 
REMARK    3  A    between atoms: C15_20  and  N3_21 
REMARK    4  A    between atoms: N3_21  and  C16_22 
REMARK    5  A    between atoms: C16_22  and  C17_23 
REMARK    6  A    between atoms: C18_24  and  C19_25 
REMARK    7  A    between atoms: C19_25  and  N4_26 
ROOT
HETATM    1  C2  UNL     1      26.135   2.090  52.104  1.00  0.00     0.096 A 
HETATM    2  C3  UNL     1      25.858   1.007  52.950  1.00  0.00     0.071 A 
HETATM    3  C4  UNL     1      24.560   0.630  53.153  1.00  0.00     0.071 A 
HETATM    4  N1  UNL     1      24.319  -0.404  53.968  1.00  0.00    -0.260 NA
HETATM    5  C5  UNL     1      23.051  -0.812  54.205  1.00  0.00     0.119 A 
HETATM    6  C6  UNL     1      21.955  -0.202  53.631  1.00  0.00     0.049 A 
HETATM    7  C7  UNL     1      22.148   0.884  52.768  1.00  0.00     0.047 A 
HETATM    8  C13 UNL     1      23.466   1.229  52.588  1.00  0.00     0.022 A 
HETATM    9  C14 UNL     1      23.715   2.286  51.762  1.00  0.00     0.048 A 
HETATM   10  C15 UNL     1      25.002   2.684  51.542  1.00  0.00     0.063 A 
ENDROOT
BRANCH  10  11
HETATM   11  N3  UNL     1      25.493   3.792  50.718  1.00  0.00    -0.384 N 
HETATM   12  H15 UNL     1      24.540   4.218  50.476  1.00  0.00     0.160 HD
BRANCH  11  13
HETATM   13  C16 UNL     1      25.951   4.826  49.949  1.00  0.00     0.147 C 
BRANCH  13  14
HETATM   14  C17 UNL     1      27.198   4.582  49.132  1.00  0.00    -0.010 C 
HETATM   15  C18 UNL     1      28.144   5.201  48.449  1.00  0.00    -0.010 C 
BRANCH  15  16
HETATM   16  C19 UNL     1      28.720   6.448  47.965  1.00  0.00     0.144 C 
BRANCH  16  17
HETATM   17  N4  UNL     1      30.085   6.430  47.585  1.00  0.00    -0.405 N 
HETATM   18  C20 UNL     1      30.835   7.616  47.750  1.00  0.00     0.143 C 
HETATM   19  C21 UNL     1      31.479   7.735  49.078  1.00  0.00     0.187 C 
HETATM   20  O2  UNL     1      31.644   6.523  49.677  1.00  0.00    -0.388 OA
HETATM   21  C22 UNL     1      31.906   5.446  48.874  1.00  0.00     0.187 C 
HETATM   22  C23 UNL     1      30.808   5.217  47.853  1.00  0.00     0.143 C 
ENDBRANCH  16  17
ENDBRANCH  15  16
ENDBRANCH  13  14
ENDBRANCH  11  13
ENDBRANCH  10  11
BRANCH   1  23
HETATM   23  O1  UNL     1      27.457   2.456  51.910  1.00  0.00    -0.354 OA
HETATM   24  C1  UNL     1      28.337   2.390  53.016  1.00  0.00     0.210 C 
ENDBRANCH   1  23
BRANCH   7  25
HETATM   25  N2  UNL     1      21.015   1.500  52.165  1.00  0.00    -0.338 N 
HETATM   26  C8  UNL     1      20.187   2.592  52.557  1.00  0.00     0.155 C 
HETATM   27  C9  UNL     1      19.888   3.556  51.457  1.00  0.00     0.007 C 
HETATM   28  C10 UNL     1      20.171   3.622  50.142  1.00  0.00    -0.024 C 
HETATM   29  C11 UNL     1      19.888   4.557  49.048  1.00  0.00     0.056 C 
HETATM   30  S1  UNL     1      21.132   2.162  49.644  1.00  0.00    -0.077 SA
HETATM   31  C12 UNL     1      20.611   0.911  50.888  1.00  0.00     0.340 C 
HETATM   32  F1  UNL     1      21.234  -0.263  50.633  1.00  0.00    -0.214 F 
ENDBRANCH   7  25
TORSDOF 7
ENDMDL
MODEL 6
REMARK VINA RESULT:      -8.1      4.411      9.372
REMARK  7 active torsions:
REMARK  status: ('A' for Active; 'I' for Inactive)
REMARK    1  A    between atoms: O1_2  and  C2_3 
REMARK    2  A    between atoms: C7_9  and  N2_10 
REMARK    3  A    between atoms: C15_20  and  N3_21 
REMARK    4  A    between atoms: N3_21  and  C16_22 
REMARK    5  A    between atoms: C16_22  and  C17_23 
REMARK    6  A    between atoms: C18_24  and  C19_25 
REMARK    7  A    between atoms: C19_25  and  N4_26 
ROOT
HETATM    1  C2  UNL     1      22.564   3.385  51.607  1.00  0.00     0.096 A 
HETATM    2  C3  UNL     1      21.588   2.545  52.160  1.00  0.00     0.071 A 
HETATM    3  C4  UNL     1      21.966   1.354  52.716  1.00  0.00     0.071 A 
HETATM    4  N1  UNL     1      21.016   0.566  53.234  1.00  0.00    -0.260 NA
HETATM    5  C5  UNL     1      21.338  -0.623  53.792  1.00  0.00     0.119 A 
HETATM    6  C6  UNL     1      22.636  -1.084  53.860  1.00  0.00     0.049 A 
HETATM    7  C7  UNL     1      23.671  -0.301  53.335  1.00  0.00     0.047 A 
HETATM    8  C13 UNL     1      23.251   0.888  52.789  1.00  0.00     0.022 A 
HETATM    9  C14 UNL     1      24.215   1.692  52.255  1.00  0.00     0.048 A 
HETATM   10  C15 UNL     1      23.867   2.886  51.693  1.00  0.00     0.063 A 
ENDROOT
BRANCH  10  11
HETATM   11  N3  UNL     1      24.726   3.885  51.051  1.00  0.00    -0.384 N 
HETATM   12  H15 UNL     1      25.282   4.169  51.921  1.00  0.00     0.160 HD
BRANCH  11  13
HETATM   13  C16 UNL     1      25.526   4.818  50.452  1.00  0.00     0.147 C 
BRANCH  13  14
HETATM   14  C17 UNL     1      26.433   4.343  49.341  1.00  0.00    -0.010 C 
HETATM   15  C18 UNL     1      27.518   4.666  48.661  1.00  0.00    -0.010 C 
BRANCH  15  16
HETATM   16  C19 UNL     1      28.608   5.602  48.423  1.00  0.00     0.144 C 
BRANCH  16  17
HETATM   17  N4  UNL     1      28.288   6.825  47.784  1.00  0.00    -0.405 N 
HETATM   18  C20 UNL     1      26.981   7.338  47.949  1.00  0.00     0.143 C 
HETATM   19  C21 UNL     1      26.831   8.220  49.129  1.00  0.00     0.187 C 
HETATM   20  O2  UNL     1      28.019   8.754  49.524  1.00  0.00    -0.388 OA
HETATM   21  C22 UNL     1      28.940   9.045  48.555  1.00  0.00     0.187 C 
HETATM   22  C23 UNL     1      29.325   7.820  47.747  1.00  0.00     0.143 C 
ENDBRANCH  16  17
ENDBRANCH  15  16
ENDBRANCH  13  14
ENDBRANCH  11  13
ENDBRANCH  10  11
BRANCH   1  23
HETATM   23  O1  UNL     1      22.163   4.587  51.049  1.00  0.00    -0.354 OA
HETATM   24  C1  UNL     1      20.786   4.912  51.082  1.00  0.00     0.210 C 
ENDBRANCH   1  23
BRANCH   7  25
HETATM   25  N2  UNL     1      25.011  -0.772  53.423  1.00  0.00    -0.338 N 
HETATM   26  C8  UNL     1      25.945  -1.214  52.441  1.00  0.00     0.155 C 
HETATM   27  C9  UNL     1      27.320  -0.658  52.614  1.00  0.00     0.007 C 
HETATM   28  C10 UNL     1      27.922   0.133  53.521  1.00  0.00    -0.024 C 
HETATM   29  C11 UNL     1      29.267   0.690  53.709  1.00  0.00     0.056 C 
HETATM   30  S1  UNL     1      26.740   0.591  54.822  1.00  0.00    -0.077 SA
HETATM   31  C12 UNL     1      25.553  -0.814  54.781  1.00  0.00     0.340 C 
HETATM   32  F1  UNL     1      24.605  -0.630  55.729  1.00  0.00    -0.214 F 
ENDBRANCH   7  25
TORSDOF 7
ENDMDL
MODEL 7
REMARK VINA RESULT:      -8.0      4.898     10.326
REMARK  7 active torsions:
REMARK  status: ('A' for Active; 'I' for Inactive)
REMARK    1  A    between atoms: O1_2  and  C2_3 
REMARK    2  A    between atoms: C7_9  and  N2_10 
REMARK    3  A    between atoms: C15_20  and  N3_21 
REMARK    4  A    between atoms: N3_21  and  C16_22 
REMARK    5  A    between atoms: C16_22  and  C17_23 
REMARK    6  A    between atoms: C18_24  and  C19_25 
REMARK    7  A    between atoms: C19_25  and  N4_26 
ROOT
HETATM    1  C2  UNL     1      26.152   2.104  52.138  1.00  0.00     0.096 A 
HETATM    2  C3  UNL     1      25.866   1.011  52.969  1.00  0.00     0.071 A 
HETATM    3  C4  UNL     1      24.565   0.637  53.160  1.00  0.00     0.071 A 
HETATM    4  N1  UNL     1      24.316  -0.406  53.961  1.00  0.00    -0.260 NA
HETATM    5  C5  UNL     1      23.046  -0.813  54.185  1.00  0.00     0.119 A 
HETATM    6  C6  UNL     1      21.955  -0.192  53.614  1.00  0.00     0.049 A 
HETATM    7  C7  UNL     1      22.157   0.905  52.766  1.00  0.00     0.047 A 
HETATM    8  C13 UNL     1      23.477   1.246  52.597  1.00  0.00     0.022 A 
HETATM    9  C14 UNL     1      23.734   2.313  51.786  1.00  0.00     0.048 A 
HETATM   10  C15 UNL     1      25.023   2.709  51.578  1.00  0.00     0.063 A 
ENDROOT
BRANCH  10  11
HETATM   11  N3  UNL     1      25.523   3.826  50.771  1.00  0.00    -0.384 N 
HETATM   12  H15 UNL     1      26.567   3.678  50.961  1.00  0.00     0.160 HD
BRANCH  11  13
HETATM   13  C16 UNL     1      25.989   4.870  50.020  1.00  0.00     0.147 C 
BRANCH  13  14
HETATM   14  C17 UNL     1      27.050   4.562  48.989  1.00  0.00    -0.010 C 
HETATM   15  C18 UNL     1      28.148   5.044  48.436  1.00  0.00    -0.010 C 
BRANCH  15  16
HETATM   16  C19 UNL     1      29.134   6.111  48.347  1.00  0.00     0.144 C 
BRANCH  16  17
HETATM   17  N4  UNL     1      28.704   7.353  47.818  1.00  0.00    -0.405 N 
HETATM   18  C20 UNL     1      27.499   7.902  48.310  1.00  0.00     0.143 C 
HETATM   19  C21 UNL     1      27.680   8.771  49.497  1.00  0.00     0.187 C 
HETATM   20  O2  UNL     1      28.946   9.262  49.582  1.00  0.00    -0.388 OA
HETATM   21  C22 UNL     1      29.602   9.541  48.414  1.00  0.00     0.187 C 
HETATM   22  C23 UNL     1      29.730   8.316  47.528  1.00  0.00     0.143 C 
ENDBRANCH  16  17
ENDBRANCH  15  16
ENDBRANCH  13  14
ENDBRANCH  11  13
ENDBRANCH  10  11
BRANCH   1  23
HETATM   23  O1  UNL     1      27.475   2.468  51.956  1.00  0.00    -0.354 OA
HETATM   24  C1  UNL     1      28.357   2.354  53.057  1.00  0.00     0.210 C 
ENDBRANCH   1  23
BRANCH   7  25
HETATM   25  N2  UNL     1      21.029   1.532  52.164  1.00  0.00    -0.338 N 
HETATM   26  C8  UNL     1      20.211   2.631  52.559  1.00  0.00     0.155 C 
HETATM   27  C9  UNL     1      19.921   3.601  51.462  1.00  0.00     0.007 C 
HETATM   28  C10 UNL     1      20.204   3.666  50.147  1.00  0.00    -0.024 C 
HETATM   29  C11 UNL     1      19.930   4.607  49.055  1.00  0.00     0.056 C 
HETATM   30  S1  UNL     1      21.151   2.200  49.645  1.00  0.00    -0.077 SA
HETATM   31  C12 UNL     1      20.620   0.950  50.887  1.00  0.00     0.340 C 
HETATM   32  F1  UNL     1      21.231  -0.229  50.628  1.00  0.00    -0.214 F 
ENDBRANCH   7  25
TORSDOF 7
ENDMDL
MODEL 8
REMARK VINA RESULT:      -8.0      6.041     11.041
REMARK  7 active torsions:
REMARK  status: ('A' for Active; 'I' for Inactive)
REMARK    1  A    between atoms: O1_2  and  C2_3 
REMARK    2  A    between atoms: C7_9  and  N2_10 
REMARK    3  A    between atoms: C15_20  and  N3_21 
REMARK    4  A    between atoms: N3_21  and  C16_22 
REMARK    5  A    between atoms: C16_22  and  C17_23 
REMARK    6  A    between atoms: C18_24  and  C19_25 
REMARK    7  A    between atoms: C19_25  and  N4_26 
ROOT
HETATM    1  C2  UNL     1      24.910   0.270  53.169  1.00  0.00     0.096 A 
HETATM    2  C3  UNL     1      23.908  -0.476  53.807  1.00  0.00     0.071 A 
HETATM    3  C4  UNL     1      22.602  -0.287  53.448  1.00  0.00     0.071 A 
HETATM    4  N1  UNL     1      21.661  -1.006  54.073  1.00  0.00    -0.260 NA
HETATM    5  C5  UNL     1      20.356  -0.853  53.757  1.00  0.00     0.119 A 
HETATM    6  C6  UNL     1      19.924   0.033  52.792  1.00  0.00     0.049 A 
HETATM    7  C7  UNL     1      20.864   0.811  52.105  1.00  0.00     0.047 A 
HETATM    8  C13 UNL     1      22.164   0.589  52.491  1.00  0.00     0.022 A 
HETATM    9  C14 UNL     1      23.125   1.324  51.860  1.00  0.00     0.048 A 
HETATM   10  C15 UNL     1      24.436   1.157  52.199  1.00  0.00     0.063 A 
ENDROOT
BRANCH  10  11
HETATM   11  N3  UNL     1      25.617   1.847  51.671  1.00  0.00    -0.384 N 
HETATM   12  H15 UNL     1      25.214   2.095  50.710  1.00  0.00     0.160 HD
BRANCH  11  13
HETATM   13  C16 UNL     1      26.719   2.489  51.179  1.00  0.00     0.147 C 
BRANCH  13  14
HETATM   14  C17 UNL     1      26.512   3.421  50.008  1.00  0.00    -0.010 C 
HETATM   15  C18 UNL     1      25.778   4.436  49.591  1.00  0.00    -0.010 C 
BRANCH  15  16
HETATM   16  C19 UNL     1      24.706   5.389  49.848  1.00  0.00     0.144 C 
BRANCH  16  17
HETATM   17  N4  UNL     1      23.445   4.863  50.223  1.00  0.00    -0.405 N 
HETATM   18  C20 UNL     1      22.758   5.484  51.291  1.00  0.00     0.143 C 
HETATM   19  C21 UNL     1      21.874   6.594  50.867  1.00  0.00     0.187 C 
HETATM   20  O2  UNL     1      21.512   6.488  49.559  1.00  0.00    -0.388 OA
HETATM   21  C22 UNL     1      21.342   5.232  49.043  1.00  0.00     0.187 C 
HETATM   22  C23 UNL     1      22.602   4.395  49.157  1.00  0.00     0.143 C 
ENDBRANCH  16  17
ENDBRANCH  15  16
ENDBRANCH  13  14
ENDBRANCH  11  13
ENDBRANCH  10  11
BRANCH   1  23
HETATM   23  O1  UNL     1      26.226   0.064  53.546  1.00  0.00    -0.354 OA
HETATM   24  C1  UNL     1      26.551   0.157  54.920  1.00  0.00     0.210 C 
ENDBRANCH   1  23
BRANCH   7  25
HETATM   25  N2  UNL     1      20.416   1.711  51.097  1.00  0.00    -0.338 N 
HETATM   26  C8  UNL     1      20.249   1.577  49.688  1.00  0.00     0.155 C 
HETATM   27  C9  UNL     1      18.962   2.131  49.171  1.00  0.00     0.007 C 
HETATM   28  C10 UNL     1      17.921   2.790  49.714  1.00  0.00    -0.024 C 
HETATM   29  C11 UNL     1      16.652   3.341  49.225  1.00  0.00     0.056 C 
HETATM   30  S1  UNL     1      18.210   3.047  51.489  1.00  0.00    -0.077 SA
HETATM   31  C12 UNL     1      20.046   3.038  51.589  1.00  0.00     0.340 C 
HETATM   32  F1  UNL     1      20.428   3.247  52.871  1.00  0.00    -0.214 F 
ENDBRANCH   7  25
TORSDOF 7
ENDMDL
MODEL 9
REMARK VINA RESULT:      -8.0      7.171      9.797
REMARK  7 active torsions:
REMARK  status: ('A' for Active; 'I' for Inactive)
REMARK    1  A    between atoms: O1_2  and  C2_3 
REMARK    2  A    between atoms: C7_9  and  N2_10 
REMARK    3  A    between atoms: C15_20  and  N3_21 
REMARK    4  A    between atoms: N3_21  and  C16_22 
REMARK    5  A    between atoms: C16_22  and  C17_23 
REMARK    6  A    between atoms: C18_24  and  C19_25 
REMARK    7  A    between atoms: C19_25  and  N4_26 
ROOT
HETATM    1  C2  UNL     1      21.412   2.162  51.286  1.00  0.00     0.096 A 
HETATM    2  C3  UNL     1      22.309   2.944  50.546  1.00  0.00     0.071 A 
HETATM    3  C4  UNL     1      23.653   2.755  50.708  1.00  0.00     0.071 A 
HETATM    4  N1  UNL     1      24.492   3.516  49.994  1.00  0.00    -0.260 NA
HETATM    5  C5  UNL     1      25.830   3.371  50.122  1.00  0.00     0.119 A 
HETATM    6  C6  UNL     1      26.399   2.449  50.976  1.00  0.00     0.049 A 
HETATM    7  C7  UNL     1      25.570   1.625  51.747  1.00  0.00     0.047 A 
HETATM    8  C13 UNL     1      24.228   1.843  51.552  1.00  0.00     0.022 A 
HETATM    9  C14 UNL     1      23.370   1.073  52.282  1.00  0.00     0.048 A 
HETATM   10  C15 UNL     1      22.023   1.240  52.141  1.00  0.00     0.063 A 
ENDROOT
BRANCH  10  11
HETATM   11  N3  UNL     1      20.933   0.545  52.831  1.00  0.00    -0.384 N 
HETATM   12  H15 UNL     1      20.328   0.345  51.969  1.00  0.00     0.160 HD
BRANCH  11  13
HETATM   13  C16 UNL     1      19.915  -0.103  53.475  1.00  0.00     0.147 C 
BRANCH  13  14
HETATM   14  C17 UNL     1      18.760  -0.591  52.631  1.00  0.00    -0.010 C 
HETATM   15  C18 UNL     1      17.679  -0.181  51.994  1.00  0.00    -0.010 C 
BRANCH  15  16
HETATM   16  C19 UNL     1      16.799   0.913  51.607  1.00  0.00     0.144 C 
BRANCH  16  17
HETATM   17  N4  UNL     1      15.444   0.594  51.342  1.00  0.00    -0.405 N 
HETATM   18  C20 UNL     1      14.762  -0.231  52.265  1.00  0.00     0.143 C 
HETATM   19  C21 UNL     1      14.098   0.517  53.357  1.00  0.00     0.187 C 
HETATM   20  O2  UNL     1      13.847   1.810  53.012  1.00  0.00    -0.388 OA
HETATM   21  C22 UNL     1      13.539   2.073  51.705  1.00  0.00     0.187 C 
HETATM   22  C23 UNL     1      14.643   1.637  50.761  1.00  0.00     0.143 C 
ENDBRANCH  16  17
ENDBRANCH  15  16
ENDBRANCH  13  14
ENDBRANCH  11  13
ENDBRANCH  10  11
BRANCH   1  23
HETATM   23  O1  UNL     1      20.054   2.367  51.108  1.00  0.00    -0.354 OA
HETATM   24  C1  UNL     1      19.501   3.595  51.542  1.00  0.00     0.210 C 
ENDBRANCH   1  23
BRANCH   7  25
HETATM   25  N2  UNL     1      26.161   0.663  52.614  1.00  0.00    -0.338 N 
HETATM   26  C8  UNL     1      26.395  -0.737  52.485  1.00  0.00     0.155 C 
HETATM   27  C9  UNL     1      27.757  -1.170  52.918  1.00  0.00     0.007 C 
HETATM   28  C10 UNL     1      28.824  -0.557  53.463  1.00  0.00    -0.024 C 
HETATM   29  C11 UNL     1      30.167  -0.962  53.894  1.00  0.00     0.056 C 
HETATM   30  S1  UNL     1      28.460   1.204  53.720  1.00  0.00    -0.077 SA
HETATM   31  C12 UNL     1      26.628   1.201  53.891  1.00  0.00     0.340 C 
HETATM   32  F1  UNL     1      26.196   2.464  54.117  1.00  0.00    -0.214 F 
ENDBRANCH   7  25
TORSDOF 7
ENDMDL
