MODEL 1
REMARK VINA RESULT:      -9.7      0.000      0.000
REMARK  4 active torsions:
REMARK  status: ('A' for Active; 'I' for Inactive)
REMARK    1  A    between atoms: O1_1  and  C1_2 
REMARK    2  A    between atoms: C5_6  and  C6_7 
REMARK    3  A    between atoms: C10_13  and  N3_14 
REMARK    4  A    between atoms: N3_14  and  C11_15 
ROOT
HETATM    1  C6  UNL     1      26.406  -0.153  52.889  1.00  0.00    -0.013 A 
HETATM    2  C7  UNL     1      25.638  -0.805  53.840  1.00  0.00     0.043 A 
HETATM    3  C8  UNL     1      24.288  -0.557  54.003  1.00  0.00     0.075 A 
HETATM    4  N1  UNL     1      23.482  -1.184  54.915  1.00  0.00    -0.241 NA
HETATM    5  C9  UNL     1      22.164  -0.906  55.018  1.00  0.00     0.236 A 
HETATM    6  N2  UNL     1      21.528   0.002  54.242  1.00  0.00    -0.223 NA
HETATM    7  C10 UNL     1      22.277   0.668  53.305  1.00  0.00     0.144 A 
HETATM    8  C17 UNL     1      23.612   0.359  53.229  1.00  0.00     0.075 A 
HETATM    9  C18 UNL     1      24.347   1.039  52.258  1.00  0.00     0.119 A 
HETATM   10  C19 UNL     1      25.686   0.754  52.138  1.00  0.00     0.110 A 
HETATM   11  O2  UNL     1      26.326   1.478  51.153  1.00  0.00    -0.346 OA
HETATM   12  C20 UNL     1      26.001   2.839  50.876  1.00  0.00     0.202 C 
HETATM   13  C21 UNL     1      24.523   2.958  50.719  1.00  0.00     0.202 C 
HETATM   14  O3  UNL     1      23.773   1.986  51.423  1.00  0.00    -0.345 OA
ENDROOT
BRANCH   7  15
HETATM   15  N3  UNL     1      21.562   1.595  52.501  1.00  0.00    -0.340 N 
HETATM   16  H12 UNL     1      21.853   2.587  52.248  1.00  0.00     0.167 HD
BRANCH  15  17
HETATM   17  C11 UNL     1      20.296   1.522  51.827  1.00  0.00     0.035 A 
HETATM   18  C12 UNL     1      19.795   0.508  51.055  1.00  0.00     0.032 A 
HETATM   19  C13 UNL     1      18.568   0.615  50.472  1.00  0.00     0.046 A 
HETATM   20  C14 UNL     1      17.779   1.714  50.616  1.00  0.00     0.138 A 
HETATM   21  F1  UNL     1      16.573   1.755  49.998  1.00  0.00    -0.204 F 
HETATM   22  C15 UNL     1      18.251   2.760  51.390  1.00  0.00     0.074 A 
HETATM   23 CL1  UNL     1      17.214   4.142  51.572  1.00  0.00    -0.081 Cl
HETATM   24  C16 UNL     1      19.514   2.659  51.995  1.00  0.00     0.056 A 
ENDBRANCH  15  17
ENDBRANCH   7  15
BRANCH   1  25
HETATM   25  C5  UNL     1      27.815  -0.516  52.795  1.00  0.00     0.050 C 
HETATM   26  C1  UNL     1      28.191  -1.839  53.434  1.00  0.00     0.126 C 
HETATM   27  C2  UNL     1      29.731  -1.731  53.312  1.00  0.00     0.032 C 
HETATM   28  C3  UNL     1      29.991  -0.317  53.784  1.00  0.00     0.003 C 
HETATM   29  C4  UNL     1      28.647   0.399  53.734  1.00  0.00     0.012 C 
BRANCH  26  30
HETATM   30  O1  UNL     1      27.865  -2.959  52.736  1.00  0.00    -0.395 OA
HETATM   31  H1  UNL     1      28.428  -3.743  52.816  1.00  0.00     0.210 HD
ENDBRANCH  26  30
ENDBRANCH   1  25
TORSDOF 4
ENDMDL
MODEL 2
REMARK VINA RESULT:      -9.4      4.408      7.292
REMARK  4 active torsions:
REMARK  status: ('A' for Active; 'I' for Inactive)
REMARK    1  A    between atoms: O1_1  and  C1_2 
REMARK    2  A    between atoms: C5_6  and  C6_7 
REMARK    3  A    between atoms: C10_13  and  N3_14 
REMARK    4  A    between atoms: N3_14  and  C11_15 
ROOT
HETATM    1  C6  UNL     1      22.701   0.622  51.925  1.00  0.00    -0.013 A 
HETATM    2  C7  UNL     1      23.894   0.619  52.629  1.00  0.00     0.043 A 
HETATM    3  C8  UNL     1      25.001   1.338  52.220  1.00  0.00     0.075 A 
HETATM    4  N1  UNL     1      26.197   1.382  52.886  1.00  0.00    -0.241 NA
HETATM    5  C9  UNL     1      27.240   2.115  52.439  1.00  0.00     0.236 A 
HETATM    6  N2  UNL     1      27.202   2.863  51.312  1.00  0.00    -0.223 NA
HETATM    7  C10 UNL     1      26.032   2.865  50.595  1.00  0.00     0.144 A 
HETATM    8  C17 UNL     1      24.993   2.109  51.078  1.00  0.00     0.075 A 
HETATM    9  C18 UNL     1      23.812   2.141  50.339  1.00  0.00     0.119 A 
HETATM   10  C19 UNL     1      22.742   1.407  50.792  1.00  0.00     0.110 A 
HETATM   11  O2  UNL     1      21.620   1.502  49.991  1.00  0.00    -0.346 OA
HETATM   12  C20 UNL     1      21.705   1.578  48.570  1.00  0.00     0.202 C 
HETATM   13  C21 UNL     1      22.684   2.641  48.203  1.00  0.00     0.202 C 
HETATM   14  O3  UNL     1      23.689   2.879  49.171  1.00  0.00    -0.345 OA
ENDROOT
BRANCH   7  15
HETATM   15  N3  UNL     1      26.033   3.680  49.432  1.00  0.00    -0.340 N 
HETATM   16  H12 UNL     1      25.594   3.456  48.488  1.00  0.00     0.167 HD
BRANCH  15  17
HETATM   17  C11 UNL     1      26.599   4.969  49.149  1.00  0.00     0.035 A 
HETATM   18  C12 UNL     1      27.753   5.267  48.476  1.00  0.00     0.032 A 
HETATM   19  C13 UNL     1      28.151   6.561  48.312  1.00  0.00     0.046 A 
HETATM   20  C14 UNL     1      27.442   7.616  48.796  1.00  0.00     0.138 A 
HETATM   21  F1  UNL     1      27.905   8.875  48.604  1.00  0.00    -0.204 F 
HETATM   22  C15 UNL     1      26.268   7.353  49.481  1.00  0.00     0.074 A 
HETATM   23 CL1  UNL     1      25.373   8.721  50.071  1.00  0.00    -0.081 Cl
HETATM   24  C16 UNL     1      25.850   6.025  49.656  1.00  0.00     0.056 A 
ENDBRANCH  15  17
ENDBRANCH   7  15
BRANCH   1  25
HETATM   25  C5  UNL     1      21.596  -0.157  52.469  1.00  0.00     0.050 C 
HETATM   26  C1  UNL     1      20.539   0.639  53.211  1.00  0.00     0.126 C 
HETATM   27  C2  UNL     1      19.716  -0.539  53.787  1.00  0.00     0.032 C 
HETATM   28  C3  UNL     1      20.797  -1.453  54.322  1.00  0.00     0.003 C 
HETATM   29  C4  UNL     1      22.098  -0.993  53.678  1.00  0.00     0.012 C 
BRANCH  26  30
HETATM   30  O1  UNL     1      19.660   1.335  52.444  1.00  0.00    -0.395 OA
HETATM   31  H1  UNL     1      18.821   0.920  52.196  1.00  0.00     0.210 HD
ENDBRANCH  26  30
ENDBRANCH   1  25
TORSDOF 4
ENDMDL
MODEL 3
REMARK VINA RESULT:      -9.4      2.251      3.542
REMARK  4 active torsions:
REMARK  status: ('A' for Active; 'I' for Inactive)
REMARK    1  A    between atoms: O1_1  and  C1_2 
REMARK    2  A    between atoms: C5_6  and  C6_7 
REMARK    3  A    between atoms: C10_13  and  N3_14 
REMARK    4  A    between atoms: N3_14  and  C11_15 
ROOT
HETATM    1  C6  UNL     1      25.917   0.374  53.296  1.00  0.00    -0.013 A 
HETATM    2  C7  UNL     1      25.878   1.166  52.161  1.00  0.00     0.043 A 
HETATM    3  C8  UNL     1      24.695   1.634  51.622  1.00  0.00     0.075 A 
HETATM    4  N1  UNL     1      24.602   2.433  50.513  1.00  0.00    -0.241 NA
HETATM    5  C9  UNL     1      23.413   2.868  50.041  1.00  0.00     0.236 A 
HETATM    6  N2  UNL     1      22.224   2.562  50.610  1.00  0.00    -0.223 NA
HETATM    7  C10 UNL     1      22.244   1.765  51.726  1.00  0.00     0.144 A 
HETATM    8  C17 UNL     1      23.470   1.342  52.177  1.00  0.00     0.075 A 
HETATM    9  C18 UNL     1      23.463   0.546  53.322  1.00  0.00     0.119 A 
HETATM   10  C19 UNL     1      24.668   0.108  53.817  1.00  0.00     0.110 A 
HETATM   11  O2  UNL     1      24.557  -0.674  54.949  1.00  0.00    -0.346 OA
HETATM   12  C20 UNL     1      23.490  -1.603  55.131  1.00  0.00     0.202 C 
HETATM   13  C21 UNL     1      22.197  -0.908  54.861  1.00  0.00     0.202 C 
HETATM   14  O3  UNL     1      22.288   0.184  53.966  1.00  0.00    -0.345 OA
ENDROOT
BRANCH   7  15
HETATM   15  N3  UNL     1      20.975   1.489  52.299  1.00  0.00    -0.340 N 
HETATM   16  H12 UNL     1      20.668   1.671  53.303  1.00  0.00     0.167 HD
BRANCH  15  17
HETATM   17  C11 UNL     1      19.777   0.900  51.771  1.00  0.00     0.035 A 
HETATM   18  C12 UNL     1      19.123   1.194  50.604  1.00  0.00     0.032 A 
HETATM   19  C13 UNL     1      17.977   0.539  50.262  1.00  0.00     0.046 A 
HETATM   20  C14 UNL     1      17.421  -0.426  51.042  1.00  0.00     0.138 A 
HETATM   21  F1  UNL     1      16.273  -1.027  50.644  1.00  0.00    -0.204 F 
HETATM   22  C15 UNL     1      18.054  -0.751  52.230  1.00  0.00     0.074 A 
HETATM   23 CL1  UNL     1      17.332  -2.001  53.196  1.00  0.00    -0.081 Cl
HETATM   24  C16 UNL     1      19.235  -0.083  52.590  1.00  0.00     0.056 A 
ENDBRANCH  15  17
ENDBRANCH   7  15
BRANCH   1  25
HETATM   25  C5  UNL     1      27.228  -0.040  53.785  1.00  0.00     0.050 C 
HETATM   26  C1  UNL     1      28.367   0.915  53.484  1.00  0.00     0.126 C 
HETATM   27  C2  UNL     1      29.547   0.029  53.953  1.00  0.00     0.032 C 
HETATM   28  C3  UNL     1      29.212  -1.308  53.330  1.00  0.00     0.003 C 
HETATM   29  C4  UNL     1      27.742  -1.235  52.937  1.00  0.00     0.012 C 
BRANCH  26  30
HETATM   30  O1  UNL     1      28.440   2.030  54.257  1.00  0.00    -0.395 OA
HETATM   31  H1  UNL     1      28.609   1.933  55.206  1.00  0.00     0.210 HD
ENDBRANCH  26  30
ENDBRANCH   1  25
TORSDOF 4
ENDMDL
MODEL 4
REMARK VINA RESULT:      -9.1      1.958      3.282
REMARK  4 active torsions:
REMARK  status: ('A' for Active; 'I' for Inactive)
REMARK    1  A    between atoms: O1_1  and  C1_2 
REMARK    2  A    between atoms: C5_6  and  C6_7 
REMARK    3  A    between atoms: C10_13  and  N3_14 
REMARK    4  A    between atoms: N3_14  and  C11_15 
ROOT
HETATM    1  C6  UNL     1      25.376   0.152  53.210  1.00  0.00    -0.013 A 
HETATM    2  C7  UNL     1      25.427   1.003  52.118  1.00  0.00     0.043 A 
HETATM    3  C8  UNL     1      24.309   1.648  51.625  1.00  0.00     0.075 A 
HETATM    4  N1  UNL     1      24.308   2.509  50.560  1.00  0.00    -0.241 NA
HETATM    5  C9  UNL     1      23.181   3.120  50.133  1.00  0.00     0.236 A 
HETATM    6  N2  UNL     1      21.969   2.941  50.707  1.00  0.00    -0.223 NA
HETATM    7  C10 UNL     1      21.898   2.090  51.781  1.00  0.00     0.144 A 
HETATM    8  C17 UNL     1      23.063   1.488  52.188  1.00  0.00     0.075 A 
HETATM    9  C18 UNL     1      22.965   0.640  53.290  1.00  0.00     0.119 A 
HETATM   10  C19 UNL     1      24.108   0.023  53.739  1.00  0.00     0.110 A 
HETATM   11  O2  UNL     1      23.909  -0.797  54.832  1.00  0.00    -0.346 OA
HETATM   12  C20 UNL     1      22.732  -1.587  54.986  1.00  0.00     0.202 C 
HETATM   13  C21 UNL     1      21.539  -0.717  54.776  1.00  0.00     0.202 C 
HETATM   14  O3  UNL     1      21.761   0.399  53.936  1.00  0.00    -0.345 OA
ENDROOT
BRANCH   7  15
HETATM   15  N3  UNL     1      20.610   1.951  52.363  1.00  0.00    -0.340 N 
HETATM   16  H12 UNL     1      20.322   2.200  53.357  1.00  0.00     0.167 HD
BRANCH  15  17
HETATM   17  C11 UNL     1      19.363   1.449  51.857  1.00  0.00     0.035 A 
HETATM   18  C12 UNL     1      18.996   0.150  51.625  1.00  0.00     0.032 A 
HETATM   19  C13 UNL     1      17.764  -0.147  51.122  1.00  0.00     0.046 A 
HETATM   20  C14 UNL     1      16.842   0.806  50.823  1.00  0.00     0.138 A 
HETATM   21  F1  UNL     1      15.641   0.436  50.315  1.00  0.00    -0.204 F 
HETATM   22  C15 UNL     1      17.177   2.131  51.045  1.00  0.00     0.074 A 
HETATM   23 CL1  UNL     1      15.973   3.326  50.672  1.00  0.00    -0.081 Cl
HETATM   24  C16 UNL     1      18.443   2.448  51.563  1.00  0.00     0.056 A 
ENDBRANCH  15  17
ENDBRANCH   7  15
BRANCH   1  25
HETATM   25  C5  UNL     1      26.626  -0.453  53.653  1.00  0.00     0.050 C 
HETATM   26  C1  UNL     1      27.853   0.433  53.547  1.00  0.00     0.126 C 
HETATM   27  C2  UNL     1      28.935  -0.621  53.886  1.00  0.00     0.032 C 
HETATM   28  C3  UNL     1      28.513  -1.799  53.036  1.00  0.00     0.003 C 
HETATM   29  C4  UNL     1      27.071  -1.529  52.626  1.00  0.00     0.012 C 
BRANCH  26  30
HETATM   30  O1  UNL     1      27.989   1.391  54.501  1.00  0.00    -0.395 OA
HETATM   31  H1  UNL     1      28.054   1.123  55.429  1.00  0.00     0.210 HD
ENDBRANCH  26  30
ENDBRANCH   1  25
TORSDOF 4
ENDMDL
MODEL 5
REMARK VINA RESULT:      -8.8      4.825      7.613
REMARK  4 active torsions:
REMARK  status: ('A' for Active; 'I' for Inactive)
REMARK    1  A    between atoms: O1_1  and  C1_2 
REMARK    2  A    between atoms: C5_6  and  C6_7 
REMARK    3  A    between atoms: C10_13  and  N3_14 
REMARK    4  A    between atoms: N3_14  and  C11_15 
ROOT
HETATM    1  C6  UNL     1      22.824   1.263  52.541  1.00  0.00    -0.013 A 
HETATM    2  C7  UNL     1      22.019   1.860  51.585  1.00  0.00     0.043 A 
HETATM    3  C8  UNL     1      22.528   2.652  50.574  1.00  0.00     0.075 A 
HETATM    4  N1  UNL     1      21.778   3.251  49.596  1.00  0.00    -0.241 NA
HETATM    5  C9  UNL     1      22.339   4.006  48.625  1.00  0.00     0.236 A 
HETATM    6  N2  UNL     1      23.668   4.235  48.529  1.00  0.00    -0.223 NA
HETATM    7  C10 UNL     1      24.478   3.664  49.477  1.00  0.00     0.144 A 
HETATM    8  C17 UNL     1      23.876   2.904  50.448  1.00  0.00     0.075 A 
HETATM    9  C18 UNL     1      24.724   2.322  51.390  1.00  0.00     0.119 A 
HETATM   10  C19 UNL     1      24.164   1.543  52.374  1.00  0.00     0.110 A 
HETATM   11  O2  UNL     1      25.084   1.015  53.259  1.00  0.00    -0.346 OA
HETATM   12  C20 UNL     1      26.234   1.741  53.685  1.00  0.00     0.202 C 
HETATM   13  C21 UNL     1      26.934   2.281  52.483  1.00  0.00     0.202 C 
HETATM   14  O3  UNL     1      26.098   2.508  51.365  1.00  0.00    -0.345 OA
ENDROOT
BRANCH   7  15
HETATM   15  N3  UNL     1      25.868   3.916  49.321  1.00  0.00    -0.340 N 
HETATM   16  H12 UNL     1      26.668   3.230  49.476  1.00  0.00     0.167 HD
BRANCH  15  17
HETATM   17  C11 UNL     1      26.608   5.090  48.954  1.00  0.00     0.035 A 
HETATM   18  C12 UNL     1      26.176   6.388  48.894  1.00  0.00     0.032 A 
HETATM   19  C13 UNL     1      27.018   7.387  48.505  1.00  0.00     0.046 A 
HETATM   20  C14 UNL     1      28.315   7.162  48.160  1.00  0.00     0.138 A 
HETATM   21  F1  UNL     1      29.091   8.204  47.773  1.00  0.00    -0.204 F 
HETATM   22  C15 UNL     1      28.788   5.862  48.210  1.00  0.00     0.074 A 
HETATM   23 CL1  UNL     1      30.452   5.608  47.782  1.00  0.00    -0.081 Cl
HETATM   24  C16 UNL     1      27.928   4.827  48.609  1.00  0.00     0.056 A 
ENDBRANCH  15  17
ENDBRANCH   7  15
BRANCH   1  25
HETATM   25  C5  UNL     1      22.174   0.430  53.546  1.00  0.00     0.050 C 
HETATM   26  C1  UNL     1      22.688  -0.994  53.645  1.00  0.00     0.126 C 
HETATM   27  C2  UNL     1      21.627  -1.560  54.620  1.00  0.00     0.032 C 
HETATM   28  C3  UNL     1      20.337  -1.034  54.031  1.00  0.00     0.003 C 
HETATM   29  C4  UNL     1      20.733   0.087  53.079  1.00  0.00     0.012 C 
BRANCH  26  30
HETATM   30  O1  UNL     1      23.875  -1.162  54.285  1.00  0.00    -0.395 OA
HETATM   31  H1  UNL     1      24.466  -1.874  54.000  1.00  0.00     0.210 HD
ENDBRANCH  26  30
ENDBRANCH   1  25
TORSDOF 4
ENDMDL
MODEL 6
REMARK VINA RESULT:      -8.6      2.008      3.302
REMARK  4 active torsions:
REMARK  status: ('A' for Active; 'I' for Inactive)
REMARK    1  A    between atoms: O1_1  and  C1_2 
REMARK    2  A    between atoms: C5_6  and  C6_7 
REMARK    3  A    between atoms: C10_13  and  N3_14 
REMARK    4  A    between atoms: N3_14  and  C11_15 
ROOT
HETATM    1  C6  UNL     1      26.458   0.452  53.073  1.00  0.00    -0.013 A 
HETATM    2  C7  UNL     1      26.795   1.387  52.108  1.00  0.00     0.043 A 
HETATM    3  C8  UNL     1      25.866   2.242  51.546  1.00  0.00     0.075 A 
HETATM    4  N1  UNL     1      26.149   3.193  50.602  1.00  0.00    -0.241 NA
HETATM    5  C9  UNL     1      25.196   4.009  50.098  1.00  0.00     0.236 A 
HETATM    6  N2  UNL     1      23.897   3.963  50.473  1.00  0.00    -0.223 NA
HETATM    7  C10 UNL     1      23.544   3.032  51.416  1.00  0.00     0.144 A 
HETATM    8  C17 UNL     1      24.537   2.221  51.906  1.00  0.00     0.075 A 
HETATM    9  C18 UNL     1      24.154   1.295  52.875  1.00  0.00     0.119 A 
HETATM   10  C19 UNL     1      25.119   0.469  53.402  1.00  0.00     0.110 A 
HETATM   11  O2  UNL     1      24.641  -0.413  54.350  1.00  0.00    -0.346 OA
HETATM   12  C20 UNL     1      23.357  -1.024  54.244  1.00  0.00     0.202 C 
HETATM   13  C21 UNL     1      22.342   0.035  53.976  1.00  0.00     0.202 C 
HETATM   14  O3  UNL     1      22.844   1.181  53.314  1.00  0.00    -0.345 OA
ENDROOT
BRANCH   7  15
HETATM   15  N3  UNL     1      22.174   3.037  51.793  1.00  0.00    -0.340 N 
HETATM   16  H12 UNL     1      21.767   3.319  52.735  1.00  0.00     0.167 HD
BRANCH  15  17
HETATM   17  C11 UNL     1      20.973   2.674  51.095  1.00  0.00     0.035 A 
HETATM   18  C12 UNL     1      20.775   1.645  50.214  1.00  0.00     0.032 A 
HETATM   19  C13 UNL     1      19.560   1.454  49.626  1.00  0.00     0.046 A 
HETATM   20  C14 UNL     1      18.490   2.256  49.873  1.00  0.00     0.138 A 
HETATM   21  F1  UNL     1      17.314   2.012  49.243  1.00  0.00    -0.204 F 
HETATM   22  C15 UNL     1      18.652   3.307  50.759  1.00  0.00     0.074 A 
HETATM   23 CL1  UNL     1      17.263   4.303  51.069  1.00  0.00    -0.081 Cl
HETATM   24  C16 UNL     1      19.899   3.512  51.370  1.00  0.00     0.056 A 
ENDBRANCH  15  17
ENDBRANCH   7  15
BRANCH   1  25
HETATM   25  C5  UNL     1      27.530  -0.378  53.610  1.00  0.00     0.050 C 
HETATM   26  C1  UNL     1      28.932   0.172  53.434  1.00  0.00     0.126 C 
HETATM   27  C2  UNL     1      29.732  -1.063  53.915  1.00  0.00     0.032 C 
HETATM   28  C3  UNL     1      29.037  -2.196  53.192  1.00  0.00     0.003 C 
HETATM   29  C4  UNL     1      27.700  -1.640  52.720  1.00  0.00     0.012 C 
BRANCH  26  30
HETATM   30  O1  UNL     1      29.297   1.173  54.278  1.00  0.00    -0.395 OA
HETATM   31  H1  UNL     1      29.251   2.089  53.968  1.00  0.00     0.210 HD
ENDBRANCH  26  30
ENDBRANCH   1  25
TORSDOF 4
ENDMDL
MODEL 7
REMARK VINA RESULT:      -8.5      3.367      4.793
REMARK  4 active torsions:
REMARK  status: ('A' for Active; 'I' for Inactive)
REMARK    1  A    between atoms: O1_1  and  C1_2 
REMARK    2  A    between atoms: C5_6  and  C6_7 
REMARK    3  A    between atoms: C10_13  and  N3_14 
REMARK    4  A    between atoms: N3_14  and  C11_15 
ROOT
HETATM    1  C6  UNL     1      26.302   1.294  52.532  1.00  0.00    -0.013 A 
HETATM    2  C7  UNL     1      26.944   2.076  51.586  1.00  0.00     0.043 A 
HETATM    3  C8  UNL     1      26.269   2.980  50.787  1.00  0.00     0.075 A 
HETATM    4  N1  UNL     1      26.857   3.787  49.850  1.00  0.00    -0.241 NA
HETATM    5  C9  UNL     1      26.142   4.660  49.106  1.00  0.00     0.236 A 
HETATM    6  N2  UNL     1      24.803   4.816  49.216  1.00  0.00    -0.223 NA
HETATM    7  C10 UNL     1      24.150   4.038  50.137  1.00  0.00     0.144 A 
HETATM    8  C17 UNL     1      24.907   3.162  50.875  1.00  0.00     0.075 A 
HETATM    9  C18 UNL     1      24.220   2.395  51.815  1.00  0.00     0.119 A 
HETATM   10  C19 UNL     1      24.940   1.512  52.584  1.00  0.00     0.110 A 
HETATM   11  O2  UNL     1      24.172   0.797  53.482  1.00  0.00    -0.346 OA
HETATM   12  C20 UNL     1      22.857   0.345  53.167  1.00  0.00     0.202 C 
HETATM   13  C21 UNL     1      22.072   1.491  52.623  1.00  0.00     0.202 C 
HETATM   14  O3  UNL     1      22.848   2.491  51.991  1.00  0.00    -0.345 OA
ENDROOT
BRANCH   7  15
HETATM   15  N3  UNL     1      22.749   4.253  50.231  1.00  0.00    -0.340 N 
HETATM   16  H12 UNL     1      21.994   3.519  50.391  1.00  0.00     0.167 HD
BRANCH  15  17
HETATM   17  C11 UNL     1      21.938   5.433  50.130  1.00  0.00     0.035 A 
HETATM   18  C12 UNL     1      22.106   6.642  50.752  1.00  0.00     0.032 A 
HETATM   19  C13 UNL     1      21.221   7.659  50.551  1.00  0.00     0.046 A 
HETATM   20  C14 UNL     1      20.137   7.541  49.738  1.00  0.00     0.138 A 
HETATM   21  F1  UNL     1      19.293   8.592  49.594  1.00  0.00    -0.204 F 
HETATM   22  C15 UNL     1      19.935   6.334  49.091  1.00  0.00     0.074 A 
HETATM   23 CL1  UNL     1      18.554   6.219  48.043  1.00  0.00    -0.081 Cl
HETATM   24  C16 UNL     1      20.840   5.281  49.291  1.00  0.00     0.056 A 
ENDBRANCH  15  17
ENDBRANCH   7  15
BRANCH   1  25
HETATM   25  C5  UNL     1      27.123   0.394  53.332  1.00  0.00     0.050 C 
HETATM   26  C1  UNL     1      28.564   0.825  53.527  1.00  0.00     0.126 C 
HETATM   27  C2  UNL     1      29.105  -0.458  54.204  1.00  0.00     0.032 C 
HETATM   28  C3  UNL     1      28.529  -1.549  53.329  1.00  0.00     0.003 C 
HETATM   29  C4  UNL     1      27.412  -0.900  52.523  1.00  0.00     0.012 C 
BRANCH  26  30
HETATM   30  O1  UNL     1      28.780   1.815  54.433  1.00  0.00    -0.395 OA
HETATM   31  H1  UNL     1      29.337   1.632  55.204  1.00  0.00     0.210 HD
ENDBRANCH  26  30
ENDBRANCH   1  25
TORSDOF 4
ENDMDL
MODEL 8
REMARK VINA RESULT:      -8.5      4.202      8.585
REMARK  4 active torsions:
REMARK  status: ('A' for Active; 'I' for Inactive)
REMARK    1  A    between atoms: O1_1  and  C1_2 
REMARK    2  A    between atoms: C5_6  and  C6_7 
REMARK    3  A    between atoms: C10_13  and  N3_14 
REMARK    4  A    between atoms: N3_14  and  C11_15 
ROOT
HETATM    1  C6  UNL     1      20.391   1.794  51.624  1.00  0.00    -0.013 A 
HETATM    2  C7  UNL     1      21.297   2.698  51.093  1.00  0.00     0.043 A 
HETATM    3  C8  UNL     1      22.665   2.531  51.204  1.00  0.00     0.075 A 
HETATM    4  N1  UNL     1      23.602   3.385  50.685  1.00  0.00    -0.241 NA
HETATM    5  C9  UNL     1      24.928   3.160  50.818  1.00  0.00     0.236 A 
HETATM    6  N2  UNL     1      25.444   2.090  51.464  1.00  0.00    -0.223 NA
HETATM    7  C10 UNL     1      24.561   1.193  52.009  1.00  0.00     0.144 A 
HETATM    8  C17 UNL     1      23.222   1.453  51.855  1.00  0.00     0.075 A 
HETATM    9  C18 UNL     1      22.345   0.518  52.405  1.00  0.00     0.119 A 
HETATM   10  C19 UNL     1      20.995   0.732  52.264  1.00  0.00     0.110 A 
HETATM   11  O2  UNL     1      20.211  -0.246  52.843  1.00  0.00    -0.346 OA
HETATM   12  C20 UNL     1      20.568  -0.880  54.070  1.00  0.00     0.202 C 
HETATM   13  C21 UNL     1      21.981  -1.349  53.974  1.00  0.00     0.202 C 
HETATM   14  O3  UNL     1      22.792  -0.605  53.085  1.00  0.00    -0.345 OA
ENDROOT
BRANCH   7  15
HETATM   15  N3  UNL     1      25.150   0.076  52.659  1.00  0.00    -0.340 N 
HETATM   16  H12 UNL     1      24.646  -0.752  53.100  1.00  0.00     0.167 HD
BRANCH  15  17
HETATM   17  C11 UNL     1      26.513  -0.279  52.937  1.00  0.00     0.035 A 
HETATM   18  C12 UNL     1      27.151  -1.468  52.704  1.00  0.00     0.032 A 
HETATM   19  C13 UNL     1      28.459  -1.638  53.049  1.00  0.00     0.046 A 
HETATM   20  C14 UNL     1      29.198  -0.657  53.635  1.00  0.00     0.138 A 
HETATM   21  F1  UNL     1      30.491  -0.902  53.961  1.00  0.00    -0.204 F 
HETATM   22  C15 UNL     1      28.587   0.560  53.885  1.00  0.00     0.074 A 
HETATM   23 CL1  UNL     1      29.560   1.799  54.616  1.00  0.00    -0.081 Cl
HETATM   24  C16 UNL     1      27.241   0.744  53.533  1.00  0.00     0.056 A 
ENDBRANCH  15  17
ENDBRANCH   7  15
BRANCH   1  25
HETATM   25  C5  UNL     1      18.973   2.065  51.422  1.00  0.00     0.050 C 
HETATM   26  C1  UNL     1      18.469   1.880  50.003  1.00  0.00     0.126 C 
HETATM   27  C2  UNL     1      17.045   2.460  50.181  1.00  0.00     0.032 C 
HETATM   28  C3  UNL     1      17.311   3.731  50.958  1.00  0.00     0.003 C 
HETATM   29  C4  UNL     1      18.718   3.593  51.524  1.00  0.00     0.012 C 
BRANCH  26  30
HETATM   30  O1  UNL     1      18.274   0.598  49.595  1.00  0.00    -0.395 OA
HETATM   31  H1  UNL     1      18.345  -0.117  50.244  1.00  0.00     0.210 HD
ENDBRANCH  26  30
ENDBRANCH   1  25
TORSDOF 4
ENDMDL
MODEL 9
REMARK VINA RESULT:      -8.3      2.506      4.157
REMARK  4 active torsions:
REMARK  status: ('A' for Active; 'I' for Inactive)
REMARK    1  A    between atoms: O1_1  and  C1_2 
REMARK    2  A    between atoms: C5_6  and  C6_7 
REMARK    3  A    between atoms: C10_13  and  N3_14 
REMARK    4  A    between atoms: N3_14  and  C11_15 
ROOT
HETATM    1  C6  UNL     1      23.881   0.634  52.755  1.00  0.00    -0.013 A 
HETATM    2  C7  UNL     1      23.851   1.277  51.528  1.00  0.00     0.043 A 
HETATM    3  C8  UNL     1      22.698   1.389  50.775  1.00  0.00     0.075 A 
HETATM    4  N1  UNL     1      22.611   2.026  49.566  1.00  0.00    -0.241 NA
HETATM    5  C9  UNL     1      21.449   2.111  48.882  1.00  0.00     0.236 A 
HETATM    6  N2  UNL     1      20.282   1.585  49.321  1.00  0.00    -0.223 NA
HETATM    7  C10 UNL     1      20.297   0.931  50.527  1.00  0.00     0.144 A 
HETATM    8  C17 UNL     1      21.495   0.865  51.194  1.00  0.00     0.075 A 
HETATM    9  C18 UNL     1      21.480   0.209  52.424  1.00  0.00     0.119 A 
HETATM   10  C19 UNL     1      22.655   0.127  53.132  1.00  0.00     0.110 A 
HETATM   11  O2  UNL     1      22.538  -0.542  54.334  1.00  0.00    -0.346 OA
HETATM   12  C20 UNL     1      21.691  -1.678  54.493  1.00  0.00     0.202 C 
HETATM   13  C21 UNL     1      20.338  -1.347  53.960  1.00  0.00     0.202 C 
HETATM   14  O3  UNL     1      20.327  -0.361  52.945  1.00  0.00    -0.345 OA
ENDROOT
BRANCH   7  15
HETATM   15  N3  UNL     1      19.045   0.415  50.955  1.00  0.00    -0.340 N 
HETATM   16  H12 UNL     1      18.870  -0.492  51.485  1.00  0.00     0.167 HD
BRANCH  15  17
HETATM   17  C11 UNL     1      17.698   0.889  50.811  1.00  0.00     0.035 A 
HETATM   18  C12 UNL     1      16.686   0.371  50.048  1.00  0.00     0.032 A 
HETATM   19  C13 UNL     1      15.460   0.965  50.018  1.00  0.00     0.046 A 
HETATM   20  C14 UNL     1      15.169   2.087  50.730  1.00  0.00     0.138 A 
HETATM   21  F1  UNL     1      13.929   2.629  50.643  1.00  0.00    -0.204 F 
HETATM   22  C15 UNL     1      16.167   2.639  51.515  1.00  0.00     0.074 A 
HETATM   23 CL1  UNL     1      15.760   4.061  52.427  1.00  0.00    -0.081 Cl
HETATM   24  C16 UNL     1      17.433   2.035  51.552  1.00  0.00     0.056 A 
ENDBRANCH  15  17
ENDBRANCH   7  15
BRANCH   1  25
HETATM   25  C5  UNL     1      25.152   0.602  53.468  1.00  0.00     0.050 C 
HETATM   26  C1  UNL     1      26.103   1.742  53.160  1.00  0.00     0.126 C 
HETATM   27  C2  UNL     1      27.350   1.222  53.916  1.00  0.00     0.032 C 
HETATM   28  C3  UNL     1      27.403  -0.228  53.487  1.00  0.00     0.003 C 
HETATM   29  C4  UNL     1      26.032  -0.546  52.903  1.00  0.00     0.012 C 
BRANCH  26  30
HETATM   30  O1  UNL     1      25.818   2.938  53.740  1.00  0.00    -0.395 OA
HETATM   31  H1  UNL     1      25.672   2.973  54.697  1.00  0.00     0.210 HD
ENDBRANCH  26  30
ENDBRANCH   1  25
TORSDOF 4
ENDMDL
