MODEL 1
REMARK VINA RESULT:      -8.1      0.000      0.000
REMARK  5 active torsions:
REMARK  status: ('A' for Active; 'I' for Inactive)
REMARK    1  A    between atoms: O1_2  and  C2_3 
REMARK    2  A    between atoms: C5_6  and  C6_7 
REMARK    3  A    between atoms: C6_7  and  C7_8 
REMARK       I    between atoms: C7_8  and  N1_10 
REMARK       I    between atoms: N1_10  and  C8_11 
REMARK    4  A    between atoms: C8_11  and  S1_13 
REMARK    5  A    between atoms: S1_13  and  C9_15 
ROOT
HETATM    1  C7  UNL     1      25.418   3.337  50.900  1.00  0.00     0.229 C 
HETATM    2  O2  UNL     1      24.468   3.442  51.736  1.00  0.00    -0.273 OA
HETATM    3  N1  UNL     1      26.692   2.831  51.317  1.00  0.00    -0.286 N 
HETATM    4  C8  UNL     1      26.899   2.440  52.685  1.00  0.00     0.321 C 
HETATM    5  O3  UNL     1      25.968   2.532  53.553  1.00  0.00    -0.257 OA
HETATM    6  H8  UNL     1      27.540   2.704  50.714  1.00  0.00     0.172 HD
ENDROOT
BRANCH   1   7
HETATM    7  C6  UNL     1      25.412   3.681  49.459  1.00  0.00     0.141 C 
BRANCH   7   8
HETATM    8  C5  UNL     1      26.285   4.849  49.175  1.00  0.00    -0.049 A 
HETATM    9  C4  UNL     1      25.716   6.064  49.533  1.00  0.00     0.010 A 
HETATM   10  C3  UNL     1      26.396   7.267  49.338  1.00  0.00     0.037 A 
HETATM   11  C2  UNL     1      27.654   7.192  48.774  1.00  0.00     0.068 A 
HETATM   12  C16 UNL     1      28.222   5.975  48.416  1.00  0.00     0.037 A 
HETATM   13  C15 UNL     1      27.525   4.791  48.621  1.00  0.00     0.010 A 
BRANCH  11  14
HETATM   14  O1  UNL     1      28.470   8.283  48.509  1.00  0.00    -0.356 OA
HETATM   15  C1  UNL     1      28.546   9.302  49.486  1.00  0.00     0.210 C 
ENDBRANCH  11  14
ENDBRANCH   7   8
ENDBRANCH   1   7
BRANCH   4  16
HETATM   16  S1  UNL     1      28.457   1.809  53.248  1.00  0.00     0.143 S 
HETATM   17  O4  UNL     1      28.821   2.324  54.624  1.00  0.00    -0.243 OA
BRANCH  16  18
HETATM   18  C9  UNL     1      28.493   0.037  53.178  1.00  0.00     0.041 A 
HETATM   19  C10 UNL     1      27.298  -0.550  52.771  1.00  0.00     0.021 A 
HETATM   20  C11 UNL     1      27.277  -1.946  52.700  1.00  0.00     0.001 A 
HETATM   21  C12 UNL     1      28.360  -2.735  53.008  1.00  0.00     0.000 A 
HETATM   22  C13 UNL     1      29.544  -2.121  53.414  1.00  0.00     0.001 A 
HETATM   23  C14 UNL     1      29.591  -0.744  53.491  1.00  0.00     0.021 A 
ENDBRANCH  16  18
ENDBRANCH   4  16
TORSDOF 5
ENDMDL
MODEL 2
REMARK VINA RESULT:      -7.7      3.244      4.233
REMARK  5 active torsions:
REMARK  status: ('A' for Active; 'I' for Inactive)
REMARK    1  A    between atoms: O1_2  and  C2_3 
REMARK    2  A    between atoms: C5_6  and  C6_7 
REMARK    3  A    between atoms: C6_7  and  C7_8 
REMARK       I    between atoms: C7_8  and  N1_10 
REMARK       I    between atoms: N1_10  and  C8_11 
REMARK    4  A    between atoms: C8_11  and  S1_13 
REMARK    5  A    between atoms: S1_13  and  C9_15 
ROOT
HETATM    1  C7  UNL     1      26.738   2.163  51.312  1.00  0.00     0.229 C 
HETATM    2  O2  UNL     1      27.641   2.703  52.022  1.00  0.00    -0.273 OA
HETATM    3  N1  UNL     1      25.935   1.105  51.851  1.00  0.00    -0.286 N 
HETATM    4  C8  UNL     1      26.149   0.653  53.199  1.00  0.00     0.321 C 
HETATM    5  O3  UNL     1      27.048   1.173  53.941  1.00  0.00    -0.257 OA
HETATM    6  H8  UNL     1      25.167   0.592  51.356  1.00  0.00     0.172 HD
ENDROOT
BRANCH   1   7
HETATM    7  C6  UNL     1      26.360   2.478  49.915  1.00  0.00     0.141 C 
BRANCH   7   8
HETATM    8  C5  UNL     1      26.299   3.944  49.685  1.00  0.00    -0.049 A 
HETATM    9  C4  UNL     1      27.324   4.419  48.876  1.00  0.00     0.010 A 
HETATM   10  C3  UNL     1      27.424   5.774  48.555  1.00  0.00     0.037 A 
HETATM   11  C2  UNL     1      26.460   6.614  49.076  1.00  0.00     0.068 A 
HETATM   12  C16 UNL     1      25.435   6.137  49.884  1.00  0.00     0.037 A 
HETATM   13  C15 UNL     1      25.358   4.783  50.190  1.00  0.00     0.010 A 
BRANCH  11  14
HETATM   14  O1  UNL     1      26.403   7.984  48.861  1.00  0.00    -0.356 OA
HETATM   15  C1  UNL     1      25.693   8.445  47.729  1.00  0.00     0.210 C 
ENDBRANCH  11  14
ENDBRANCH   7   8
ENDBRANCH   1   7
BRANCH   4  16
HETATM   16  S1  UNL     1      25.181  -0.650  53.909  1.00  0.00     0.143 S 
HETATM   17  O4  UNL     1      25.631  -1.000  55.312  1.00  0.00    -0.243 OA
BRANCH  16  18
HETATM   18  C9  UNL     1      23.449  -0.268  53.849  1.00  0.00     0.041 A 
HETATM   19  C10 UNL     1      22.652  -1.072  54.660  1.00  0.00     0.021 A 
HETATM   20  C11 UNL     1      21.279  -0.809  54.646  1.00  0.00     0.001 A 
HETATM   21  C12 UNL     1      20.706   0.183  53.885  1.00  0.00     0.000 A 
HETATM   22  C13 UNL     1      21.529   0.972  53.083  1.00  0.00     0.001 A 
HETATM   23  C14 UNL     1      22.888   0.734  53.079  1.00  0.00     0.021 A 
ENDBRANCH  16  18
ENDBRANCH   4  16
TORSDOF 5
ENDMDL
MODEL 3
REMARK VINA RESULT:      -7.7      2.863      7.141
REMARK  5 active torsions:
REMARK  status: ('A' for Active; 'I' for Inactive)
REMARK    1  A    between atoms: O1_2  and  C2_3 
REMARK    2  A    between atoms: C5_6  and  C6_7 
REMARK    3  A    between atoms: C6_7  and  C7_8 
REMARK       I    between atoms: C7_8  and  N1_10 
REMARK       I    between atoms: N1_10  and  C8_11 
REMARK    4  A    between atoms: C8_11  and  S1_13 
REMARK    5  A    between atoms: S1_13  and  C9_15 
ROOT
HETATM    1  C7  UNL     1      22.882   0.468  52.791  1.00  0.00     0.229 C 
HETATM    2  O2  UNL     1      21.941   0.061  52.042  1.00  0.00    -0.273 OA
HETATM    3  N1  UNL     1      23.352   1.818  52.688  1.00  0.00    -0.286 N 
HETATM    4  C8  UNL     1      22.758   2.717  51.735  1.00  0.00     0.321 C 
HETATM    5  O3  UNL     1      21.811   2.342  50.966  1.00  0.00    -0.257 OA
HETATM    6  H8  UNL     1      24.119   2.255  53.253  1.00  0.00     0.172 HD
ENDROOT
BRANCH   1   7
HETATM    7  C6  UNL     1      23.621  -0.290  53.827  1.00  0.00     0.141 C 
BRANCH   7   8
HETATM    8  C5  UNL     1      25.090  -0.197  53.625  1.00  0.00    -0.049 A 
HETATM    9  C4  UNL     1      25.796   0.020  54.803  1.00  0.00     0.010 A 
HETATM   10  C3  UNL     1      27.187   0.134  54.802  1.00  0.00     0.037 A 
HETATM   11  C2  UNL     1      27.824   0.022  53.582  1.00  0.00     0.068 A 
HETATM   12  C16 UNL     1      27.116  -0.195  52.406  1.00  0.00     0.037 A 
HETATM   13  C15 UNL     1      25.731  -0.305  52.433  1.00  0.00     0.010 A 
BRANCH  11  14
HETATM   14  O1  UNL     1      29.197   0.109  53.394  1.00  0.00    -0.356 OA
HETATM   15  C1  UNL     1      29.992  -0.972  53.836  1.00  0.00     0.210 C 
ENDBRANCH  11  14
ENDBRANCH   7   8
ENDBRANCH   1   7
BRANCH   4  16
HETATM   16  S1  UNL     1      23.306   4.394  51.572  1.00  0.00     0.143 S 
HETATM   17  O4  UNL     1      23.509   5.065  52.913  1.00  0.00    -0.243 OA
BRANCH  16  18
HETATM   18  C9  UNL     1      24.757   4.498  50.556  1.00  0.00     0.041 A 
HETATM   19  C10 UNL     1      25.430   3.292  50.385  1.00  0.00     0.021 A 
HETATM   20  C11 UNL     1      26.581   3.323  49.592  1.00  0.00     0.001 A 
HETATM   21  C12 UNL     1      27.057   4.466  48.995  1.00  0.00     0.000 A 
HETATM   22  C13 UNL     1      26.364   5.661  49.184  1.00  0.00     0.001 A 
HETATM   23  C14 UNL     1      25.224   5.656  49.962  1.00  0.00     0.021 A 
ENDBRANCH  16  18
ENDBRANCH   4  16
TORSDOF 5
ENDMDL
MODEL 4
REMARK VINA RESULT:      -7.6      2.619      7.635
REMARK  5 active torsions:
REMARK  status: ('A' for Active; 'I' for Inactive)
REMARK    1  A    between atoms: O1_2  and  C2_3 
REMARK    2  A    between atoms: C5_6  and  C6_7 
REMARK    3  A    between atoms: C6_7  and  C7_8 
REMARK       I    between atoms: C7_8  and  N1_10 
REMARK       I    between atoms: N1_10  and  C8_11 
REMARK    4  A    between atoms: C8_11  and  S1_13 
REMARK    5  A    between atoms: S1_13  and  C9_15 
ROOT
HETATM    1  C7  UNL     1      23.800   3.122  51.810  1.00  0.00     0.229 C 
HETATM    2  O2  UNL     1      23.772   3.789  52.890  1.00  0.00    -0.273 OA
HETATM    3  N1  UNL     1      23.976   3.792  50.555  1.00  0.00    -0.286 N 
HETATM    4  C8  UNL     1      24.122   5.222  50.516  1.00  0.00     0.321 C 
HETATM    5  O3  UNL     1      24.098   5.924  51.581  1.00  0.00    -0.257 OA
HETATM    6  H8  UNL     1      24.014   3.342  49.609  1.00  0.00     0.172 HD
ENDROOT
BRANCH   1   7
HETATM    7  C6  UNL     1      23.671   1.657  51.634  1.00  0.00     0.141 C 
BRANCH   7   8
HETATM    8  C5  UNL     1      24.744   0.925  52.354  1.00  0.00    -0.049 A 
HETATM    9  C4  UNL     1      26.017   1.188  51.863  1.00  0.00     0.010 A 
HETATM   10  C3  UNL     1      27.146   0.586  52.421  1.00  0.00     0.037 A 
HETATM   11  C2  UNL     1      26.939  -0.278  53.477  1.00  0.00     0.068 A 
HETATM   12  C16 UNL     1      25.664  -0.540  53.967  1.00  0.00     0.037 A 
HETATM   13  C15 UNL     1      24.556   0.072  53.395  1.00  0.00     0.010 A 
BRANCH  11  14
HETATM   14  O1  UNL     1      27.942  -0.962  54.151  1.00  0.00    -0.356 OA
HETATM   15  C1  UNL     1      29.234  -0.968  53.578  1.00  0.00     0.210 C 
ENDBRANCH  11  14
ENDBRANCH   7   8
ENDBRANCH   1   7
BRANCH   4  16
HETATM   16  S1  UNL     1      24.341   6.094  48.989  1.00  0.00     0.143 S 
HETATM   17  O4  UNL     1      23.671   7.450  49.001  1.00  0.00    -0.243 OA
BRANCH  16  18
HETATM   18  C9  UNL     1      26.059   6.213  48.560  1.00  0.00     0.041 A 
HETATM   19  C10 UNL     1      26.809   5.078  48.859  1.00  0.00     0.021 A 
HETATM   20  C11 UNL     1      28.170   5.124  48.540  1.00  0.00     0.001 A 
HETATM   21  C12 UNL     1      28.774   6.214  47.959  1.00  0.00     0.000 A 
HETATM   22  C13 UNL     1      27.999   7.336  47.671  1.00  0.00     0.001 A 
HETATM   23  C14 UNL     1      26.653   7.317  47.976  1.00  0.00     0.021 A 
ENDBRANCH  16  18
ENDBRANCH   4  16
TORSDOF 5
ENDMDL
MODEL 5
REMARK VINA RESULT:      -7.6      2.425      7.524
REMARK  5 active torsions:
REMARK  status: ('A' for Active; 'I' for Inactive)
REMARK    1  A    between atoms: O1_2  and  C2_3 
REMARK    2  A    between atoms: C5_6  and  C6_7 
REMARK    3  A    between atoms: C6_7  and  C7_8 
REMARK       I    between atoms: C7_8  and  N1_10 
REMARK       I    between atoms: N1_10  and  C8_11 
REMARK    4  A    between atoms: C8_11  and  S1_13 
REMARK    5  A    between atoms: S1_13  and  C9_15 
ROOT
HETATM    1  C7  UNL     1      24.185   2.927  51.642  1.00  0.00     0.229 C 
HETATM    2  O2  UNL     1      23.669   2.197  50.740  1.00  0.00    -0.273 OA
HETATM    3  N1  UNL     1      24.666   4.238  51.319  1.00  0.00    -0.286 N 
HETATM    4  C8  UNL     1      24.567   4.730  49.972  1.00  0.00     0.321 C 
HETATM    5  O3  UNL     1      24.056   4.024  49.040  1.00  0.00    -0.257 OA
HETATM    6  H8  UNL     1      25.107   4.920  51.982  1.00  0.00     0.172 HD
ENDROOT
BRANCH   1   7
HETATM    7  C6  UNL     1      24.379   2.611  53.076  1.00  0.00     0.141 C 
BRANCH   7   8
HETATM    8  C5  UNL     1      25.375   1.525  53.265  1.00  0.00    -0.049 A 
HETATM    9  C4  UNL     1      26.660   1.993  53.515  1.00  0.00     0.010 A 
HETATM   10  C3  UNL     1      27.723   1.112  53.716  1.00  0.00     0.037 A 
HETATM   11  C2  UNL     1      27.440  -0.237  53.657  1.00  0.00     0.068 A 
HETATM   12  C16 UNL     1      26.154  -0.703  53.407  1.00  0.00     0.037 A 
HETATM   13  C15 UNL     1      25.112   0.194  53.209  1.00  0.00     0.010 A 
BRANCH  11  14
HETATM   14  O1  UNL     1      28.371  -1.252  53.833  1.00  0.00    -0.356 OA
HETATM   15  C1  UNL     1      29.740  -0.902  53.806  1.00  0.00     0.210 C 
ENDBRANCH  11  14
ENDBRANCH   7   8
ENDBRANCH   1   7
BRANCH   4  16
HETATM   16  S1  UNL     1      25.149   6.344  49.526  1.00  0.00     0.143 S 
HETATM   17  O4  UNL     1      25.039   7.330  50.669  1.00  0.00    -0.243 OA
BRANCH  16  18
HETATM   18  C9  UNL     1      26.798   6.273  48.874  1.00  0.00     0.041 A 
HETATM   19  C10 UNL     1      27.326   7.506  48.505  1.00  0.00     0.021 A 
HETATM   20  C11 UNL     1      28.625   7.502  47.985  1.00  0.00     0.001 A 
HETATM   21  C12 UNL     1      29.373   6.359  47.831  1.00  0.00     0.000 A 
HETATM   22  C13 UNL     1      28.818   5.137  48.208  1.00  0.00     0.001 A 
HETATM   23  C14 UNL     1      27.538   5.115  48.724  1.00  0.00     0.021 A 
ENDBRANCH  16  18
ENDBRANCH   4  16
TORSDOF 5
ENDMDL
MODEL 6
REMARK VINA RESULT:      -7.5      4.224      6.790
REMARK  5 active torsions:
REMARK  status: ('A' for Active; 'I' for Inactive)
REMARK    1  A    between atoms: O1_2  and  C2_3 
REMARK    2  A    between atoms: C5_6  and  C6_7 
REMARK    3  A    between atoms: C6_7  and  C7_8 
REMARK       I    between atoms: C7_8  and  N1_10 
REMARK       I    between atoms: N1_10  and  C8_11 
REMARK    4  A    between atoms: C8_11  and  S1_13 
REMARK    5  A    between atoms: S1_13  and  C9_15 
ROOT
HETATM    1  C7  UNL     1      22.539  -1.287  54.620  1.00  0.00     0.229 C 
HETATM    2  O2  UNL     1      22.733  -1.760  55.782  1.00  0.00    -0.273 OA
HETATM    3  N1  UNL     1      23.624  -0.697  53.892  1.00  0.00    -0.286 N 
HETATM    4  C8  UNL     1      24.936  -0.639  54.476  1.00  0.00     0.321 C 
HETATM    5  O3  UNL     1      25.168  -1.103  55.642  1.00  0.00    -0.257 OA
HETATM    6  H8  UNL     1      23.575  -0.279  52.932  1.00  0.00     0.172 HD
ENDROOT
BRANCH   1   7
HETATM    7  C6  UNL     1      21.277  -1.249  53.846  1.00  0.00     0.141 C 
BRANCH   7   8
HETATM    8  C5  UNL     1      21.231  -0.074  52.938  1.00  0.00    -0.049 A 
HETATM    9  C4  UNL     1      20.654   1.050  53.518  1.00  0.00     0.010 A 
HETATM   10  C3  UNL     1      20.528   2.245  52.809  1.00  0.00     0.037 A 
HETATM   11  C2  UNL     1      21.000   2.259  51.512  1.00  0.00     0.068 A 
HETATM   12  C16 UNL     1      21.577   1.134  50.934  1.00  0.00     0.037 A 
HETATM   13  C15 UNL     1      21.691  -0.046  51.660  1.00  0.00     0.010 A 
BRANCH  11  14
HETATM   14  O1  UNL     1      20.958   3.357  50.664  1.00  0.00    -0.356 OA
HETATM   15  C1  UNL     1      20.997   4.643  51.249  1.00  0.00     0.210 C 
ENDBRANCH  11  14
ENDBRANCH   7   8
ENDBRANCH   1   7
BRANCH   4  16
HETATM   16  S1  UNL     1      26.307   0.081  53.615  1.00  0.00     0.143 S 
HETATM   17  O4  UNL     1      27.079  -0.941  52.809  1.00  0.00    -0.243 OA
BRANCH  16  18
HETATM   18  C9  UNL     1      25.788   1.452  52.615  1.00  0.00     0.041 A 
HETATM   19  C10 UNL     1      26.528   1.629  51.449  1.00  0.00     0.021 A 
HETATM   20  C11 UNL     1      26.156   2.697  50.627  1.00  0.00     0.001 A 
HETATM   21  C12 UNL     1      25.119   3.551  50.919  1.00  0.00     0.000 A 
HETATM   22  C13 UNL     1      24.396   3.350  52.094  1.00  0.00     0.001 A 
HETATM   23  C14 UNL     1      24.742   2.302  52.922  1.00  0.00     0.021 A 
ENDBRANCH  16  18
ENDBRANCH   4  16
TORSDOF 5
ENDMDL
MODEL 7
REMARK VINA RESULT:      -7.5      1.728      2.132
REMARK  5 active torsions:
REMARK  status: ('A' for Active; 'I' for Inactive)
REMARK    1  A    between atoms: O1_2  and  C2_3 
REMARK    2  A    between atoms: C5_6  and  C6_7 
REMARK    3  A    between atoms: C6_7  and  C7_8 
REMARK       I    between atoms: C7_8  and  N1_10 
REMARK       I    between atoms: N1_10  and  C8_11 
REMARK    4  A    between atoms: C8_11  and  S1_13 
REMARK    5  A    between atoms: S1_13  and  C9_15 
ROOT
HETATM    1  C7  UNL     1      24.652   3.631  50.949  1.00  0.00     0.229 C 
HETATM    2  O2  UNL     1      24.263   4.564  51.716  1.00  0.00    -0.273 OA
HETATM    3  N1  UNL     1      25.006   2.352  51.492  1.00  0.00    -0.286 N 
HETATM    4  C8  UNL     1      24.921   2.123  52.909  1.00  0.00     0.321 C 
HETATM    5  O3  UNL     1      24.535   3.038  53.710  1.00  0.00    -0.257 OA
HETATM    6  H8  UNL     1      25.338   1.517  50.953  1.00  0.00     0.172 HD
ENDROOT
BRANCH   1   7
HETATM    7  C6  UNL     1      24.808   3.660  49.476  1.00  0.00     0.141 C 
BRANCH   7   8
HETATM    8  C5  UNL     1      25.895   4.584  49.062  1.00  0.00    -0.049 A 
HETATM    9  C4  UNL     1      25.447   5.867  48.767  1.00  0.00     0.010 A 
HETATM   10  C3  UNL     1      26.332   6.866  48.361  1.00  0.00     0.037 A 
HETATM   11  C2  UNL     1      27.666   6.523  48.267  1.00  0.00     0.068 A 
HETATM   12  C16 UNL     1      28.112   5.239  48.562  1.00  0.00     0.037 A 
HETATM   13  C15 UNL     1      27.211   4.261  48.965  1.00  0.00     0.010 A 
BRANCH  11  14
HETATM   14  O1  UNL     1      28.682   7.386  47.880  1.00  0.00    -0.356 OA
HETATM   15  C1  UNL     1      29.972   6.841  47.686  1.00  0.00     0.210 C 
ENDBRANCH  11  14
ENDBRANCH   7   8
ENDBRANCH   1   7
BRANCH   4  16
HETATM   16  S1  UNL     1      25.347   0.560  53.627  1.00  0.00     0.143 S 
HETATM   17  O4  UNL     1      24.619  -0.591  52.968  1.00  0.00    -0.243 OA
BRANCH  16  18
HETATM   18  C9  UNL     1      27.105   0.313  53.626  1.00  0.00     0.041 A 
HETATM   19  C10 UNL     1      27.508  -0.965  53.252  1.00  0.00     0.021 A 
HETATM   20  C11 UNL     1      28.885  -1.209  53.236  1.00  0.00     0.001 A 
HETATM   21  C12 UNL     1      29.824  -0.261  53.567  1.00  0.00     0.000 A 
HETATM   22  C13 UNL     1      29.391   1.011  53.939  1.00  0.00     0.001 A 
HETATM   23  C14 UNL     1      28.038   1.277  53.962  1.00  0.00     0.021 A 
ENDBRANCH  16  18
ENDBRANCH   4  16
TORSDOF 5
ENDMDL
MODEL 8
REMARK VINA RESULT:      -7.3      3.183      3.849
REMARK  5 active torsions:
REMARK  status: ('A' for Active; 'I' for Inactive)
REMARK    1  A    between atoms: O1_2  and  C2_3 
REMARK    2  A    between atoms: C5_6  and  C6_7 
REMARK    3  A    between atoms: C6_7  and  C7_8 
REMARK       I    between atoms: C7_8  and  N1_10 
REMARK       I    between atoms: N1_10  and  C8_11 
REMARK    4  A    between atoms: C8_11  and  S1_13 
REMARK    5  A    between atoms: S1_13  and  C9_15 
ROOT
HETATM    1  C7  UNL     1      24.322   4.262  50.769  1.00  0.00     0.229 C 
HETATM    2  O2  UNL     1      24.087   5.110  51.684  1.00  0.00    -0.273 OA
HETATM    3  N1  UNL     1      24.578   2.892  51.106  1.00  0.00    -0.286 N 
HETATM    4  C8  UNL     1      24.568   2.475  52.482  1.00  0.00     0.321 C 
HETATM    5  O3  UNL     1      24.335   3.300  53.427  1.00  0.00    -0.257 OA
HETATM    6  H8  UNL     1      24.783   2.114  50.435  1.00  0.00     0.172 HD
ENDROOT
BRANCH   1   7
HETATM    7  C6  UNL     1      24.378   4.485  49.306  1.00  0.00     0.141 C 
BRANCH   7   8
HETATM    8  C5  UNL     1      25.608   5.220  48.914  1.00  0.00    -0.049 A 
HETATM    9  C4  UNL     1      26.760   4.446  48.983  1.00  0.00     0.010 A 
HETATM   10  C3  UNL     1      28.008   4.975  48.651  1.00  0.00     0.037 A 
HETATM   11  C2  UNL     1      28.043   6.296  48.252  1.00  0.00     0.068 A 
HETATM   12  C16 UNL     1      26.889   7.069  48.183  1.00  0.00     0.037 A 
HETATM   13  C15 UNL     1      25.658   6.520  48.520  1.00  0.00     0.010 A 
BRANCH  11  14
HETATM   14  O1  UNL     1      29.192   6.984  47.885  1.00  0.00    -0.356 OA
HETATM   15  C1  UNL     1      29.543   8.129  48.636  1.00  0.00     0.210 C 
ENDBRANCH  11  14
ENDBRANCH   7   8
ENDBRANCH   1   7
BRANCH   4  16
HETATM   16  S1  UNL     1      24.878   0.793  52.946  1.00  0.00     0.143 S 
HETATM   17  O4  UNL     1      25.955   0.679  54.003  1.00  0.00    -0.243 OA
BRANCH  16  18
HETATM   18  C9  UNL     1      23.381  -0.021  53.443  1.00  0.00     0.041 A 
HETATM   19  C10 UNL     1      22.270   0.288  52.664  1.00  0.00     0.021 A 
HETATM   20  C11 UNL     1      21.065  -0.329  53.016  1.00  0.00     0.001 A 
HETATM   21  C12 UNL     1      20.944  -1.202  54.072  1.00  0.00     0.000 A 
HETATM   22  C13 UNL     1      22.073  -1.492  54.836  1.00  0.00     0.001 A 
HETATM   23  C14 UNL     1      23.274  -0.897  54.508  1.00  0.00     0.021 A 
ENDBRANCH  16  18
ENDBRANCH   4  16
TORSDOF 5
ENDMDL
MODEL 9
REMARK VINA RESULT:      -7.2      4.210      6.896
REMARK  5 active torsions:
REMARK  status: ('A' for Active; 'I' for Inactive)
REMARK    1  A    between atoms: O1_2  and  C2_3 
REMARK    2  A    between atoms: C5_6  and  C6_7 
REMARK    3  A    between atoms: C6_7  and  C7_8 
REMARK       I    between atoms: C7_8  and  N1_10 
REMARK       I    between atoms: N1_10  and  C8_11 
REMARK    4  A    between atoms: C8_11  and  S1_13 
REMARK    5  A    between atoms: S1_13  and  C9_15 
ROOT
HETATM    1  C7  UNL     1      23.714   3.649  51.049  1.00  0.00     0.229 C 
HETATM    2  O2  UNL     1      23.432   4.886  51.054  1.00  0.00    -0.273 OA
HETATM    3  N1  UNL     1      22.735   2.685  51.458  1.00  0.00    -0.286 N 
HETATM    4  C8  UNL     1      21.429   3.118  51.875  1.00  0.00     0.321 C 
HETATM    5  O3  UNL     1      21.111   4.354  51.893  1.00  0.00    -0.257 OA
HETATM    6  H8  UNL     1      22.861   1.645  51.493  1.00  0.00     0.172 HD
ENDROOT
BRANCH   1   7
HETATM    7  C6  UNL     1      24.988   3.001  50.659  1.00  0.00     0.141 C 
BRANCH   7   8
HETATM    8  C5  UNL     1      25.572   2.227  51.785  1.00  0.00    -0.049 A 
HETATM    9  C4  UNL     1      26.290   1.111  51.374  1.00  0.00     0.010 A 
HETATM   10  C3  UNL     1      26.908   0.267  52.298  1.00  0.00     0.037 A 
HETATM   11  C2  UNL     1      26.773   0.593  53.633  1.00  0.00     0.068 A 
HETATM   12  C16 UNL     1      26.054   1.711  54.042  1.00  0.00     0.037 A 
HETATM   13  C15 UNL     1      25.448   2.535  53.103  1.00  0.00     0.010 A 
BRANCH  11  14
HETATM   14  O1  UNL     1      27.319  -0.130  54.685  1.00  0.00    -0.356 OA
HETATM   15  C1  UNL     1      28.720  -0.078  54.863  1.00  0.00     0.210 C 
ENDBRANCH  11  14
ENDBRANCH   7   8
ENDBRANCH   1   7
BRANCH   4  16
HETATM   16  S1  UNL     1      20.186   1.964  52.389  1.00  0.00     0.143 S 
HETATM   17  O4  UNL     1      19.290   1.539  51.245  1.00  0.00    -0.243 OA
BRANCH  16  18
HETATM   18  C9  UNL     1      20.908   0.569  53.213  1.00  0.00     0.041 A 
HETATM   19  C10 UNL     1      20.008  -0.446  53.527  1.00  0.00     0.021 A 
HETATM   20  C11 UNL     1      20.531  -1.568  54.178  1.00  0.00     0.001 A 
HETATM   21  C12 UNL     1      21.859  -1.700  54.509  1.00  0.00     0.000 A 
HETATM   22  C13 UNL     1      22.737  -0.667  54.183  1.00  0.00     0.001 A 
HETATM   23  C14 UNL     1      22.247   0.450  53.539  1.00  0.00     0.021 A 
ENDBRANCH  16  18
ENDBRANCH   4  16
TORSDOF 5
ENDMDL
