MODEL 1
REMARK VINA RESULT:      -7.1      0.000      0.000
REMARK  6 active torsions:
REMARK  status: ('A' for Active; 'I' for Inactive)
REMARK    1  A    between atoms: N1_2  and  C3_4 
REMARK    2  A    between atoms: C3_4  and  P1_5 
REMARK    3  A    between atoms: P1_5  and  C4_6 
REMARK    4  A    between atoms: C5_7  and  C6_8 
REMARK    5  A    between atoms: C9_13  and  N4_14 
REMARK    6  A    between atoms: N4_14  and  C10_15 
ROOT
HETATM    1  C6  UNL     1      27.116   1.059  52.843  1.00  0.00     0.028 A 
HETATM    2  C7  UNL     1      28.273   1.679  53.240  1.00  0.00     0.133 A 
HETATM    3  N2  UNL     1      28.879   1.248  54.360  1.00  0.00    -0.253 NA
HETATM    4  C8  UNL     1      28.346   0.235  55.049  1.00  0.00     0.234 A 
HETATM    5  N3  UNL     1      27.231  -0.339  54.639  1.00  0.00    -0.224 NA
HETATM    6  C9  UNL     1      26.553   0.017  53.540  1.00  0.00     0.141 A 
ENDROOT
BRANCH   6   7
HETATM    7  N4  UNL     1      25.354  -0.587  53.080  1.00  0.00    -0.340 N 
HETATM    8  H12 UNL     1      25.451  -1.309  52.317  1.00  0.00     0.167 HD
BRANCH   7   9
HETATM    9  C10 UNL     1      24.017  -0.363  53.498  1.00  0.00     0.035 A 
HETATM   10  C11 UNL     1      23.453  -1.089  54.543  1.00  0.00     0.032 A 
HETATM   11  C12 UNL     1      22.161  -0.881  54.959  1.00  0.00     0.046 A 
HETATM   12  C13 UNL     1      21.357   0.059  54.356  1.00  0.00     0.138 A 
HETATM   13  F1  UNL     1      20.088   0.246  54.782  1.00  0.00    -0.204 F 
HETATM   14  C14 UNL     1      21.863   0.808  53.315  1.00  0.00     0.074 A 
HETATM   15 CL1  UNL     1      20.857   2.010  52.536  1.00  0.00    -0.081 Cl
HETATM   16  C15 UNL     1      23.162   0.560  52.939  1.00  0.00     0.056 A 
ENDBRANCH   7   9
ENDBRANCH   6   7
BRANCH   1  17
HETATM   17  C5  UNL     1      26.478   1.544  51.628  1.00  0.00     0.018 C 
HETATM   18  C4  UNL     1      26.843   2.719  51.152  1.00  0.00     0.018 C 
BRANCH  18  19
HETATM   19  P1  UNL     1      26.334   3.692  49.711  1.00  0.00    -0.017 P 
BRANCH  19  20
HETATM   20  C3  UNL     1      24.883   4.430  49.520  1.00  0.00     0.100 C 
BRANCH  20  21
HETATM   21  N1  UNL     1      23.875   3.792  50.311  1.00  0.00    -0.397 N 
HETATM   22  C1  UNL     1      23.517   4.266  51.650  1.00  0.00     0.148 C 
HETATM   23  C2  UNL     1      23.151   2.636  49.828  1.00  0.00     0.148 C 
ENDBRANCH  20  21
ENDBRANCH  19  20
ENDBRANCH  18  19
ENDBRANCH   1  17
TORSDOF 6
ENDMDL
MODEL 2
REMARK VINA RESULT:      -6.9      3.595      5.669
REMARK  6 active torsions:
REMARK  status: ('A' for Active; 'I' for Inactive)
REMARK    1  A    between atoms: N1_2  and  C3_4 
REMARK    2  A    between atoms: C3_4  and  P1_5 
REMARK    3  A    between atoms: P1_5  and  C4_6 
REMARK    4  A    between atoms: C5_7  and  C6_8 
REMARK    5  A    between atoms: C9_13  and  N4_14 
REMARK    6  A    between atoms: N4_14  and  C10_15 
ROOT
HETATM    1  C6  UNL     1      26.704   0.665  53.273  1.00  0.00     0.028 A 
HETATM    2  C7  UNL     1      27.315   0.515  54.491  1.00  0.00     0.133 A 
HETATM    3  N2  UNL     1      28.376   1.288  54.775  1.00  0.00    -0.253 NA
HETATM    4  C8  UNL     1      28.804   2.176  53.873  1.00  0.00     0.234 A 
HETATM    5  N3  UNL     1      28.193   2.294  52.709  1.00  0.00    -0.224 NA
HETATM    6  C9  UNL     1      27.130   1.571  52.332  1.00  0.00     0.141 A 
ENDROOT
BRANCH   6   7
HETATM    7  N4  UNL     1      26.458   1.683  51.088  1.00  0.00    -0.340 N 
HETATM    8  H12 UNL     1      26.272   0.783  50.569  1.00  0.00     0.167 HD
BRANCH   7   9
HETATM    9  C10 UNL     1      25.988   2.843  50.420  1.00  0.00     0.035 A 
HETATM   10  C11 UNL     1      24.633   3.161  50.386  1.00  0.00     0.032 A 
HETATM   11  C12 UNL     1      24.165   4.280  49.745  1.00  0.00     0.046 A 
HETATM   12  C13 UNL     1      25.019   5.147  49.101  1.00  0.00     0.138 A 
HETATM   13  F1  UNL     1      24.535   6.244  48.476  1.00  0.00    -0.204 F 
HETATM   14  C14 UNL     1      26.372   4.883  49.103  1.00  0.00     0.074 A 
HETATM   15 CL1  UNL     1      27.475   5.972  48.291  1.00  0.00    -0.081 Cl
HETATM   16  C15 UNL     1      26.787   3.749  49.760  1.00  0.00     0.056 A 
ENDBRANCH   7   9
ENDBRANCH   6   7
BRANCH   1  17
HETATM   17  C5  UNL     1      25.556  -0.184  52.989  1.00  0.00     0.018 C 
HETATM   18  C4  UNL     1      24.422   0.058  53.618  1.00  0.00     0.018 C 
BRANCH  18  19
HETATM   19  P1  UNL     1      22.786  -0.717  53.581  1.00  0.00    -0.017 P 
BRANCH  19  20
HETATM   20  C3  UNL     1      21.472  -0.220  54.425  1.00  0.00     0.100 C 
BRANCH  20  21
HETATM   21  N1  UNL     1      20.457   0.277  53.545  1.00  0.00    -0.397 N 
HETATM   22  C1  UNL     1      19.281  -0.517  53.183  1.00  0.00     0.148 C 
HETATM   23  C2  UNL     1      20.540   1.599  52.962  1.00  0.00     0.148 C 
ENDBRANCH  20  21
ENDBRANCH  19  20
ENDBRANCH  18  19
ENDBRANCH   1  17
TORSDOF 6
ENDMDL
MODEL 3
REMARK VINA RESULT:      -6.7      3.511      5.470
REMARK  6 active torsions:
REMARK  status: ('A' for Active; 'I' for Inactive)
REMARK    1  A    between atoms: N1_2  and  C3_4 
REMARK    2  A    between atoms: C3_4  and  P1_5 
REMARK    3  A    between atoms: P1_5  and  C4_6 
REMARK    4  A    between atoms: C5_7  and  C6_8 
REMARK    5  A    between atoms: C9_13  and  N4_14 
REMARK    6  A    between atoms: N4_14  and  C10_15 
ROOT
HETATM    1  C6  UNL     1      22.472   0.118  53.277  1.00  0.00     0.028 A 
HETATM    2  C7  UNL     1      21.367  -0.348  53.941  1.00  0.00     0.133 A 
HETATM    3  N2  UNL     1      21.548  -1.162  54.995  1.00  0.00    -0.253 NA
HETATM    4  C8  UNL     1      22.789  -1.493  55.366  1.00  0.00     0.234 A 
HETATM    5  N3  UNL     1      23.831  -1.027  54.703  1.00  0.00    -0.224 NA
HETATM    6  C9  UNL     1      23.755  -0.212  53.642  1.00  0.00     0.141 A 
ENDROOT
BRANCH   6   7
HETATM    7  N4  UNL     1      24.861   0.301  52.917  1.00  0.00    -0.340 N 
HETATM    8  H12 UNL     1      24.639   0.927  52.097  1.00  0.00     0.167 HD
BRANCH   7   9
HETATM    9  C10 UNL     1      26.248   0.096  53.129  1.00  0.00     0.035 A 
HETATM   10  C11 UNL     1      26.852  -1.126  52.842  1.00  0.00     0.032 A 
HETATM   11  C12 UNL     1      28.193  -1.338  53.041  1.00  0.00     0.046 A 
HETATM   12  C13 UNL     1      29.010  -0.347  53.539  1.00  0.00     0.138 A 
HETATM   13  F1  UNL     1      30.328  -0.580  53.727  1.00  0.00    -0.204 F 
HETATM   14  C14 UNL     1      28.466   0.882  53.840  1.00  0.00     0.074 A 
HETATM   15 CL1  UNL     1      29.486   2.155  54.474  1.00  0.00    -0.081 Cl
HETATM   16  C15 UNL     1      27.118   1.042  53.622  1.00  0.00     0.056 A 
ENDBRANCH   7   9
ENDBRANCH   6   7
BRANCH   1  17
HETATM   17  C5  UNL     1      22.249   0.998  52.139  1.00  0.00     0.018 C 
HETATM   18  C4  UNL     1      21.490   2.064  52.307  1.00  0.00     0.018 C 
BRANCH  18  19
HETATM   19  P1  UNL     1      20.954   3.398  51.205  1.00  0.00    -0.017 P 
BRANCH  19  20
HETATM   20  C3  UNL     1      21.866   4.102  50.040  1.00  0.00     0.100 C 
BRANCH  20  21
HETATM   21  N1  UNL     1      23.241   4.168  50.436  1.00  0.00    -0.397 N 
HETATM   22  C1  UNL     1      24.271   3.327  49.825  1.00  0.00     0.148 C 
HETATM   23  C2  UNL     1      23.688   5.076  51.471  1.00  0.00     0.148 C 
ENDBRANCH  20  21
ENDBRANCH  19  20
ENDBRANCH  18  19
ENDBRANCH   1  17
TORSDOF 6
ENDMDL
MODEL 4
REMARK VINA RESULT:      -6.4      3.507      5.454
REMARK  6 active torsions:
REMARK  status: ('A' for Active; 'I' for Inactive)
REMARK    1  A    between atoms: N1_2  and  C3_4 
REMARK    2  A    between atoms: C3_4  and  P1_5 
REMARK    3  A    between atoms: P1_5  and  C4_6 
REMARK    4  A    between atoms: C5_7  and  C6_8 
REMARK    5  A    between atoms: C9_13  and  N4_14 
REMARK    6  A    between atoms: N4_14  and  C10_15 
ROOT
HETATM    1  C6  UNL     1      23.505   1.304  52.105  1.00  0.00     0.028 A 
HETATM    2  C7  UNL     1      22.284   0.757  51.805  1.00  0.00     0.133 A 
HETATM    3  N2  UNL     1      21.874  -0.317  52.501  1.00  0.00    -0.253 NA
HETATM    4  C8  UNL     1      22.658  -0.819  53.460  1.00  0.00     0.234 A 
HETATM    5  N3  UNL     1      23.829  -0.268  53.722  1.00  0.00    -0.224 NA
HETATM    6  C9  UNL     1      24.326   0.801  53.086  1.00  0.00     0.141 A 
ENDROOT
BRANCH   6   7
HETATM    7  N4  UNL     1      25.580   1.410  53.353  1.00  0.00    -0.340 N 
HETATM    8  H12 UNL     1      25.575   2.454  53.504  1.00  0.00     0.167 HD
BRANCH   7   9
HETATM    9  C10 UNL     1      26.864   0.816  53.448  1.00  0.00     0.035 A 
HETATM   10  C11 UNL     1      27.984   1.565  53.802  1.00  0.00     0.032 A 
HETATM   11  C12 UNL     1      29.233   1.004  53.899  1.00  0.00     0.046 A 
HETATM   12  C13 UNL     1      29.438  -0.334  53.648  1.00  0.00     0.138 A 
HETATM   13  F1  UNL     1      30.677  -0.865  53.750  1.00  0.00    -0.204 F 
HETATM   14  C14 UNL     1      28.366  -1.124  53.295  1.00  0.00     0.074 A 
HETATM   15 CL1  UNL     1      28.606  -2.827  52.972  1.00  0.00    -0.081 Cl
HETATM   16  C15 UNL     1      27.138  -0.512  53.212  1.00  0.00     0.056 A 
ENDBRANCH   7   9
ENDBRANCH   6   7
BRANCH   1  17
HETATM   17  C5  UNL     1      23.926   2.466  51.337  1.00  0.00     0.018 C 
HETATM   18  C4  UNL     1      23.243   2.787  50.255  1.00  0.00     0.018 C 
BRANCH  18  19
HETATM   19  P1  UNL     1      23.400   4.111  49.029  1.00  0.00    -0.017 P 
BRANCH  19  20
HETATM   20  C3  UNL     1      24.596   5.231  48.978  1.00  0.00     0.100 C 
BRANCH  20  21
HETATM   21  N1  UNL     1      24.403   6.231  49.984  1.00  0.00    -0.397 N 
HETATM   22  C1  UNL     1      23.124   6.408  50.674  1.00  0.00     0.148 C 
HETATM   23  C2  UNL     1      25.470   7.129  50.374  1.00  0.00     0.148 C 
ENDBRANCH  20  21
ENDBRANCH  19  20
ENDBRANCH  18  19
ENDBRANCH   1  17
TORSDOF 6
ENDMDL
MODEL 5
REMARK VINA RESULT:      -6.3      1.259      1.364
REMARK  6 active torsions:
REMARK  status: ('A' for Active; 'I' for Inactive)
REMARK    1  A    between atoms: N1_2  and  C3_4 
REMARK    2  A    between atoms: C3_4  and  P1_5 
REMARK    3  A    between atoms: P1_5  and  C4_6 
REMARK    4  A    between atoms: C5_7  and  C6_8 
REMARK    5  A    between atoms: C9_13  and  N4_14 
REMARK    6  A    between atoms: N4_14  and  C10_15 
ROOT
HETATM    1  C6  UNL     1      26.575   1.095  52.846  1.00  0.00     0.028 A 
HETATM    2  C7  UNL     1      27.649   1.807  53.313  1.00  0.00     0.133 A 
HETATM    3  N2  UNL     1      28.315   1.337  54.382  1.00  0.00    -0.253 NA
HETATM    4  C8  UNL     1      27.917   0.198  54.956  1.00  0.00     0.234 A 
HETATM    5  N3  UNL     1      26.877  -0.462  54.481  1.00  0.00    -0.224 NA
HETATM    6  C9  UNL     1      26.150  -0.078  53.424  1.00  0.00     0.141 A 
ENDROOT
BRANCH   6   7
HETATM    7  N4  UNL     1      25.031  -0.772  52.897  1.00  0.00    -0.340 N 
HETATM    8  H12 UNL     1      25.233  -1.514  52.175  1.00  0.00     0.167 HD
BRANCH   7   9
HETATM    9  C10 UNL     1      23.654  -0.618  53.199  1.00  0.00     0.035 A 
HETATM   10  C11 UNL     1      23.165  -0.835  54.484  1.00  0.00     0.032 A 
HETATM   11  C12 UNL     1      21.835  -0.688  54.791  1.00  0.00     0.046 A 
HETATM   12  C13 UNL     1      20.916  -0.318  53.834  1.00  0.00     0.138 A 
HETATM   13  F1  UNL     1      19.611  -0.179  54.160  1.00  0.00    -0.204 F 
HETATM   14  C14 UNL     1      21.344  -0.089  52.545  1.00  0.00     0.074 A 
HETATM   15 CL1  UNL     1      20.192   0.383  51.315  1.00  0.00    -0.081 Cl
HETATM   16  C15 UNL     1      22.685  -0.250  52.292  1.00  0.00     0.056 A 
ENDBRANCH   7   9
ENDBRANCH   6   7
BRANCH   1  17
HETATM   17  C5  UNL     1      25.871   1.625  51.688  1.00  0.00     0.018 C 
HETATM   18  C4  UNL     1      25.169   2.733  51.830  1.00  0.00     0.018 C 
BRANCH  18  19
HETATM   19  P1  UNL     1      24.162   3.725  50.697  1.00  0.00    -0.017 P 
BRANCH  19  20
HETATM   20  C3  UNL     1      23.783   3.324  49.154  1.00  0.00     0.100 C 
BRANCH  20  21
HETATM   21  N1  UNL     1      22.437   2.841  49.067  1.00  0.00    -0.397 N 
HETATM   22  C1  UNL     1      21.362   3.369  49.909  1.00  0.00     0.148 C 
HETATM   23  C2  UNL     1      22.066   1.798  48.134  1.00  0.00     0.148 C 
ENDBRANCH  20  21
ENDBRANCH  19  20
ENDBRANCH  18  19
ENDBRANCH   1  17
TORSDOF 6
ENDMDL
MODEL 6
REMARK VINA RESULT:      -6.3      3.622      6.941
REMARK  6 active torsions:
REMARK  status: ('A' for Active; 'I' for Inactive)
REMARK    1  A    between atoms: N1_2  and  C3_4 
REMARK    2  A    between atoms: C3_4  and  P1_5 
REMARK    3  A    between atoms: P1_5  and  C4_6 
REMARK    4  A    between atoms: C5_7  and  C6_8 
REMARK    5  A    between atoms: C9_13  and  N4_14 
REMARK    6  A    between atoms: N4_14  and  C10_15 
ROOT
HETATM    1  C6  UNL     1      22.620   1.324  52.034  1.00  0.00     0.028 A 
HETATM    2  C7  UNL     1      21.728   0.289  51.909  1.00  0.00     0.133 A 
HETATM    3  N2  UNL     1      20.722   0.413  51.027  1.00  0.00    -0.253 NA
HETATM    4  C8  UNL     1      20.617   1.529  50.300  1.00  0.00     0.234 A 
HETATM    5  N3  UNL     1      21.492   2.506  50.446  1.00  0.00    -0.224 NA
HETATM    6  C9  UNL     1      22.527   2.479  51.296  1.00  0.00     0.141 A 
ENDROOT
BRANCH   6   7
HETATM    7  N4  UNL     1      23.479   3.517  51.468  1.00  0.00    -0.340 N 
HETATM    8  H12 UNL     1      23.363   4.128  52.320  1.00  0.00     0.167 HD
BRANCH   7   9
HETATM    9  C10 UNL     1      24.586   3.866  50.652  1.00  0.00     0.035 A 
HETATM   10  C11 UNL     1      25.685   3.022  50.521  1.00  0.00     0.032 A 
HETATM   11  C12 UNL     1      26.762   3.346  49.734  1.00  0.00     0.046 A 
HETATM   12  C13 UNL     1      26.806   4.530  49.033  1.00  0.00     0.138 A 
HETATM   13  F1  UNL     1      27.877   4.828  48.264  1.00  0.00    -0.204 F 
HETATM   14  C14 UNL     1      25.745   5.404  49.124  1.00  0.00     0.074 A 
HETATM   15 CL1  UNL     1      25.781   6.915  48.241  1.00  0.00    -0.081 Cl
HETATM   16  C15 UNL     1      24.692   5.031  49.926  1.00  0.00     0.056 A 
ENDBRANCH   7   9
ENDBRANCH   6   7
BRANCH   1  17
HETATM   17  C5  UNL     1      23.700   1.165  52.995  1.00  0.00     0.018 C 
HETATM   18  C4  UNL     1      24.530   0.150  52.848  1.00  0.00     0.018 C 
BRANCH  18  19
HETATM   19  P1  UNL     1      25.975  -0.423  53.778  1.00  0.00    -0.017 P 
BRANCH  19  20
HETATM   20  C3  UNL     1      26.923   0.505  54.742  1.00  0.00     0.100 C 
BRANCH  20  21
HETATM   21  N1  UNL     1      28.119   0.896  54.060  1.00  0.00    -0.397 N 
HETATM   22  C1  UNL     1      28.263   2.208  53.426  1.00  0.00     0.148 C 
HETATM   23  C2  UNL     1      29.259   0.009  53.959  1.00  0.00     0.148 C 
ENDBRANCH  20  21
ENDBRANCH  19  20
ENDBRANCH  18  19
ENDBRANCH   1  17
TORSDOF 6
ENDMDL
MODEL 7
REMARK VINA RESULT:      -6.2      3.407      5.354
REMARK  6 active torsions:
REMARK  status: ('A' for Active; 'I' for Inactive)
REMARK    1  A    between atoms: N1_2  and  C3_4 
REMARK    2  A    between atoms: C3_4  and  P1_5 
REMARK    3  A    between atoms: P1_5  and  C4_6 
REMARK    4  A    between atoms: C5_7  and  C6_8 
REMARK    5  A    between atoms: C9_13  and  N4_14 
REMARK    6  A    between atoms: N4_14  and  C10_15 
ROOT
HETATM    1  C6  UNL     1      25.222   0.444  53.601  1.00  0.00     0.028 A 
HETATM    2  C7  UNL     1      25.930  -0.679  53.946  1.00  0.00     0.133 A 
HETATM    3  N2  UNL     1      27.205  -0.534  54.346  1.00  0.00    -0.253 NA
HETATM    4  C8  UNL     1      27.745   0.687  54.399  1.00  0.00     0.234 A 
HETATM    5  N3  UNL     1      27.034   1.746  54.058  1.00  0.00    -0.224 NA
HETATM    6  C9  UNL     1      25.760   1.707  53.647  1.00  0.00     0.141 A 
ENDROOT
BRANCH   6   7
HETATM    7  N4  UNL     1      24.979   2.833  53.278  1.00  0.00    -0.340 N 
HETATM    8  H12 UNL     1      24.643   3.452  54.063  1.00  0.00     0.167 HD
BRANCH   7   9
HETATM    9  C10 UNL     1      24.571   3.260  51.989  1.00  0.00     0.035 A 
HETATM   10  C11 UNL     1      25.375   3.056  50.870  1.00  0.00     0.032 A 
HETATM   11  C12 UNL     1      24.993   3.463  49.616  1.00  0.00     0.046 A 
HETATM   12  C13 UNL     1      23.789   4.097  49.405  1.00  0.00     0.138 A 
HETATM   13  F1  UNL     1      23.434   4.489  48.161  1.00  0.00    -0.204 F 
HETATM   14  C14 UNL     1      22.952   4.325  50.476  1.00  0.00     0.074 A 
HETATM   15 CL1  UNL     1      21.418   5.129  50.228  1.00  0.00    -0.081 Cl
HETATM   16  C15 UNL     1      23.383   3.897  51.709  1.00  0.00     0.056 A 
ENDBRANCH   7   9
ENDBRANCH   6   7
BRANCH   1  17
HETATM   17  C5  UNL     1      23.844   0.261  53.171  1.00  0.00     0.018 C 
HETATM   18  C4  UNL     1      23.022  -0.407  53.958  1.00  0.00     0.018 C 
BRANCH  18  19
HETATM   19  P1  UNL     1      21.274  -0.865  53.832  1.00  0.00    -0.017 P 
BRANCH  19  20
HETATM   20  C3  UNL     1      20.034   0.164  53.530  1.00  0.00     0.100 C 
BRANCH  20  21
HETATM   21  N1  UNL     1      18.968  -0.506  52.849  1.00  0.00    -0.397 N 
HETATM   22  C1  UNL     1      18.538  -0.122  51.503  1.00  0.00     0.148 C 
HETATM   23  C2  UNL     1      18.252  -1.607  53.459  1.00  0.00     0.148 C 
ENDBRANCH  20  21
ENDBRANCH  19  20
ENDBRANCH  18  19
ENDBRANCH   1  17
TORSDOF 6
ENDMDL
MODEL 8
REMARK VINA RESULT:      -6.2      3.737      5.629
REMARK  6 active torsions:
REMARK  status: ('A' for Active; 'I' for Inactive)
REMARK    1  A    between atoms: N1_2  and  C3_4 
REMARK    2  A    between atoms: C3_4  and  P1_5 
REMARK    3  A    between atoms: P1_5  and  C4_6 
REMARK    4  A    between atoms: C5_7  and  C6_8 
REMARK    5  A    between atoms: C9_13  and  N4_14 
REMARK    6  A    between atoms: N4_14  and  C10_15 
ROOT
HETATM    1  C6  UNL     1      22.577   0.582  52.913  1.00  0.00     0.028 A 
HETATM    2  C7  UNL     1      21.374   0.502  53.567  1.00  0.00     0.133 A 
HETATM    3  N2  UNL     1      21.283  -0.298  54.644  1.00  0.00    -0.253 NA
HETATM    4  C8  UNL     1      22.355  -0.987  55.046  1.00  0.00     0.234 A 
HETATM    5  N3  UNL     1      23.497  -0.887  54.392  1.00  0.00    -0.224 NA
HETATM    6  C9  UNL     1      23.690  -0.119  53.311  1.00  0.00     0.141 A 
ENDROOT
BRANCH   6   7
HETATM    7  N4  UNL     1      24.908   0.004  52.594  1.00  0.00    -0.340 N 
HETATM    8  H12 UNL     1      24.884  -0.262  51.573  1.00  0.00     0.167 HD
BRANCH   7   9
HETATM    9  C10 UNL     1      26.179   0.437  53.051  1.00  0.00     0.035 A 
HETATM   10  C11 UNL     1      26.403   1.759  53.424  1.00  0.00     0.032 A 
HETATM   11  C12 UNL     1      27.627   2.193  53.869  1.00  0.00     0.046 A 
HETATM   12  C13 UNL     1      28.699   1.334  53.965  1.00  0.00     0.138 A 
HETATM   13  F1  UNL     1      29.895   1.783  54.406  1.00  0.00    -0.204 F 
HETATM   14  C14 UNL     1      28.535   0.013  53.609  1.00  0.00     0.074 A 
HETATM   15 CL1  UNL     1      29.885  -1.095  53.724  1.00  0.00    -0.081 Cl
HETATM   16  C15 UNL     1      27.289  -0.368  53.171  1.00  0.00     0.056 A 
ENDBRANCH   7   9
ENDBRANCH   6   7
BRANCH   1  17
HETATM   17  C5  UNL     1      22.651   1.455  51.751  1.00  0.00     0.018 C 
HETATM   18  C4  UNL     1      22.193   2.687  51.859  1.00  0.00     0.018 C 
BRANCH  18  19
HETATM   19  P1  UNL     1      22.084   4.081  50.708  1.00  0.00    -0.017 P 
BRANCH  19  20
HETATM   20  C3  UNL     1      22.126   5.668  51.119  1.00  0.00     0.100 C 
BRANCH  20  21
HETATM   21  N1  UNL     1      21.097   6.399  50.444  1.00  0.00    -0.397 N 
HETATM   22  C1  UNL     1      19.956   5.736  49.809  1.00  0.00     0.148 C 
HETATM   23  C2  UNL     1      21.129   7.844  50.353  1.00  0.00     0.148 C 
ENDBRANCH  20  21
ENDBRANCH  19  20
ENDBRANCH  18  19
ENDBRANCH   1  17
TORSDOF 6
ENDMDL
MODEL 9
REMARK VINA RESULT:      -6.2      3.848      6.050
REMARK  6 active torsions:
REMARK  status: ('A' for Active; 'I' for Inactive)
REMARK    1  A    between atoms: N1_2  and  C3_4 
REMARK    2  A    between atoms: C3_4  and  P1_5 
REMARK    3  A    between atoms: P1_5  and  C4_6 
REMARK    4  A    between atoms: C5_7  and  C6_8 
REMARK    5  A    between atoms: C9_13  and  N4_14 
REMARK    6  A    between atoms: N4_14  and  C10_15 
ROOT
HETATM    1  C6  UNL     1      25.804   1.815  52.508  1.00  0.00     0.028 A 
HETATM    2  C7  UNL     1      26.022   1.438  53.808  1.00  0.00     0.133 A 
HETATM    3  N2  UNL     1      27.248   1.615  54.330  1.00  0.00    -0.253 NA
HETATM    4  C8  UNL     1      28.213   2.151  53.577  1.00  0.00     0.234 A 
HETATM    5  N3  UNL     1      27.969   2.502  52.328  1.00  0.00    -0.224 NA
HETATM    6  C9  UNL     1      26.784   2.367  51.718  1.00  0.00     0.141 A 
ENDROOT
BRANCH   6   7
HETATM    7  N4  UNL     1      26.499   2.739  50.379  1.00  0.00    -0.340 N 
HETATM    8  H12 UNL     1      26.314   1.953  49.700  1.00  0.00     0.167 HD
BRANCH   7   9
HETATM    9  C10 UNL     1      26.425   4.032  49.802  1.00  0.00     0.035 A 
HETATM   10  C11 UNL     1      27.416   4.501  48.943  1.00  0.00     0.032 A 
HETATM   11  C12 UNL     1      27.357   5.749  48.377  1.00  0.00     0.046 A 
HETATM   12  C13 UNL     1      26.308   6.604  48.634  1.00  0.00     0.138 A 
HETATM   13  F1  UNL     1      26.271   7.829  48.065  1.00  0.00    -0.204 F 
HETATM   14  C14 UNL     1      25.298   6.193  49.477  1.00  0.00     0.074 A 
HETATM   15 CL1  UNL     1      23.956   7.263  49.817  1.00  0.00    -0.081 Cl
HETATM   16  C15 UNL     1      25.407   4.933  50.017  1.00  0.00     0.056 A 
ENDBRANCH   7   9
ENDBRANCH   6   7
BRANCH   1  17
HETATM   17  C5  UNL     1      24.468   1.613  51.967  1.00  0.00     0.018 C 
HETATM   18  C4  UNL     1      23.488   1.322  52.800  1.00  0.00     0.018 C 
BRANCH  18  19
HETATM   19  P1  UNL     1      21.720   0.996  52.580  1.00  0.00    -0.017 P 
BRANCH  19  20
HETATM   20  C3  UNL     1      20.669   1.941  51.750  1.00  0.00     0.100 C 
BRANCH  20  21
HETATM   21  N1  UNL     1      20.413   1.400  50.449  1.00  0.00    -0.397 N 
HETATM   22  C1  UNL     1      19.058   1.273  49.908  1.00  0.00     0.148 C 
HETATM   23  C2  UNL     1      21.488   0.946  49.592  1.00  0.00     0.148 C 
ENDBRANCH  20  21
ENDBRANCH  19  20
ENDBRANCH  18  19
ENDBRANCH   1  17
TORSDOF 6
ENDMDL
