MODEL 1
REMARK VINA RESULT:      -8.4      0.000      0.000
REMARK  3 active torsions:
REMARK  status: ('A' for Active; 'I' for Inactive)
REMARK    1  A    between atoms: C2_2  and  C3_3 
REMARK    2  A    between atoms: C4_5  and  C5_6 
REMARK    3  A    between atoms: C6_7  and  C7_8 
ROOT
HETATM    1  C7  UNL     1      26.591   3.280  50.707  1.00  0.00     0.139 A 
HETATM    2  N1  UNL     1      26.619   3.515  49.301  1.00  0.00    -0.363 N 
HETATM    3  C8  UNL     1      25.414   4.269  49.285  1.00  0.00     0.130 A 
HETATM    4  C9  UNL     1      25.343   4.076  50.593  1.00  0.00    -0.007 A 
HETATM    5  C10 UNL     1      24.232   4.631  51.349  1.00  0.00     0.054 C 
HETATM    6  C11 UNL     1      23.422   3.640  52.144  1.00  0.00    -0.015 C 
HETATM    7  C12 UNL     1      22.334   4.493  52.816  1.00  0.00     0.020 C 
HETATM    8  C13 UNL     1      24.257   3.046  53.255  1.00  0.00     0.020 C 
HETATM    9  C14 UNL     1      22.733   2.617  51.361  1.00  0.00    -0.023 A 
HETATM   10  C15 UNL     1      22.029   1.753  52.178  1.00  0.00     0.010 A 
HETATM   11  C16 UNL     1      21.289   0.689  51.719  1.00  0.00     0.001 A 
HETATM   12  C17 UNL     1      21.216   0.432  50.370  1.00  0.00     0.002 A 
HETATM   13  C18 UNL     1      21.925   1.305  49.562  1.00  0.00     0.030 A 
HETATM   14  C19 UNL     1      22.671   2.375  50.008  1.00  0.00     0.040 A 
HETATM   15  N2  UNL     1      23.297   3.126  48.978  1.00  0.00    -0.350 N 
HETATM   16  C20 UNL     1      23.216   4.449  48.442  1.00  0.00     0.209 C 
HETATM   17  N3  UNL     1      24.376   5.030  48.628  1.00  0.00    -0.226 NA
HETATM   18  H8  UNL     1      27.301   3.220  48.575  1.00  0.00     0.162 HD
HETATM   19  H21 UNL     1      23.997   2.475  48.521  1.00  0.00     0.166 HD
ENDROOT
BRANCH   1  20
HETATM   20  C6  UNL     1      26.480   1.916  51.204  1.00  0.00     0.003 C 
HETATM   21  C5  UNL     1      27.061   1.416  52.287  1.00  0.00     0.001 C 
BRANCH  21  22
HETATM   22  C4  UNL     1      27.908   2.233  53.117  1.00  0.00     0.042 C 
HETATM   23  C3  UNL     1      28.856   1.706  53.867  1.00  0.00     0.112 C 
HETATM   24  F1  UNL     1      29.723   2.322  54.695  1.00  0.00    -0.206 F 
BRANCH  23  25
HETATM   25  C2  UNL     1      29.195   0.301  53.983  1.00  0.00     0.016 C 
HETATM   26  C1  UNL     1      29.890  -0.705  53.537  1.00  0.00     0.034 C 
ENDBRANCH  23  25
ENDBRANCH  21  22
ENDBRANCH   1  20
TORSDOF 3
ENDMDL
MODEL 2
REMARK VINA RESULT:      -8.3      1.926      3.118
REMARK  3 active torsions:
REMARK  status: ('A' for Active; 'I' for Inactive)
REMARK    1  A    between atoms: C2_2  and  C3_3 
REMARK    2  A    between atoms: C4_5  and  C5_6 
REMARK    3  A    between atoms: C6_7  and  C7_8 
ROOT
HETATM    1  C7  UNL     1      24.752   1.832  53.168  1.00  0.00     0.139 A 
HETATM    2  N1  UNL     1      25.207   3.183  53.200  1.00  0.00    -0.363 N 
HETATM    3  C8  UNL     1      23.917   3.745  53.000  1.00  0.00     0.130 A 
HETATM    4  C9  UNL     1      23.447   2.508  52.962  1.00  0.00    -0.007 A 
HETATM    5  C10 UNL     1      22.025   2.278  52.761  1.00  0.00     0.054 C 
HETATM    6  C11 UNL     1      21.662   1.412  51.583  1.00  0.00    -0.015 C 
HETATM    7  C12 UNL     1      20.126   1.355  51.614  1.00  0.00     0.020 C 
HETATM    8  C13 UNL     1      22.154  -0.001  51.795  1.00  0.00     0.020 C 
HETATM    9  C14 UNL     1      22.039   1.939  50.274  1.00  0.00    -0.023 A 
HETATM   10  C15 UNL     1      21.674   1.072  49.262  1.00  0.00     0.010 A 
HETATM   11  C16 UNL     1      21.906   1.302  47.926  1.00  0.00     0.001 A 
HETATM   12  C17 UNL     1      22.537   2.458  47.527  1.00  0.00     0.002 A 
HETATM   13  C18 UNL     1      22.897   3.320  48.549  1.00  0.00     0.030 A 
HETATM   14  C19 UNL     1      22.670   3.101  49.891  1.00  0.00     0.040 A 
HETATM   15  N2  UNL     1      23.127   4.143  50.742  1.00  0.00    -0.350 N 
HETATM   16  C20 UNL     1      22.551   5.101  51.634  1.00  0.00     0.209 C 
HETATM   17  N3  UNL     1      23.003   4.851  52.839  1.00  0.00    -0.226 NA
HETATM   18  H8  UNL     1      26.160   3.578  53.327  1.00  0.00     0.162 HD
HETATM   19  H21 UNL     1      24.180   4.167  50.642  1.00  0.00     0.166 HD
ENDROOT
BRANCH   1  20
HETATM   20  C6  UNL     1      25.225   0.941  52.118  1.00  0.00     0.003 C 
HETATM   21  C5  UNL     1      26.023  -0.109  52.268  1.00  0.00     0.001 C 
BRANCH  21  22
HETATM   22  C4  UNL     1      26.523  -0.481  53.566  1.00  0.00     0.042 C 
HETATM   23  C3  UNL     1      27.577   0.108  54.096  1.00  0.00     0.112 C 
HETATM   24  F1  UNL     1      28.168  -0.121  55.285  1.00  0.00    -0.206 F 
BRANCH  23  25
HETATM   25  C2  UNL     1      28.372   1.167  53.505  1.00  0.00     0.016 C 
HETATM   26  C1  UNL     1      28.708   2.424  53.506  1.00  0.00     0.034 C 
ENDBRANCH  23  25
ENDBRANCH  21  22
ENDBRANCH   1  20
TORSDOF 3
ENDMDL
MODEL 3
REMARK VINA RESULT:      -7.7      2.674      3.904
REMARK  3 active torsions:
REMARK  status: ('A' for Active; 'I' for Inactive)
REMARK    1  A    between atoms: C2_2  and  C3_3 
REMARK    2  A    between atoms: C4_5  and  C5_6 
REMARK    3  A    between atoms: C6_7  and  C7_8 
ROOT
HETATM    1  C7  UNL     1      24.271   2.053  53.289  1.00  0.00     0.139 A 
HETATM    2  N1  UNL     1      24.977   3.288  53.181  1.00  0.00    -0.363 N 
HETATM    3  C8  UNL     1      23.839   4.037  52.774  1.00  0.00     0.130 A 
HETATM    4  C9  UNL     1      23.142   2.916  52.859  1.00  0.00    -0.007 A 
HETATM    5  C10 UNL     1      21.721   2.919  52.547  1.00  0.00     0.054 C 
HETATM    6  C11 UNL     1      21.285   1.962  51.468  1.00  0.00    -0.015 C 
HETATM    7  C12 UNL     1      19.770   2.190  51.350  1.00  0.00     0.020 C 
HETATM    8  C13 UNL     1      21.476   0.533  51.922  1.00  0.00     0.020 C 
HETATM    9  C14 UNL     1      21.854   2.202  50.145  1.00  0.00    -0.023 A 
HETATM   10  C15 UNL     1      21.404   1.270  49.231  1.00  0.00     0.010 A 
HETATM   11  C16 UNL     1      21.775   1.245  47.906  1.00  0.00     0.001 A 
HETATM   12  C17 UNL     1      22.647   2.191  47.419  1.00  0.00     0.002 A 
HETATM   13  C18 UNL     1      23.090   3.121  48.344  1.00  0.00     0.030 A 
HETATM   14  C19 UNL     1      22.726   3.157  49.673  1.00  0.00     0.040 A 
HETATM   15  N2  UNL     1      23.312   4.218  50.415  1.00  0.00    -0.350 N 
HETATM   16  C20 UNL     1      22.869   5.391  51.102  1.00  0.00     0.209 C 
HETATM   17  N3  UNL     1      23.172   5.252  52.369  1.00  0.00    -0.226 NA
HETATM   18  H8  UNL     1      25.976   3.518  53.349  1.00  0.00     0.162 HD
HETATM   19  H21 UNL     1      24.355   4.034  50.420  1.00  0.00     0.166 HD
ENDROOT
BRANCH   1  20
HETATM   20  C6  UNL     1      24.639   0.940  52.426  1.00  0.00     0.003 C 
HETATM   21  C5  UNL     1      25.254  -0.178  52.791  1.00  0.00     0.001 C 
BRANCH  21  22
HETATM   22  C4  UNL     1      25.636  -0.399  54.162  1.00  0.00     0.042 C 
HETATM   23  C3  UNL     1      24.787  -0.883  55.046  1.00  0.00     0.112 C 
HETATM   24  F1  UNL     1      24.980  -1.144  56.354  1.00  0.00    -0.206 F 
BRANCH  23  25
HETATM   25  C2  UNL     1      23.404  -1.255  54.813  1.00  0.00     0.016 C 
HETATM   26  C1  UNL     1      22.145  -0.970  54.971  1.00  0.00     0.034 C 
ENDBRANCH  23  25
ENDBRANCH  21  22
ENDBRANCH   1  20
TORSDOF 3
ENDMDL
MODEL 4
REMARK VINA RESULT:      -7.4      3.822      6.751
REMARK  3 active torsions:
REMARK  status: ('A' for Active; 'I' for Inactive)
REMARK    1  A    between atoms: C2_2  and  C3_3 
REMARK    2  A    between atoms: C4_5  and  C5_6 
REMARK    3  A    between atoms: C6_7  and  C7_8 
ROOT
HETATM    1  C7  UNL     1      20.730   1.174  50.790  1.00  0.00     0.139 A 
HETATM    2  N1  UNL     1      20.145   0.104  51.528  1.00  0.00    -0.363 N 
HETATM    3  C8  UNL     1      20.690   0.510  52.776  1.00  0.00     0.130 A 
HETATM    4  C9  UNL     1      21.256   1.520  52.135  1.00  0.00    -0.007 A 
HETATM    5  C10 UNL     1      22.075   2.476  52.864  1.00  0.00     0.054 C 
HETATM    6  C11 UNL     1      23.487   2.642  52.367  1.00  0.00    -0.015 C 
HETATM    7  C12 UNL     1      24.102   3.684  53.316  1.00  0.00     0.020 C 
HETATM    8  C13 UNL     1      23.491   3.256  50.986  1.00  0.00     0.020 C 
HETATM    9  C14 UNL     1      24.327   1.450  52.445  1.00  0.00    -0.023 A 
HETATM   10  C15 UNL     1      25.595   1.700  51.958  1.00  0.00     0.010 A 
HETATM   11  C16 UNL     1      26.600   0.763  51.902  1.00  0.00     0.001 A 
HETATM   12  C17 UNL     1      26.372  -0.518  52.351  1.00  0.00     0.002 A 
HETATM   13  C18 UNL     1      25.098  -0.756  52.838  1.00  0.00     0.030 A 
HETATM   14  C19 UNL     1      24.082   0.175  52.899  1.00  0.00     0.040 A 
HETATM   15  N2  UNL     1      22.868  -0.316  53.451  1.00  0.00    -0.350 N 
HETATM   16  C20 UNL     1      22.063  -0.070  54.607  1.00  0.00     0.209 C 
HETATM   17  N3  UNL     1      20.899   0.374  54.199  1.00  0.00    -0.226 NA
HETATM   18  H8  UNL     1      19.537  -0.682  51.222  1.00  0.00     0.162 HD
HETATM   19  H21 UNL     1      22.519  -1.060  52.784  1.00  0.00     0.166 HD
ENDROOT
BRANCH   1  20
HETATM   20  C6  UNL     1      21.697   0.877  49.742  1.00  0.00     0.003 C 
HETATM   21  C5  UNL     1      21.682   1.334  48.496  1.00  0.00     0.001 C 
BRANCH  21  22
HETATM   22  C4  UNL     1      20.640   2.220  48.045  1.00  0.00     0.042 C 
HETATM   23  C3  UNL     1      20.903   3.448  47.641  1.00  0.00     0.112 C 
HETATM   24  F1  UNL     1      20.055   4.395  47.196  1.00  0.00    -0.206 F 
BRANCH  23  25
HETATM   25  C2  UNL     1      22.205   4.085  47.582  1.00  0.00     0.016 C 
HETATM   26  C1  UNL     1      22.938   5.123  47.864  1.00  0.00     0.034 C 
ENDBRANCH  23  25
ENDBRANCH  21  22
ENDBRANCH   1  20
TORSDOF 3
ENDMDL
MODEL 5
REMARK VINA RESULT:      -7.3      2.514      4.293
REMARK  3 active torsions:
REMARK  status: ('A' for Active; 'I' for Inactive)
REMARK    1  A    between atoms: C2_2  and  C3_3 
REMARK    2  A    between atoms: C4_5  and  C5_6 
REMARK    3  A    between atoms: C6_7  and  C7_8 
ROOT
HETATM    1  C7  UNL     1      23.619   0.974  52.280  1.00  0.00     0.139 A 
HETATM    2  N1  UNL     1      22.599   1.002  53.276  1.00  0.00    -0.363 N 
HETATM    3  C8  UNL     1      21.571   1.397  52.377  1.00  0.00     0.130 A 
HETATM    4  C9  UNL     1      22.483   1.387  51.419  1.00  0.00    -0.007 A 
HETATM    5  C10 UNL     1      22.108   1.732  50.056  1.00  0.00     0.054 C 
HETATM    6  C11 UNL     1      22.877   2.868  49.434  1.00  0.00    -0.015 C 
HETATM    7  C12 UNL     1      22.270   3.011  48.029  1.00  0.00     0.020 C 
HETATM    8  C13 UNL     1      24.327   2.483  49.244  1.00  0.00     0.020 C 
HETATM    9  C14 UNL     1      22.731   4.163  50.092  1.00  0.00    -0.023 A 
HETATM   10  C15 UNL     1      23.479   5.134  49.456  1.00  0.00     0.010 A 
HETATM   11  C16 UNL     1      23.540   6.449  49.856  1.00  0.00     0.001 A 
HETATM   12  C17 UNL     1      22.824   6.867  50.954  1.00  0.00     0.002 A 
HETATM   13  C18 UNL     1      22.076   5.885  51.582  1.00  0.00     0.030 A 
HETATM   14  C19 UNL     1      22.007   4.565  51.191  1.00  0.00     0.040 A 
HETATM   15  N2  UNL     1      21.161   3.757  51.997  1.00  0.00    -0.350 N 
HETATM   16  C20 UNL     1      19.945   3.022  51.838  1.00  0.00     0.209 C 
HETATM   17  N3  UNL     1      20.210   1.756  52.051  1.00  0.00    -0.226 NA
HETATM   18  H8  UNL     1      22.635   0.799  54.294  1.00  0.00     0.162 HD
HETATM   19  H21 UNL     1      21.601   3.735  52.960  1.00  0.00     0.166 HD
ENDROOT
BRANCH   1  20
HETATM   20  C6  UNL     1      24.751   1.884  52.388  1.00  0.00     0.003 C 
HETATM   21  C5  UNL     1      26.034   1.574  52.250  1.00  0.00     0.001 C 
BRANCH  21  22
HETATM   22  C4  UNL     1      26.444   0.224  51.963  1.00  0.00     0.042 C 
HETATM   23  C3  UNL     1      27.158  -0.479  52.820  1.00  0.00     0.112 C 
HETATM   24  F1  UNL     1      27.621  -1.739  52.707  1.00  0.00    -0.206 F 
BRANCH  23  25
HETATM   25  C2  UNL     1      27.629  -0.046  54.122  1.00  0.00     0.016 C 
HETATM   26  C1  UNL     1      28.642   0.233  54.891  1.00  0.00     0.034 C 
ENDBRANCH  23  25
ENDBRANCH  21  22
ENDBRANCH   1  20
TORSDOF 3
ENDMDL
MODEL 6
REMARK VINA RESULT:      -7.1      7.127      9.569
REMARK  3 active torsions:
REMARK  status: ('A' for Active; 'I' for Inactive)
REMARK    1  A    between atoms: C2_2  and  C3_3 
REMARK    2  A    between atoms: C4_5  and  C5_6 
REMARK    3  A    between atoms: C6_7  and  C7_8 
ROOT
HETATM    1  C7  UNL     1      29.746   5.881  47.718  1.00  0.00     0.139 A 
HETATM    2  N1  UNL     1      29.023   5.864  48.947  1.00  0.00    -0.363 N 
HETATM    3  C8  UNL     1      28.130   6.904  48.572  1.00  0.00     0.130 A 
HETATM    4  C9  UNL     1      28.771   6.959  47.416  1.00  0.00    -0.007 A 
HETATM    5  C10 UNL     1      28.356   7.915  46.401  1.00  0.00     0.054 C 
HETATM    6  C11 UNL     1      29.421   8.867  45.924  1.00  0.00    -0.015 C 
HETATM    7  C12 UNL     1      28.706   9.747  44.886  1.00  0.00     0.020 C 
HETATM    8  C13 UNL     1      30.507   8.118  45.186  1.00  0.00     0.020 C 
HETATM    9  C14 UNL     1      29.963   9.767  46.940  1.00  0.00    -0.023 A 
HETATM   10  C15 UNL     1      30.937  10.590  46.409  1.00  0.00     0.010 A 
HETATM   11  C16 UNL     1      31.625  11.536  47.132  1.00  0.00     0.001 A 
HETATM   12  C17 UNL     1      31.359  11.708  48.471  1.00  0.00     0.002 A 
HETATM   13  C18 UNL     1      30.380  10.878  48.990  1.00  0.00     0.030 A 
HETATM   14  C19 UNL     1      29.682   9.926  48.278  1.00  0.00     0.040 A 
HETATM   15  N2  UNL     1      28.721   9.209  49.039  1.00  0.00    -0.350 N 
HETATM   16  C20 UNL     1      27.300   9.058  49.065  1.00  0.00     0.209 C 
HETATM   17  N3  UNL     1      27.024   7.802  48.809  1.00  0.00    -0.226 NA
HETATM   18  H8  UNL     1      29.142   5.278  49.798  1.00  0.00     0.162 HD
HETATM   19  H21 UNL     1      29.266   8.663  49.765  1.00  0.00     0.166 HD
ENDROOT
BRANCH   1  20
HETATM   20  C6  UNL     1      31.159   6.231  47.722  1.00  0.00     0.003 C 
HETATM   21  C5  UNL     1      32.183   5.399  47.572  1.00  0.00     0.001 C 
BRANCH  21  22
HETATM   22  C4  UNL     1      31.969   3.988  47.379  1.00  0.00     0.042 C 
HETATM   23  C3  UNL     1      32.912   3.206  46.891  1.00  0.00     0.112 C 
HETATM   24  F1  UNL     1      32.874   1.882  46.648  1.00  0.00    -0.206 F 
BRANCH  23  25
HETATM   25  C2  UNL     1      34.249   3.600  46.489  1.00  0.00     0.016 C 
HETATM   26  C1  UNL     1      35.129   3.695  45.536  1.00  0.00     0.034 C 
ENDBRANCH  23  25
ENDBRANCH  21  22
ENDBRANCH   1  20
TORSDOF 3
ENDMDL
MODEL 7
REMARK VINA RESULT:      -7.1      7.383     10.371
REMARK  3 active torsions:
REMARK  status: ('A' for Active; 'I' for Inactive)
REMARK    1  A    between atoms: C2_2  and  C3_3 
REMARK    2  A    between atoms: C4_5  and  C5_6 
REMARK    3  A    between atoms: C6_7  and  C7_8 
ROOT
HETATM    1  C7  UNL     1      30.387   7.296  48.558  1.00  0.00     0.139 A 
HETATM    2  N1  UNL     1      30.712   6.130  49.311  1.00  0.00    -0.363 N 
HETATM    3  C8  UNL     1      32.115   6.255  49.120  1.00  0.00     0.130 A 
HETATM    4  C9  UNL     1      31.864   7.343  48.411  1.00  0.00    -0.007 A 
HETATM    5  C10 UNL     1      32.961   8.096  47.823  1.00  0.00     0.054 C 
HETATM    6  C11 UNL     1      32.895   8.290  46.330  1.00  0.00    -0.015 C 
HETATM    7  C12 UNL     1      34.163   9.093  45.997  1.00  0.00     0.020 C 
HETATM    8  C13 UNL     1      31.718   9.164  45.963  1.00  0.00     0.020 C 
HETATM    9  C14 UNL     1      32.947   7.068  45.533  1.00  0.00    -0.023 A 
HETATM   10  C15 UNL     1      32.870   7.349  44.183  1.00  0.00     0.010 A 
HETATM   11  C16 UNL     1      32.890   6.394  43.193  1.00  0.00     0.001 A 
HETATM   12  C17 UNL     1      32.993   5.063  43.524  1.00  0.00     0.002 A 
HETATM   13  C18 UNL     1      33.071   4.794  44.880  1.00  0.00     0.030 A 
HETATM   14  C19 UNL     1      33.052   5.741  45.881  1.00  0.00     0.040 A 
HETATM   15  N2  UNL     1      33.154   5.209  47.195  1.00  0.00    -0.350 N 
HETATM   16  C20 UNL     1      34.084   5.259  48.280  1.00  0.00     0.209 C 
HETATM   17  N3  UNL     1      33.484   5.829  49.297  1.00  0.00    -0.226 NA
HETATM   18  H8  UNL     1      30.104   5.450  49.810  1.00  0.00     0.162 HD
HETATM   19  H21 UNL     1      32.282   4.629  47.349  1.00  0.00     0.166 HD
ENDROOT
BRANCH   1  20
HETATM   20  C6  UNL     1      29.591   7.167  47.345  1.00  0.00     0.003 C 
HETATM   21  C5  UNL     1      28.290   7.395  47.222  1.00  0.00     0.001 C 
BRANCH  21  22
HETATM   22  C4  UNL     1      27.502   7.818  48.351  1.00  0.00     0.042 C 
HETATM   23  C3  UNL     1      26.785   6.962  49.052  1.00  0.00     0.112 C 
HETATM   24  F1  UNL     1      25.999   7.190  50.122  1.00  0.00    -0.206 F 
BRANCH  23  25
HETATM   25  C2  UNL     1      26.668   5.534  48.828  1.00  0.00     0.016 C 
HETATM   26  C1  UNL     1      27.153   4.343  49.031  1.00  0.00     0.034 C 
ENDBRANCH  23  25
ENDBRANCH  21  22
ENDBRANCH   1  20
TORSDOF 3
ENDMDL
MODEL 8
REMARK VINA RESULT:      -7.0      3.130      5.110
REMARK  3 active torsions:
REMARK  status: ('A' for Active; 'I' for Inactive)
REMARK    1  A    between atoms: C2_2  and  C3_3 
REMARK    2  A    between atoms: C4_5  and  C5_6 
REMARK    3  A    between atoms: C6_7  and  C7_8 
ROOT
HETATM    1  C7  UNL     1      21.787   1.634  50.175  1.00  0.00     0.139 A 
HETATM    2  N1  UNL     1      20.810   1.771  49.145  1.00  0.00    -0.363 N 
HETATM    3  C8  UNL     1      21.690   2.415  48.234  1.00  0.00     0.130 A 
HETATM    4  C9  UNL     1      22.631   2.312  49.158  1.00  0.00    -0.007 A 
HETATM    5  C10 UNL     1      23.967   2.823  48.894  1.00  0.00     0.054 C 
HETATM    6  C11 UNL     1      24.483   3.844  49.874  1.00  0.00    -0.015 C 
HETATM    7  C12 UNL     1      25.881   4.202  49.346  1.00  0.00     0.020 C 
HETATM    8  C13 UNL     1      24.679   3.218  51.236  1.00  0.00     0.020 C 
HETATM    9  C14 UNL     1      23.724   5.091  49.943  1.00  0.00    -0.023 A 
HETATM   10  C15 UNL     1      24.268   5.955  50.873  1.00  0.00     0.010 A 
HETATM   11  C16 UNL     1      23.761   7.202  51.157  1.00  0.00     0.001 A 
HETATM   12  C17 UNL     1      22.645   7.658  50.494  1.00  0.00     0.002 A 
HETATM   13  C18 UNL     1      22.111   6.783  49.563  1.00  0.00     0.030 A 
HETATM   14  C19 UNL     1      22.608   5.532  49.270  1.00  0.00     0.040 A 
HETATM   15  N2  UNL     1      21.884   4.831  48.268  1.00  0.00    -0.350 N 
HETATM   16  C20 UNL     1      22.123   4.344  46.945  1.00  0.00     0.209 C 
HETATM   17  N3  UNL     1      22.009   3.039  46.971  1.00  0.00    -0.226 NA
HETATM   18  H8  UNL     1      19.810   1.487  49.113  1.00  0.00     0.162 HD
HETATM   19  H21 UNL     1      20.920   4.657  48.666  1.00  0.00     0.166 HD
ENDROOT
BRANCH   1  20
HETATM   20  C6  UNL     1      21.587   2.312  51.448  1.00  0.00     0.003 C 
HETATM   21  C5  UNL     1      21.314   1.744  52.615  1.00  0.00     0.001 C 
BRANCH  21  22
HETATM   22  C4  UNL     1      21.183   0.314  52.730  1.00  0.00     0.042 C 
HETATM   23  C3  UNL     1      22.196  -0.445  53.099  1.00  0.00     0.112 C 
HETATM   24  F1  UNL     1      22.242  -1.783  53.251  1.00  0.00    -0.206 F 
BRANCH  23  25
HETATM   25  C2  UNL     1      23.537  -0.006  53.434  1.00  0.00     0.016 C 
HETATM   26  C1  UNL     1      24.799   0.019  53.119  1.00  0.00     0.034 C 
ENDBRANCH  23  25
ENDBRANCH  21  22
ENDBRANCH   1  20
TORSDOF 3
ENDMDL
MODEL 9
REMARK VINA RESULT:      -6.7      8.963     10.904
REMARK  3 active torsions:
REMARK  status: ('A' for Active; 'I' for Inactive)
REMARK    1  A    between atoms: C2_2  and  C3_3 
REMARK    2  A    between atoms: C4_5  and  C5_6 
REMARK    3  A    between atoms: C6_7  and  C7_8 
ROOT
HETATM    1  C7  UNL     1      32.454   7.173  48.970  1.00  0.00     0.139 A 
HETATM    2  N1  UNL     1      31.999   7.955  50.073  1.00  0.00    -0.363 N 
HETATM    3  C8  UNL     1      30.821   8.405  49.418  1.00  0.00     0.130 A 
HETATM    4  C9  UNL     1      31.201   7.696  48.368  1.00  0.00    -0.007 A 
HETATM    5  C10 UNL     1      30.381   7.678  47.167  1.00  0.00     0.054 C 
HETATM    6  C11 UNL     1      31.067   8.111  45.898  1.00  0.00    -0.015 C 
HETATM    7  C12 UNL     1      29.975   8.003  44.822  1.00  0.00     0.020 C 
HETATM    8  C13 UNL     1      32.149   7.126  45.521  1.00  0.00     0.020 C 
HETATM    9  C14 UNL     1      31.544   9.492  45.880  1.00  0.00    -0.023 A 
HETATM   10  C15 UNL     1      32.165   9.789  44.683  1.00  0.00     0.010 A 
HETATM   11  C16 UNL     1      32.717  11.013  44.382  1.00  0.00     0.001 A 
HETATM   12  C17 UNL     1      32.668  12.034  45.303  1.00  0.00     0.002 A 
HETATM   13  C18 UNL     1      32.041  11.724  46.498  1.00  0.00     0.030 A 
HETATM   14  C19 UNL     1      31.485  10.503  46.811  1.00  0.00     0.040 A 
HETATM   15  N2  UNL     1      30.892  10.440  48.101  1.00  0.00    -0.350 N 
HETATM   16  C20 UNL     1      29.583  10.263  48.649  1.00  0.00     0.209 C 
HETATM   17  N3  UNL     1      29.588   9.156  49.351  1.00  0.00    -0.226 NA
HETATM   18  H8  UNL     1      32.415   8.115  51.012  1.00  0.00     0.162 HD
HETATM   19  H21 UNL     1      31.680  10.569  48.796  1.00  0.00     0.166 HD
ENDROOT
BRANCH   1  20
HETATM   20  C6  UNL     1      33.711   7.516  48.319  1.00  0.00     0.003 C 
HETATM   21  C5  UNL     1      34.784   6.743  48.211  1.00  0.00     0.001 C 
BRANCH  21  22
HETATM   22  C4  UNL     1      34.799   5.413  48.764  1.00  0.00     0.042 C 
HETATM   23  C3  UNL     1      34.778   4.344  47.993  1.00  0.00     0.112 C 
HETATM   24  F1  UNL     1      34.784   3.044  48.345  1.00  0.00    -0.206 F 
BRANCH  23  25
HETATM   25  C2  UNL     1      34.741   4.316  46.543  1.00  0.00     0.016 C 
HETATM   26  C1  UNL     1      35.133   3.745  45.442  1.00  0.00     0.034 C 
ENDBRANCH  23  25
ENDBRANCH  21  22
ENDBRANCH   1  20
TORSDOF 3
ENDMDL
