MODEL 1
REMARK VINA RESULT:      -8.2      0.000      0.000
REMARK  2 active torsions:
REMARK  status: ('A' for Active; 'I' for Inactive)
REMARK    1  A    between atoms: O1_2  and  C2_3 
REMARK    2  A    between atoms: C10_14  and  C11_15 
ROOT
HETATM    1  C2  UNL     1      21.258   2.751  52.328  1.00  0.00     0.088 A 
HETATM    2  C3  UNL     1      20.532   1.742  52.785  1.00  0.00     0.037 A 
HETATM    3  C4  UNL     1      21.296   0.565  53.182  1.00  0.00     0.020 A 
HETATM    4  C5  UNL     1      22.615   0.499  53.095  1.00  0.00     0.091 A 
HETATM    5  N1  UNL     1      23.349   1.611  52.597  1.00  0.00    -0.335 N 
HETATM    6  C6  UNL     1      22.735   2.834  52.171  1.00  0.00     0.244 A 
HETATM    7  N2  UNL     1      23.106   3.189  50.817  1.00  0.00    -0.358 N 
HETATM    8  C7  UNL     1      24.423   2.897  50.441  1.00  0.00     0.201 C 
HETATM    9  N3  UNL     1      25.194   2.201  51.181  1.00  0.00    -0.252 NA
HETATM   10  C8  UNL     1      24.789   1.657  52.457  1.00  0.00     0.135 A 
HETATM   11  C9  UNL     1      25.573   2.207  53.658  1.00  0.00     0.066 A 
HETATM   12  C10 UNL     1      25.639   0.772  53.241  1.00  0.00     0.052 A 
HETATM   13  H8  UNL     1      22.508   3.638  50.083  1.00  0.00     0.162 HD
ENDROOT
BRANCH  12  14
HETATM   14  C11 UNL     1      26.915   0.183  52.751  1.00  0.00     0.039 C 
HETATM   15  C12 UNL     1      26.775  -1.298  52.732  1.00  0.00    -0.018 C 
HETATM   16  C13 UNL     1      27.577  -2.346  52.836  1.00  0.00    -0.003 C 
HETATM   17  C14 UNL     1      29.030  -2.302  53.026  1.00  0.00    -0.000 C 
HETATM   18  C15 UNL     1      29.754  -1.282  53.461  1.00  0.00    -0.000 C 
HETATM   19  C16 UNL     1      29.261   0.051  53.856  1.00  0.00    -0.003 C 
HETATM   20  C17 UNL     1      28.097   0.591  53.535  1.00  0.00    -0.018 C 
ENDBRANCH  12  14
BRANCH   1  21
HETATM   21  O1  UNL     1      20.645   3.946  51.912  1.00  0.00    -0.356 OA
HETATM   22  C1  UNL     1      19.417   3.964  51.213  1.00  0.00     0.209 C 
ENDBRANCH   1  21
TORSDOF 2
ENDMDL
MODEL 2
REMARK VINA RESULT:      -7.8      2.557      6.779
REMARK  2 active torsions:
REMARK  status: ('A' for Active; 'I' for Inactive)
REMARK    1  A    between atoms: O1_2  and  C2_3 
REMARK    2  A    between atoms: C10_14  and  C11_15 
ROOT
HETATM    1  C2  UNL     1      26.994   1.242  52.696  1.00  0.00     0.088 A 
HETATM    2  C3  UNL     1      27.271  -0.003  53.053  1.00  0.00     0.037 A 
HETATM    3  C4  UNL     1      26.118  -0.895  53.112  1.00  0.00     0.020 A 
HETATM    4  C5  UNL     1      24.886  -0.500  52.834  1.00  0.00     0.091 A 
HETATM    5  N1  UNL     1      24.643   0.849  52.456  1.00  0.00    -0.335 N 
HETATM    6  C6  UNL     1      25.675   1.838  52.353  1.00  0.00     0.244 A 
HETATM    7  N2  UNL     1      25.395   3.007  53.159  1.00  0.00    -0.358 N 
HETATM    8  C7  UNL     1      24.052   3.400  53.231  1.00  0.00     0.201 C 
HETATM    9  N3  UNL     1      23.114   2.673  52.765  1.00  0.00    -0.252 NA
HETATM   10  C8  UNL     1      23.342   1.396  52.128  1.00  0.00     0.135 A 
HETATM   11  C9  UNL     1      22.935   1.344  50.648  1.00  0.00     0.066 A 
HETATM   12  C10 UNL     1      22.258   0.524  51.700  1.00  0.00     0.052 A 
HETATM   13  H8  UNL     1      26.074   3.596  53.696  1.00  0.00     0.162 HD
ENDROOT
BRANCH  12  14
HETATM   14  C11 UNL     1      20.823   0.747  52.029  1.00  0.00     0.039 C 
HETATM   15  C12 UNL     1      20.403  -0.275  53.024  1.00  0.00    -0.018 C 
HETATM   16  C13 UNL     1      19.278  -0.883  53.368  1.00  0.00    -0.003 C 
HETATM   17  C14 UNL     1      17.962  -0.670  52.758  1.00  0.00    -0.000 C 
HETATM   18  C15 UNL     1      17.701  -0.125  51.580  1.00  0.00    -0.000 C 
HETATM   19  C16 UNL     1      18.680   0.394  50.606  1.00  0.00    -0.003 C 
HETATM   20  C17 UNL     1      19.935   0.731  50.849  1.00  0.00    -0.018 C 
ENDBRANCH  12  14
BRANCH   1  21
HETATM   21  O1  UNL     1      28.015   2.203  52.599  1.00  0.00    -0.356 OA
HETATM   22  C1  UNL     1      28.904   2.475  53.664  1.00  0.00     0.209 C 
ENDBRANCH   1  21
TORSDOF 2
ENDMDL
MODEL 3
REMARK VINA RESULT:      -7.7      3.491      5.572
REMARK  2 active torsions:
REMARK  status: ('A' for Active; 'I' for Inactive)
REMARK    1  A    between atoms: O1_2  and  C2_3 
REMARK    2  A    between atoms: C10_14  and  C11_15 
ROOT
HETATM    1  C2  UNL     1      25.359   5.355  49.059  1.00  0.00     0.088 A 
HETATM    2  C3  UNL     1      26.584   4.855  49.004  1.00  0.00     0.037 A 
HETATM    3  C4  UNL     1      26.783   3.630  49.771  1.00  0.00     0.020 A 
HETATM    4  C5  UNL     1      25.819   3.057  50.474  1.00  0.00     0.091 A 
HETATM    5  N1  UNL     1      24.521   3.635  50.501  1.00  0.00    -0.335 N 
HETATM    6  C6  UNL     1      24.176   4.835  49.795  1.00  0.00     0.244 A 
HETATM    7  N2  UNL     1      23.610   5.839  50.669  1.00  0.00    -0.358 N 
HETATM    8  C7  UNL     1      22.783   5.369  51.697  1.00  0.00     0.201 C 
HETATM    9  N3  UNL     1      22.678   4.125  51.958  1.00  0.00    -0.252 NA
HETATM   10  C8  UNL     1      23.390   3.100  51.230  1.00  0.00     0.135 A 
HETATM   11  C9  UNL     1      22.485   2.122  50.464  1.00  0.00     0.066 A 
HETATM   12  C10 UNL     1      23.349   1.694  51.607  1.00  0.00     0.052 A 
HETATM   13  H8  UNL     1      23.743   6.878  50.628  1.00  0.00     0.162 HD
ENDROOT
BRANCH  12  14
HETATM   14  C11 UNL     1      22.742   1.180  52.866  1.00  0.00     0.039 C 
HETATM   15  C12 UNL     1      23.687   0.213  53.485  1.00  0.00    -0.018 C 
HETATM   16  C13 UNL     1      23.606  -0.844  54.279  1.00  0.00    -0.003 C 
HETATM   17  C14 UNL     1      22.373  -1.414  54.830  1.00  0.00    -0.000 C 
HETATM   18  C15 UNL     1      21.136  -1.225  54.396  1.00  0.00    -0.000 C 
HETATM   19  C16 UNL     1      20.714  -0.393  53.254  1.00  0.00    -0.003 C 
HETATM   20  C17 UNL     1      21.411   0.570  52.676  1.00  0.00    -0.018 C 
ENDBRANCH  12  14
BRANCH   1  21
HETATM   21  O1  UNL     1      25.034   6.533  48.363  1.00  0.00    -0.356 OA
HETATM   22  C1  UNL     1      26.007   7.490  47.996  1.00  0.00     0.209 C 
ENDBRANCH   1  21
TORSDOF 2
ENDMDL
MODEL 4
REMARK VINA RESULT:      -7.6      2.384      3.920
REMARK  2 active torsions:
REMARK  status: ('A' for Active; 'I' for Inactive)
REMARK    1  A    between atoms: O1_2  and  C2_3 
REMARK    2  A    between atoms: C10_14  and  C11_15 
ROOT
HETATM    1  C2  UNL     1      23.390   5.983  49.707  1.00  0.00     0.088 A 
HETATM    2  C3  UNL     1      24.344   6.311  48.849  1.00  0.00     0.037 A 
HETATM    3  C4  UNL     1      25.562   5.513  48.950  1.00  0.00     0.020 A 
HETATM    4  C5  UNL     1      25.711   4.536  49.830  1.00  0.00     0.091 A 
HETATM    5  N1  UNL     1      24.656   4.224  50.729  1.00  0.00    -0.335 N 
HETATM    6  C6  UNL     1      23.402   4.920  50.747  1.00  0.00     0.244 A 
HETATM    7  N2  UNL     1      23.091   5.453  52.056  1.00  0.00    -0.358 N 
HETATM    8  C7  UNL     1      23.470   4.665  53.150  1.00  0.00     0.201 C 
HETATM    9  N3  UNL     1      24.202   3.631  53.010  1.00  0.00    -0.252 NA
HETATM   10  C8  UNL     1      24.702   3.179  51.732  1.00  0.00     0.135 A 
HETATM   11  C9  UNL     1      24.185   1.798  51.301  1.00  0.00     0.066 A 
HETATM   12  C10 UNL     1      25.627   2.063  51.597  1.00  0.00     0.052 A 
HETATM   13  H8  UNL     1      22.616   6.358  52.285  1.00  0.00     0.162 HD
ENDROOT
BRANCH  12  14
HETATM   14  C11 UNL     1      26.303   1.390  52.740  1.00  0.00     0.039 C 
HETATM   15  C12 UNL     1      27.504   2.184  53.111  1.00  0.00    -0.018 C 
HETATM   16  C13 UNL     1      28.682   1.950  53.669  1.00  0.00    -0.003 C 
HETATM   17  C14 UNL     1      29.173   0.648  54.131  1.00  0.00    -0.000 C 
HETATM   18  C15 UNL     1      28.721  -0.548  53.789  1.00  0.00    -0.000 C 
HETATM   19  C16 UNL     1      27.614  -0.847  52.860  1.00  0.00    -0.003 C 
HETATM   20  C17 UNL     1      26.661  -0.017  52.472  1.00  0.00    -0.018 C 
ENDBRANCH  12  14
BRANCH   1  21
HETATM   21  O1  UNL     1      22.165   6.673  49.714  1.00  0.00    -0.356 OA
HETATM   22  C1  UNL     1      21.831   7.634  48.733  1.00  0.00     0.209 C 
ENDBRANCH   1  21
TORSDOF 2
ENDMDL
MODEL 5
REMARK VINA RESULT:      -7.3      3.701      6.094
REMARK  2 active torsions:
REMARK  status: ('A' for Active; 'I' for Inactive)
REMARK    1  A    between atoms: O1_2  and  C2_3 
REMARK    2  A    between atoms: C10_14  and  C11_15 
ROOT
HETATM    1  C2  UNL     1      21.832   1.212  50.870  1.00  0.00     0.088 A 
HETATM    2  C3  UNL     1      21.321   0.974  49.672  1.00  0.00     0.037 A 
HETATM    3  C4  UNL     1      21.964   1.692  48.577  1.00  0.00     0.020 A 
HETATM    4  C5  UNL     1      22.980   2.521  48.757  1.00  0.00     0.091 A 
HETATM    5  N1  UNL     1      23.491   2.741  50.065  1.00  0.00    -0.335 N 
HETATM    6  C6  UNL     1      22.963   2.106  51.236  1.00  0.00     0.244 A 
HETATM    7  N2  UNL     1      22.577   3.063  52.251  1.00  0.00    -0.358 N 
HETATM    8  C7  UNL     1      23.393   4.195  52.375  1.00  0.00     0.201 C 
HETATM    9  N3  UNL     1      24.312   4.455  51.531  1.00  0.00    -0.252 NA
HETATM   10  C8  UNL     1      24.596   3.621  50.386  1.00  0.00     0.135 A 
HETATM   11  C9  UNL     1      25.994   2.983  50.397  1.00  0.00     0.066 A 
HETATM   12  C10 UNL     1      25.573   3.986  49.369  1.00  0.00     0.052 A 
HETATM   13  H8  UNL     1      21.759   3.013  52.904  1.00  0.00     0.162 HD
ENDROOT
BRANCH  12  14
HETATM   14  C11 UNL     1      26.242   5.313  49.285  1.00  0.00     0.039 C 
HETATM   15  C12 UNL     1      25.380   6.226  48.488  1.00  0.00    -0.018 C 
HETATM   16  C13 UNL     1      25.551   7.289  47.718  1.00  0.00    -0.003 C 
HETATM   17  C14 UNL     1      26.832   7.932  47.410  1.00  0.00    -0.000 C 
HETATM   18  C15 UNL     1      28.043   7.412  47.538  1.00  0.00    -0.000 C 
HETATM   19  C16 UNL     1      28.382   6.060  48.021  1.00  0.00    -0.003 C 
HETATM   20  C17 UNL     1      27.607   5.255  48.727  1.00  0.00    -0.018 C 
ENDBRANCH  12  14
BRANCH   1  21
HETATM   21  O1  UNL     1      21.305   0.582  52.012  1.00  0.00    -0.356 OA
HETATM   22  C1  UNL     1      21.957  -0.496  52.651  1.00  0.00     0.209 C 
ENDBRANCH   1  21
TORSDOF 2
ENDMDL
MODEL 6
REMARK VINA RESULT:      -7.2      4.117      6.958
REMARK  2 active torsions:
REMARK  status: ('A' for Active; 'I' for Inactive)
REMARK    1  A    between atoms: O1_2  and  C2_3 
REMARK    2  A    between atoms: C10_14  and  C11_15 
ROOT
HETATM    1  C2  UNL     1      27.344   7.173  48.572  1.00  0.00     0.088 A 
HETATM    2  C3  UNL     1      28.346   6.351  48.299  1.00  0.00     0.037 A 
HETATM    3  C4  UNL     1      28.071   4.941  48.554  1.00  0.00     0.020 A 
HETATM    4  C5  UNL     1      26.913   4.507  49.024  1.00  0.00     0.091 A 
HETATM    5  N1  UNL     1      25.869   5.432  49.301  1.00  0.00    -0.335 N 
HETATM    6  C6  UNL     1      25.993   6.845  49.099  1.00  0.00     0.244 A 
HETATM    7  N2  UNL     1      25.693   7.598  50.298  1.00  0.00    -0.358 N 
HETATM    8  C7  UNL     1      24.665   7.092  51.104  1.00  0.00     0.201 C 
HETATM    9  N3  UNL     1      24.146   5.947  50.890  1.00  0.00    -0.252 NA
HETATM   10  C8  UNL     1      24.562   5.077  49.815  1.00  0.00     0.135 A 
HETATM   11  C9  UNL     1      23.472   4.796  48.769  1.00  0.00     0.066 A 
HETATM   12  C10 UNL     1      24.041   3.727  49.647  1.00  0.00     0.052 A 
HETATM   13  H8  UNL     1      26.153   8.475  50.639  1.00  0.00     0.162 HD
ENDROOT
BRANCH  12  14
HETATM   14  C11 UNL     1      23.184   3.029  50.644  1.00  0.00     0.039 C 
HETATM   15  C12 UNL     1      24.066   2.325  51.613  1.00  0.00    -0.018 C 
HETATM   16  C13 UNL     1      23.987   1.258  52.393  1.00  0.00    -0.003 C 
HETATM   17  C14 UNL     1      22.831   0.364  52.515  1.00  0.00    -0.000 C 
HETATM   18  C15 UNL     1      21.822   0.235  51.666  1.00  0.00    -0.000 C 
HETATM   19  C16 UNL     1      21.630   0.964  50.399  1.00  0.00    -0.003 C 
HETATM   20  C17 UNL     1      22.212   2.096  50.041  1.00  0.00    -0.018 C 
ENDBRANCH  12  14
BRANCH   1  21
HETATM   21  O1  UNL     1      27.478   8.558  48.370  1.00  0.00    -0.356 OA
HETATM   22  C1  UNL     1      27.632   9.125  47.084  1.00  0.00     0.209 C 
ENDBRANCH   1  21
TORSDOF 2
ENDMDL
MODEL 7
REMARK VINA RESULT:      -7.2      3.317      5.387
REMARK  2 active torsions:
REMARK  status: ('A' for Active; 'I' for Inactive)
REMARK    1  A    between atoms: O1_2  and  C2_3 
REMARK    2  A    between atoms: C10_14  and  C11_15 
ROOT
HETATM    1  C2  UNL     1      25.361   5.673  49.330  1.00  0.00     0.088 A 
HETATM    2  C3  UNL     1      24.431   5.898  48.415  1.00  0.00     0.037 A 
HETATM    3  C4  UNL     1      23.277   5.006  48.480  1.00  0.00     0.020 A 
HETATM    4  C5  UNL     1      23.161   4.044  49.380  1.00  0.00     0.091 A 
HETATM    5  N1  UNL     1      24.189   3.844  50.342  1.00  0.00    -0.335 N 
HETATM    6  C6  UNL     1      25.379   4.642  50.402  1.00  0.00     0.244 A 
HETATM    7  N2  UNL     1      26.580   3.836  50.344  1.00  0.00    -0.358 N 
HETATM    8  C7  UNL     1      26.529   2.603  51.005  1.00  0.00     0.201 C 
HETATM    9  N3  UNL     1      25.439   2.138  51.475  1.00  0.00    -0.252 NA
HETATM   10  C8  UNL     1      24.173   2.828  51.373  1.00  0.00     0.135 A 
HETATM   11  C9  UNL     1      23.563   3.236  52.723  1.00  0.00     0.066 A 
HETATM   12  C10 UNL     1      22.917   2.238  51.814  1.00  0.00     0.052 A 
HETATM   13  H8  UNL     1      27.485   4.064  49.867  1.00  0.00     0.162 HD
ENDROOT
BRANCH  12  14
HETATM   14  C11 UNL     1      22.758   0.819  52.236  1.00  0.00     0.039 C 
HETATM   15  C12 UNL     1      21.371   0.628  52.736  1.00  0.00    -0.018 C 
HETATM   16  C13 UNL     1      20.755  -0.169  53.596  1.00  0.00    -0.003 C 
HETATM   17  C14 UNL     1      21.384  -1.225  54.394  1.00  0.00    -0.000 C 
HETATM   18  C15 UNL     1      22.672  -1.363  54.672  1.00  0.00    -0.000 C 
HETATM   19  C16 UNL     1      23.773  -0.481  54.240  1.00  0.00    -0.003 C 
HETATM   20  C17 UNL     1      23.747   0.385  53.242  1.00  0.00    -0.018 C 
ENDBRANCH  12  14
BRANCH   1  21
HETATM   21  O1  UNL     1      26.524   6.462  49.379  1.00  0.00    -0.356 OA
HETATM   22  C1  UNL     1      26.930   7.280  48.300  1.00  0.00     0.209 C 
ENDBRANCH   1  21
TORSDOF 2
ENDMDL
MODEL 8
REMARK VINA RESULT:      -7.2      2.791      7.015
REMARK  2 active torsions:
REMARK  status: ('A' for Active; 'I' for Inactive)
REMARK    1  A    between atoms: O1_2  and  C2_3 
REMARK    2  A    between atoms: C10_14  and  C11_15 
ROOT
HETATM    1  C2  UNL     1      25.457   2.149  51.717  1.00  0.00     0.088 A 
HETATM    2  C3  UNL     1      25.972   1.232  52.521  1.00  0.00     0.037 A 
HETATM    3  C4  UNL     1      25.011   0.272  53.053  1.00  0.00     0.020 A 
HETATM    4  C5  UNL     1      23.721   0.308  52.761  1.00  0.00     0.091 A 
HETATM    5  N1  UNL     1      23.218   1.315  51.892  1.00  0.00    -0.335 N 
HETATM    6  C6  UNL     1      24.042   2.323  51.293  1.00  0.00     0.244 A 
HETATM    7  N2  UNL     1      23.563   3.659  51.575  1.00  0.00    -0.358 N 
HETATM    8  C7  UNL     1      22.172   3.822  51.614  1.00  0.00     0.201 C 
HETATM    9  N3  UNL     1      21.379   2.824  51.580  1.00  0.00    -0.252 NA
HETATM   10  C8  UNL     1      21.831   1.454  51.500  1.00  0.00     0.135 A 
HETATM   11  C9  UNL     1      21.407   0.721  50.218  1.00  0.00     0.066 A 
HETATM   12  C10 UNL     1      20.921   0.320  51.575  1.00  0.00     0.052 A 
HETATM   13  H8  UNL     1      24.131   4.521  51.756  1.00  0.00     0.162 HD
ENDROOT
BRANCH  12  14
HETATM   14  C11 UNL     1      19.478   0.422  51.925  1.00  0.00     0.039 C 
HETATM   15  C12 UNL     1      19.158  -0.633  52.923  1.00  0.00    -0.018 C 
HETATM   16  C13 UNL     1      18.093  -1.332  53.281  1.00  0.00    -0.003 C 
HETATM   17  C14 UNL     1      16.755  -1.227  52.691  1.00  0.00    -0.000 C 
HETATM   18  C15 UNL     1      16.433  -0.703  51.518  1.00  0.00    -0.000 C 
HETATM   19  C16 UNL     1      17.351  -0.103  50.532  1.00  0.00    -0.003 C 
HETATM   20  C17 UNL     1      18.578   0.336  50.758  1.00  0.00    -0.018 C 
ENDBRANCH  12  14
BRANCH   1  21
HETATM   21  O1  UNL     1      26.275   3.134  51.135  1.00  0.00    -0.356 OA
HETATM   22  C1  UNL     1      26.517   3.193  49.744  1.00  0.00     0.209 C 
ENDBRANCH   1  21
TORSDOF 2
ENDMDL
MODEL 9
REMARK VINA RESULT:      -7.2      2.607      3.634
REMARK  2 active torsions:
REMARK  status: ('A' for Active; 'I' for Inactive)
REMARK    1  A    between atoms: O1_2  and  C2_3 
REMARK    2  A    between atoms: C10_14  and  C11_15 
ROOT
HETATM    1  C2  UNL     1      18.054   0.972  50.500  1.00  0.00     0.088 A 
HETATM    2  C3  UNL     1      17.496   0.132  51.358  1.00  0.00     0.037 A 
HETATM    3  C4  UNL     1      18.396  -0.392  52.379  1.00  0.00     0.020 A 
HETATM    4  C5  UNL     1      19.675  -0.061  52.450  1.00  0.00     0.091 A 
HETATM    5  N1  UNL     1      20.226   0.845  51.503  1.00  0.00    -0.335 N 
HETATM    6  C6  UNL     1      19.464   1.442  50.446  1.00  0.00     0.244 A 
HETATM    7  N2  UNL     1      20.054   1.205  49.146  1.00  0.00    -0.358 N 
HETATM    8  C7  UNL     1      21.454   1.213  49.092  1.00  0.00     0.201 C 
HETATM    9  N3  UNL     1      22.166   1.247  50.149  1.00  0.00    -0.252 NA
HETATM   10  C8  UNL     1      21.607   1.282  51.481  1.00  0.00     0.135 A 
HETATM   11  C9  UNL     1      21.931   2.559  52.271  1.00  0.00     0.066 A 
HETATM   12  C10 UNL     1      22.428   1.209  52.681  1.00  0.00     0.052 A 
HETATM   13  H8  UNL     1      19.561   1.027  48.239  1.00  0.00     0.162 HD
ENDROOT
BRANCH  12  14
HETATM   14  C11 UNL     1      23.885   0.906  52.685  1.00  0.00     0.039 C 
HETATM   15  C12 UNL     1      24.122  -0.263  53.574  1.00  0.00    -0.018 C 
HETATM   16  C13 UNL     1      25.115  -0.726  54.316  1.00  0.00    -0.003 C 
HETATM   17  C14 UNL     1      26.435  -0.107  54.473  1.00  0.00    -0.000 C 
HETATM   18  C15 UNL     1      26.771   1.147  54.208  1.00  0.00    -0.000 C 
HETATM   19  C16 UNL     1      25.889   2.211  53.692  1.00  0.00    -0.003 C 
HETATM   20  C17 UNL     1      24.728   2.051  53.082  1.00  0.00    -0.018 C 
ENDBRANCH  12  14
BRANCH   1  21
HETATM   21  O1  UNL     1      17.297   1.551  49.467  1.00  0.00    -0.356 OA
HETATM   22  C1  UNL     1      16.724   2.839  49.577  1.00  0.00     0.209 C 
ENDBRANCH   1  21
TORSDOF 2
ENDMDL
