MODEL 1
REMARK VINA RESULT:      -9.8      0.000      0.000
REMARK  2 active torsions:
REMARK  status: ('A' for Active; 'I' for Inactive)
REMARK    1  A    between atoms: N1_2  and  C3_4 
REMARK    2  A    between atoms: C3_4  and  C4_5 
ROOT
HETATM    1  C4  UNL     1      20.553   1.908  52.423  1.00  0.00     0.140 C 
HETATM    2  C5  UNL     1      20.941   2.884  51.388  1.00  0.00     0.053 C 
HETATM    3  C6  UNL     1      21.610   4.128  51.693  1.00  0.00     0.122 C 
HETATM    4  N2  UNL     1      22.937   4.121  52.163  1.00  0.00    -0.389 N 
HETATM    5  C7  UNL     1      24.197   3.738  51.664  1.00  0.00     0.039 A 
HETATM    6  C8  UNL     1      24.950   4.154  50.675  1.00  0.00     0.001 A 
HETATM    7  C9  UNL     1      24.939   5.214  49.697  1.00  0.00     0.014 A 
HETATM    8  C10 UNL     1      26.081   5.001  49.016  1.00  0.00     0.002 A 
HETATM    9  C11 UNL     1      26.891   3.852  49.460  1.00  0.00     0.013 A 
HETATM   10  C12 UNL     1      26.178   3.395  50.435  1.00  0.00    -0.016 A 
HETATM   11  C13 UNL     1      26.153   2.366  51.449  1.00  0.00    -0.027 A 
HETATM   12  C14 UNL     1      25.005   2.632  52.113  1.00  0.00     0.039 A 
HETATM   13  C15 UNL     1      26.774   1.101  52.103  1.00  0.00     0.152 C 
HETATM   14  C16 UNL     1      27.730   1.572  53.072  1.00  0.00     0.237 C 
HETATM   15  O1  UNL     1      28.520   2.560  52.775  1.00  0.00    -0.272 OA
HETATM   16  N3  UNL     1      27.688   0.852  54.297  1.00  0.00    -0.293 N 
HETATM   17  C17 UNL     1      26.364   0.286  54.122  1.00  0.00     0.256 C 
HETATM   18  O2  UNL     1      26.078  -0.454  55.149  1.00  0.00    -0.267 OA
HETATM   19  C18 UNL     1      25.574   0.596  52.887  1.00  0.00     0.043 C 
HETATM   20  C19 UNL     1      24.391   0.176  53.249  1.00  0.00     0.097 C 
HETATM   21  N4  UNL     1      23.419  -0.271  54.134  1.00  0.00    -0.396 N 
HETATM   22  C20 UNL     1      22.455  -1.012  53.402  1.00  0.00     0.145 C 
HETATM   23  C21 UNL     1      21.769  -0.289  52.274  1.00  0.00     0.187 C 
HETATM   24  O3  UNL     1      21.177   0.782  52.345  1.00  0.00    -0.383 OA
HETATM   25  H14 UNL     1      23.434   4.461  53.003  1.00  0.00     0.159 HD
HETATM   26  H20 UNL     1      28.447   0.798  55.000  1.00  0.00     0.172 HD
HETATM   27  H22 UNL     1      23.979   0.214  54.844  1.00  0.00     0.158 HD
ENDROOT
BRANCH   1  28
HETATM   28  C3  UNL     1      19.039   1.426  51.872  1.00  0.00     0.147 C 
BRANCH  28  29
HETATM   29  N1  UNL     1      18.570   2.277  50.918  1.00  0.00    -0.418 N 
HETATM   30  C1  UNL     1      18.244   2.017  49.592  1.00  0.00     0.142 C 
HETATM   31  C2  UNL     1      17.534   3.150  51.542  1.00  0.00     0.142 C 
ENDBRANCH  28  29
ENDBRANCH   1  28
TORSDOF 2
ENDMDL
MODEL 2
REMARK VINA RESULT:      -9.8      1.624      2.485
REMARK  2 active torsions:
REMARK  status: ('A' for Active; 'I' for Inactive)
REMARK    1  A    between atoms: N1_2  and  C3_4 
REMARK    2  A    between atoms: C3_4  and  C4_5 
ROOT
HETATM    1  C4  UNL     1      19.435   2.732  52.012  1.00  0.00     0.140 C 
HETATM    2  C5  UNL     1      20.443   3.436  51.200  1.00  0.00     0.053 C 
HETATM    3  C6  UNL     1      21.450   4.300  51.775  1.00  0.00     0.122 C 
HETATM    4  N2  UNL     1      22.484   3.757  52.560  1.00  0.00    -0.389 N 
HETATM    5  C7  UNL     1      23.566   2.877  52.360  1.00  0.00     0.039 A 
HETATM    6  C8  UNL     1      24.656   2.922  51.633  1.00  0.00     0.001 A 
HETATM    7  C9  UNL     1      25.333   3.871  50.782  1.00  0.00     0.014 A 
HETATM    8  C10 UNL     1      26.428   3.191  50.393  1.00  0.00     0.002 A 
HETATM    9  C11 UNL     1      26.556   1.819  50.920  1.00  0.00     0.013 A 
HETATM   10  C12 UNL     1      25.489   1.719  51.640  1.00  0.00    -0.016 A 
HETATM   11  C13 UNL     1      24.783   0.815  52.518  1.00  0.00    -0.027 A 
HETATM   12  C14 UNL     1      23.708   1.545  52.895  1.00  0.00     0.039 A 
HETATM   13  C15 UNL     1      24.642  -0.579  53.190  1.00  0.00     0.152 C 
HETATM   14  C16 UNL     1      25.412  -0.524  54.406  1.00  0.00     0.237 C 
HETATM   15  O1  UNL     1      26.581   0.044  54.407  1.00  0.00    -0.272 OA
HETATM   16  N3  UNL     1      24.760  -1.135  55.511  1.00  0.00    -0.293 N 
HETATM   17  C17 UNL     1      23.418  -1.108  54.960  1.00  0.00     0.256 C 
HETATM   18  O2  UNL     1      22.597  -1.641  55.811  1.00  0.00    -0.267 OA
HETATM   19  C18 UNL     1      23.179  -0.527  53.599  1.00  0.00     0.043 C 
HETATM   20  C19 UNL     1      21.878  -0.413  53.613  1.00  0.00     0.097 C 
HETATM   21  N4  UNL     1      20.611  -0.399  54.183  1.00  0.00    -0.396 N 
HETATM   22  C20 UNL     1      19.662  -0.692  53.169  1.00  0.00     0.145 C 
HETATM   23  C21 UNL     1      19.653   0.226  51.975  1.00  0.00     0.187 C 
HETATM   24  O3  UNL     1      19.548   1.447  51.992  1.00  0.00    -0.383 OA
HETATM   25  H14 UNL     1      22.834   3.879  53.524  1.00  0.00     0.159 HD
HETATM   26  H20 UNL     1      25.216  -1.483  56.374  1.00  0.00     0.172 HD
HETATM   27  H22 UNL     1      21.109  -0.173  55.051  1.00  0.00     0.158 HD
ENDROOT
BRANCH   1  28
HETATM   28  C3  UNL     1      18.061   2.905  51.058  1.00  0.00     0.147 C 
BRANCH  28  29
HETATM   29  N1  UNL     1      16.952   3.095  51.824  1.00  0.00    -0.418 N 
HETATM   30  C1  UNL     1      16.213   4.254  52.028  1.00  0.00     0.142 C 
HETATM   31  C2  UNL     1      16.042   1.931  51.621  1.00  0.00     0.142 C 
ENDBRANCH  28  29
ENDBRANCH   1  28
TORSDOF 2
ENDMDL
MODEL 3
REMARK VINA RESULT:      -9.8      2.542      5.272
REMARK  2 active torsions:
REMARK  status: ('A' for Active; 'I' for Inactive)
REMARK    1  A    between atoms: N1_2  and  C3_4 
REMARK    2  A    between atoms: C3_4  and  C4_5 
ROOT
HETATM    1  C4  UNL     1      22.707   4.094  49.687  1.00  0.00     0.140 C 
HETATM    2  C5  UNL     1      24.102   3.992  50.151  1.00  0.00     0.053 C 
HETATM    3  C6  UNL     1      24.507   4.319  51.500  1.00  0.00     0.122 C 
HETATM    4  N2  UNL     1      24.105   3.506  52.576  1.00  0.00    -0.389 N 
HETATM    5  C7  UNL     1      24.323   2.178  52.992  1.00  0.00     0.039 A 
HETATM    6  C8  UNL     1      25.381   1.504  53.371  1.00  0.00     0.001 A 
HETATM    7  C9  UNL     1      26.774   1.766  53.641  1.00  0.00     0.014 A 
HETATM    8  C10 UNL     1      27.236   0.557  54.012  1.00  0.00     0.002 A 
HETATM    9  C11 UNL     1      26.248  -0.538  54.016  1.00  0.00     0.013 A 
HETATM   10  C12 UNL     1      25.179   0.078  53.633  1.00  0.00    -0.016 A 
HETATM   11  C13 UNL     1      23.774  -0.126  53.372  1.00  0.00    -0.027 A 
HETATM   12  C14 UNL     1      23.353   1.112  53.023  1.00  0.00     0.039 A 
HETATM   13  C15 UNL     1      22.546  -1.071  53.258  1.00  0.00     0.152 C 
HETATM   14  C16 UNL     1      21.976  -1.158  54.579  1.00  0.00     0.237 C 
HETATM   15  O1  UNL     1      22.754  -1.283  55.612  1.00  0.00    -0.272 OA
HETATM   16  N3  UNL     1      20.557  -1.098  54.582  1.00  0.00    -0.293 N 
HETATM   17  C17 UNL     1      20.403  -0.507  53.266  1.00  0.00     0.256 C 
HETATM   18  O2  UNL     1      19.140  -0.349  53.015  1.00  0.00    -0.267 OA
HETATM   19  C18 UNL     1      21.613  -0.192  52.441  1.00  0.00     0.043 C 
HETATM   20  C19 UNL     1      21.084   0.570  51.522  1.00  0.00     0.097 C 
HETATM   21  N4  UNL     1      20.096   1.351  50.934  1.00  0.00    -0.396 N 
HETATM   22  C20 UNL     1      20.321   1.375  49.533  1.00  0.00     0.145 C 
HETATM   23  C21 UNL     1      21.662   1.888  49.078  1.00  0.00     0.187 C 
HETATM   24  O3  UNL     1      22.172   2.962  49.375  1.00  0.00    -0.383 OA
HETATM   25  H14 UNL     1      23.576   3.636  53.454  1.00  0.00     0.159 HD
HETATM   26  H20 UNL     1      19.932  -1.435  55.337  1.00  0.00     0.172 HD
HETATM   27  H22 UNL     1      19.754   1.471  51.894  1.00  0.00     0.158 HD
ENDROOT
BRANCH   1  28
HETATM   28  C3  UNL     1      22.917   4.736  48.147  1.00  0.00     0.147 C 
BRANCH  28  29
HETATM   29  N1  UNL     1      22.608   6.062  48.122  1.00  0.00    -0.418 N 
HETATM   30  C1  UNL     1      21.838   6.801  49.011  1.00  0.00     0.142 C 
HETATM   31  C2  UNL     1      23.839   6.819  47.753  1.00  0.00     0.142 C 
ENDBRANCH  28  29
ENDBRANCH   1  28
TORSDOF 2
ENDMDL
MODEL 4
REMARK VINA RESULT:      -9.1      2.248      4.984
REMARK  2 active torsions:
REMARK  status: ('A' for Active; 'I' for Inactive)
REMARK    1  A    between atoms: N1_2  and  C3_4 
REMARK    2  A    between atoms: C3_4  and  C4_5 
ROOT
HETATM    1  C4  UNL     1      20.725   4.068  50.178  1.00  0.00     0.140 C 
HETATM    2  C5  UNL     1      19.954   3.065  50.937  1.00  0.00     0.053 C 
HETATM    3  C6  UNL     1      19.956   1.658  50.605  1.00  0.00     0.122 C 
HETATM    4  N2  UNL     1      21.119   0.888  50.797  1.00  0.00    -0.389 N 
HETATM    5  C7  UNL     1      21.906   0.480  51.891  1.00  0.00     0.039 A 
HETATM    6  C8  UNL     1      21.689  -0.278  52.938  1.00  0.00     0.001 A 
HETATM    7  C9  UNL     1      20.633  -1.120  53.447  1.00  0.00     0.014 A 
HETATM    8  C10 UNL     1      21.158  -1.595  54.591  1.00  0.00     0.002 A 
HETATM    9  C11 UNL     1      22.521  -1.135  54.915  1.00  0.00     0.013 A 
HETATM   10  C12 UNL     1      22.779  -0.366  53.910  1.00  0.00    -0.016 A 
HETATM   11  C13 UNL     1      23.813   0.470  53.346  1.00  0.00    -0.027 A 
HETATM   12  C14 UNL     1      23.249   0.906  52.197  1.00  0.00     0.039 A 
HETATM   13  C15 UNL     1      25.216   1.131  53.442  1.00  0.00     0.152 C 
HETATM   14  C16 UNL     1      26.153   0.177  52.906  1.00  0.00     0.237 C 
HETATM   15  O1  UNL     1      26.044  -1.081  53.215  1.00  0.00    -0.272 OA
HETATM   16  N3  UNL     1      27.134   0.767  52.065  1.00  0.00    -0.293 N 
HETATM   17  C17 UNL     1      26.416   1.998  51.794  1.00  0.00     0.256 C 
HETATM   18  O2  UNL     1      27.135   2.749  51.018  1.00  0.00    -0.267 OA
HETATM   19  C18 UNL     1      25.063   2.224  52.398  1.00  0.00     0.043 C 
HETATM   20  C19 UNL     1      24.655   3.245  51.692  1.00  0.00     0.097 C 
HETATM   21  N4  UNL     1      24.683   4.157  50.645  1.00  0.00    -0.396 N 
HETATM   22  C20 UNL     1      24.001   5.332  51.057  1.00  0.00     0.145 C 
HETATM   23  C21 UNL     1      22.571   5.158  51.494  1.00  0.00     0.187 C 
HETATM   24  O3  UNL     1      21.670   4.626  50.854  1.00  0.00    -0.383 OA
HETATM   25  H14 UNL     1      21.737   0.309  50.206  1.00  0.00     0.159 HD
HETATM   26  H20 UNL     1      28.056   0.360  51.822  1.00  0.00     0.172 HD
HETATM   27  H22 UNL     1      25.203   3.425  50.149  1.00  0.00     0.158 HD
ENDROOT
BRANCH   1  28
HETATM   28  C3  UNL     1      19.634   5.346  50.117  1.00  0.00     0.147 C 
BRANCH  28  29
HETATM   29  N1  UNL     1      19.887   6.157  49.053  1.00  0.00    -0.418 N 
HETATM   30  C1  UNL     1      19.249   6.213  47.820  1.00  0.00     0.142 C 
HETATM   31  C2  UNL     1      20.138   7.535  49.567  1.00  0.00     0.142 C 
ENDBRANCH  28  29
ENDBRANCH   1  28
TORSDOF 2
ENDMDL
MODEL 5
REMARK VINA RESULT:      -8.3      2.527      6.028
REMARK  2 active torsions:
REMARK  status: ('A' for Active; 'I' for Inactive)
REMARK    1  A    between atoms: N1_2  and  C3_4 
REMARK    2  A    between atoms: C3_4  and  C4_5 
ROOT
HETATM    1  C4  UNL     1      21.518   4.399  49.038  1.00  0.00     0.140 C 
HETATM    2  C5  UNL     1      20.173   3.795  49.040  1.00  0.00     0.053 C 
HETATM    3  C6  UNL     1      19.914   2.454  48.566  1.00  0.00     0.122 C 
HETATM    4  N2  UNL     1      20.396   1.344  49.286  1.00  0.00    -0.389 N 
HETATM    5  C7  UNL     1      20.181   0.778  50.557  1.00  0.00     0.039 A 
HETATM    6  C8  UNL     1      19.146   0.233  51.149  1.00  0.00     0.001 A 
HETATM    7  C9  UNL     1      17.795  -0.141  50.808  1.00  0.00     0.014 A 
HETATM    8  C10 UNL     1      17.336  -0.675  51.955  1.00  0.00     0.002 A 
HETATM    9  C11 UNL     1      18.288  -0.695  53.082  1.00  0.00     0.013 A 
HETATM   10  C12 UNL     1      19.330  -0.151  52.549  1.00  0.00    -0.016 A 
HETATM   11  C13 UNL     1      20.696   0.222  52.833  1.00  0.00    -0.027 A 
HETATM   12  C14 UNL     1      21.117   0.732  51.653  1.00  0.00     0.039 A 
HETATM   13  C15 UNL     1      21.879   0.356  53.832  1.00  0.00     0.152 C 
HETATM   14  C16 UNL     1      22.573  -0.906  53.813  1.00  0.00     0.237 C 
HETATM   15  O1  UNL     1      21.898  -2.016  53.806  1.00  0.00    -0.272 OA
HETATM   16  N3  UNL     1      23.987  -0.767  53.809  1.00  0.00    -0.293 N 
HETATM   17  C17 UNL     1      24.028   0.611  53.356  1.00  0.00     0.256 C 
HETATM   18  O2  UNL     1      25.264   0.996  53.273  1.00  0.00    -0.267 OA
HETATM   19  C18 UNL     1      22.751   1.344  53.076  1.00  0.00     0.043 C 
HETATM   20  C19 UNL     1      23.210   2.381  52.428  1.00  0.00     0.097 C 
HETATM   21  N4  UNL     1      24.156   3.137  51.748  1.00  0.00    -0.396 N 
HETATM   22  C20 UNL     1      23.795   4.505  51.852  1.00  0.00     0.145 C 
HETATM   23  C21 UNL     1      22.432   4.879  51.333  1.00  0.00     0.187 C 
HETATM   24  O3  UNL     1      21.985   4.645  50.215  1.00  0.00    -0.383 OA
HETATM   25  H14 UNL     1      21.014   0.539  49.092  1.00  0.00     0.159 HD
HETATM   26  H20 UNL     1      24.673  -1.489  54.096  1.00  0.00     0.172 HD
HETATM   27  H22 UNL     1      24.595   2.231  51.548  1.00  0.00     0.158 HD
ENDROOT
BRANCH   1  28
HETATM   28  C3  UNL     1      21.176   5.969  48.542  1.00  0.00     0.147 C 
BRANCH  28  29
HETATM   29  N1  UNL     1      22.262   6.547  47.960  1.00  0.00    -0.418 N 
HETATM   30  C1  UNL     1      22.543   6.731  46.612  1.00  0.00     0.142 C 
HETATM   31  C2  UNL     1      22.601   7.779  48.730  1.00  0.00     0.142 C 
ENDBRANCH  28  29
ENDBRANCH   1  28
TORSDOF 2
ENDMDL
MODEL 6
REMARK VINA RESULT:      -8.2      3.243      6.714
REMARK  2 active torsions:
REMARK  status: ('A' for Active; 'I' for Inactive)
REMARK    1  A    between atoms: N1_2  and  C3_4 
REMARK    2  A    between atoms: C3_4  and  C4_5 
ROOT
HETATM    1  C4  UNL     1      24.858   2.443  52.299  1.00  0.00     0.140 C 
HETATM    2  C5  UNL     1      26.241   2.716  51.868  1.00  0.00     0.053 C 
HETATM    3  C6  UNL     1      26.720   2.423  50.535  1.00  0.00     0.122 C 
HETATM    4  N2  UNL     1      26.247   3.163  49.435  1.00  0.00    -0.389 N 
HETATM    5  C7  UNL     1      26.306   4.501  49.001  1.00  0.00     0.039 A 
HETATM    6  C8  UNL     1      27.279   5.300  48.637  1.00  0.00     0.001 A 
HETATM    7  C9  UNL     1      28.701   5.214  48.406  1.00  0.00     0.014 A 
HETATM    8  C10 UNL     1      29.015   6.466  48.026  1.00  0.00     0.002 A 
HETATM    9  C11 UNL     1      27.896   7.426  47.977  1.00  0.00     0.013 A 
HETATM   10  C12 UNL     1      26.905   6.684  48.345  1.00  0.00    -0.016 A 
HETATM   11  C13 UNL     1      25.478   6.711  48.567  1.00  0.00    -0.027 A 
HETATM   12  C14 UNL     1      25.209   5.435  48.927  1.00  0.00     0.039 A 
HETATM   13  C15 UNL     1      24.137   7.493  48.633  1.00  0.00     0.152 C 
HETATM   14  C16 UNL     1      23.597   7.488  47.298  1.00  0.00     0.237 C 
HETATM   15  O1  UNL     1      24.381   7.696  46.282  1.00  0.00    -0.272 OA
HETATM   16  N3  UNL     1      22.198   7.247  47.260  1.00  0.00    -0.293 N 
HETATM   17  C17 UNL     1      22.084   6.660  48.582  1.00  0.00     0.256 C 
HETATM   18  O2  UNL     1      20.846   6.346  48.804  1.00  0.00    -0.267 OA
HETATM   19  C18 UNL     1      23.302   6.515  49.443  1.00  0.00     0.043 C 
HETATM   20  C19 UNL     1      22.849   5.704  50.362  1.00  0.00     0.097 C 
HETATM   21  N4  UNL     1      21.954   4.813  50.938  1.00  0.00    -0.396 N 
HETATM   22  C20 UNL     1      22.142   4.837  52.345  1.00  0.00     0.145 C 
HETATM   23  C21 UNL     1      23.524   4.506  52.842  1.00  0.00     0.187 C 
HETATM   24  O3  UNL     1      24.175   3.502  52.577  1.00  0.00    -0.383 OA
HETATM   25  H14 UNL     1      25.763   2.954  48.547  1.00  0.00     0.159 HD
HETATM   26  H20 UNL     1      21.556   7.491  46.484  1.00  0.00     0.172 HD
HETATM   27  H22 UNL     1      21.656   4.636  49.972  1.00  0.00     0.158 HD
ENDROOT
BRANCH   1  28
HETATM   28  C3  UNL     1      25.106   1.855  53.855  1.00  0.00     0.147 C 
BRANCH  28  29
HETATM   29  N1  UNL     1      25.713   0.637  53.828  1.00  0.00    -0.418 N 
HETATM   30  C1  UNL     1      26.796   0.179  54.567  1.00  0.00     0.142 C 
HETATM   31  C2  UNL     1      24.652  -0.410  53.765  1.00  0.00     0.142 C 
ENDBRANCH  28  29
ENDBRANCH   1  28
TORSDOF 2
ENDMDL
MODEL 7
REMARK VINA RESULT:      -8.2      1.933      6.236
REMARK  2 active torsions:
REMARK  status: ('A' for Active; 'I' for Inactive)
REMARK    1  A    between atoms: N1_2  and  C3_4 
REMARK    2  A    between atoms: C3_4  and  C4_5 
ROOT
HETATM    1  C4  UNL     1      26.377   0.701  52.083  1.00  0.00     0.140 C 
HETATM    2  C5  UNL     1      26.711   2.111  51.809  1.00  0.00     0.053 C 
HETATM    3  C6  UNL     1      26.442   2.749  50.540  1.00  0.00     0.122 C 
HETATM    4  N2  UNL     1      25.115   3.002  50.143  1.00  0.00    -0.389 N 
HETATM    5  C7  UNL     1      24.044   3.794  50.600  1.00  0.00     0.039 A 
HETATM    6  C8  UNL     1      23.853   5.085  50.724  1.00  0.00     0.001 A 
HETATM    7  C9  UNL     1      24.549   6.305  50.391  1.00  0.00     0.014 A 
HETATM    8  C10 UNL     1      23.700   7.257  50.821  1.00  0.00     0.002 A 
HETATM    9  C11 UNL     1      22.449   6.775  51.437  1.00  0.00     0.013 A 
HETATM   10  C12 UNL     1      22.596   5.495  51.351  1.00  0.00    -0.016 A 
HETATM   11  C13 UNL     1      21.931   4.246  51.642  1.00  0.00    -0.027 A 
HETATM   12  C14 UNL     1      22.809   3.327  51.178  1.00  0.00     0.039 A 
HETATM   13  C15 UNL     1      20.738   3.464  52.258  1.00  0.00     0.152 C 
HETATM   14  C16 UNL     1      19.733   3.380  51.230  1.00  0.00     0.237 C 
HETATM   15  O1  UNL     1      19.472   4.419  50.493  1.00  0.00    -0.272 OA
HETATM   16  N3  UNL     1      19.117   2.102  51.151  1.00  0.00    -0.293 N 
HETATM   17  C17 UNL     1      20.148   1.366  51.857  1.00  0.00     0.256 C 
HETATM   18  O2  UNL     1      19.806   0.117  51.930  1.00  0.00    -0.267 OA
HETATM   19  C18 UNL     1      21.360   2.082  52.370  1.00  0.00     0.043 C 
HETATM   20  C19 UNL     1      22.138   1.068  52.644  1.00  0.00     0.097 C 
HETATM   21  N4  UNL     1      22.546  -0.259  52.627  1.00  0.00    -0.396 N 
HETATM   22  C20 UNL     1      23.388  -0.482  53.748  1.00  0.00     0.145 C 
HETATM   23  C21 UNL     1      24.613   0.387  53.849  1.00  0.00     0.187 C 
HETATM   24  O3  UNL     1      25.473   0.542  52.988  1.00  0.00    -0.383 OA
HETATM   25  H14 UNL     1      24.513   2.746  49.344  1.00  0.00     0.159 HD
HETATM   26  H20 UNL     1      18.195   1.893  50.724  1.00  0.00     0.172 HD
HETATM   27  H22 UNL     1      21.980  -0.322  51.773  1.00  0.00     0.158 HD
ENDROOT
BRANCH   1  28
HETATM   28  C3  UNL     1      27.729   0.203  52.949  1.00  0.00     0.147 C 
BRANCH  28  29
HETATM   29  N1  UNL     1      27.742  -1.150  53.103  1.00  0.00    -0.418 N 
HETATM   30  C1  UNL     1      27.048  -2.122  52.393  1.00  0.00     0.142 C 
HETATM   31  C2  UNL     1      29.154  -1.580  53.320  1.00  0.00     0.142 C 
ENDBRANCH  28  29
ENDBRANCH   1  28
TORSDOF 2
ENDMDL
MODEL 8
REMARK VINA RESULT:      -8.2      3.202      4.418
REMARK  2 active torsions:
REMARK  status: ('A' for Active; 'I' for Inactive)
REMARK    1  A    between atoms: N1_2  and  C3_4 
REMARK    2  A    between atoms: C3_4  and  C4_5 
ROOT
HETATM    1  C4  UNL     1      20.955   6.900  49.791  1.00  0.00     0.140 C 
HETATM    2  C5  UNL     1      22.097   7.527  49.100  1.00  0.00     0.053 C 
HETATM    3  C6  UNL     1      23.230   8.086  49.804  1.00  0.00     0.122 C 
HETATM    4  N2  UNL     1      24.125   7.242  50.487  1.00  0.00    -0.389 N 
HETATM    5  C7  UNL     1      25.032   6.221  50.143  1.00  0.00     0.039 A 
HETATM    6  C8  UNL     1      26.131   6.179  49.429  1.00  0.00     0.001 A 
HETATM    7  C9  UNL     1      26.993   7.110  48.742  1.00  0.00     0.014 A 
HETATM    8  C10 UNL     1      27.955   6.311  48.244  1.00  0.00     0.002 A 
HETATM    9  C11 UNL     1      27.816   4.873  48.541  1.00  0.00     0.013 A 
HETATM   10  C12 UNL     1      26.729   4.858  49.239  1.00  0.00    -0.016 A 
HETATM   11  C13 UNL     1      25.846   3.971  49.960  1.00  0.00    -0.027 A 
HETATM   12  C14 UNL     1      24.914   4.818  50.455  1.00  0.00     0.039 A 
HETATM   13  C15 UNL     1      25.435   2.538  50.398  1.00  0.00     0.152 C 
HETATM   14  C16 UNL     1      26.169   2.254  51.604  1.00  0.00     0.237 C 
HETATM   15  O1  UNL     1      27.422   2.588  51.693  1.00  0.00    -0.272 OA
HETATM   16  N3  UNL     1      25.387   1.605  52.597  1.00  0.00    -0.293 N 
HETATM   17  C17 UNL     1      24.088   1.968  52.062  1.00  0.00     0.256 C 
HETATM   18  O2  UNL     1      23.161   1.467  52.818  1.00  0.00    -0.267 OA
HETATM   19  C18 UNL     1      23.996   2.794  50.815  1.00  0.00     0.043 C 
HETATM   20  C19 UNL     1      22.738   3.143  50.852  1.00  0.00     0.097 C 
HETATM   21  N4  UNL     1      21.480   3.299  51.420  1.00  0.00    -0.396 N 
HETATM   22  C20 UNL     1      20.521   3.353  50.375  1.00  0.00     0.145 C 
HETATM   23  C21 UNL     1      20.712   4.436  49.346  1.00  0.00     0.187 C 
HETATM   24  O3  UNL     1      20.832   5.637  49.562  1.00  0.00    -0.383 OA
HETATM   25  H14 UNL     1      24.465   7.141  51.457  1.00  0.00     0.159 HD
HETATM   26  H20 UNL     1      25.748   1.046  53.391  1.00  0.00     0.172 HD
HETATM   27  H22 UNL     1      21.987   3.288  52.312  1.00  0.00     0.158 HD
ENDROOT
BRANCH   1  28
HETATM   28  C3  UNL     1      19.663   7.475  48.882  1.00  0.00     0.147 C 
BRANCH  28  29
HETATM   29  N1  UNL     1      19.643   8.836  48.865  1.00  0.00    -0.418 N 
HETATM   30  C1  UNL     1      19.073   9.694  47.932  1.00  0.00     0.142 C 
HETATM   31  C2  UNL     1      19.358   9.315  50.248  1.00  0.00     0.142 C 
ENDBRANCH  28  29
ENDBRANCH   1  28
TORSDOF 2
ENDMDL
MODEL 9
REMARK VINA RESULT:      -8.0      2.652      4.160
REMARK  2 active torsions:
REMARK  status: ('A' for Active; 'I' for Inactive)
REMARK    1  A    between atoms: N1_2  and  C3_4 
REMARK    2  A    between atoms: C3_4  and  C4_5 
ROOT
HETATM    1  C4  UNL     1      16.706   1.870  51.740  1.00  0.00     0.140 C 
HETATM    2  C5  UNL     1      17.400   2.773  50.803  1.00  0.00     0.053 C 
HETATM    3  C6  UNL     1      18.233   3.870  51.243  1.00  0.00     0.122 C 
HETATM    4  N2  UNL     1      19.461   3.613  51.882  1.00  0.00    -0.389 N 
HETATM    5  C7  UNL     1      20.688   3.014  51.538  1.00  0.00     0.039 A 
HETATM    6  C8  UNL     1      21.631   3.299  50.674  1.00  0.00     0.001 A 
HETATM    7  C9  UNL     1      21.943   4.358  49.744  1.00  0.00     0.014 A 
HETATM    8  C10 UNL     1      23.110   3.950  49.211  1.00  0.00     0.002 A 
HETATM    9  C11 UNL     1      23.634   2.665  49.713  1.00  0.00     0.013 A 
HETATM   10  C12 UNL     1      22.724   2.332  50.567  1.00  0.00    -0.016 A 
HETATM   11  C13 UNL     1      22.378   1.311  51.527  1.00  0.00    -0.027 A 
HETATM   12  C14 UNL     1      21.216   1.772  52.045  1.00  0.00     0.039 A 
HETATM   13  C15 UNL     1      22.666  -0.056  52.207  1.00  0.00     0.152 C 
HETATM   14  C16 UNL     1      23.551   0.218  53.311  1.00  0.00     0.237 C 
HETATM   15  O1  UNL     1      24.538   1.049  53.159  1.00  0.00    -0.272 OA
HETATM   16  N3  UNL     1      23.214  -0.500  54.490  1.00  0.00    -0.293 N 
HETATM   17  C17 UNL     1      21.846  -0.812  54.122  1.00  0.00     0.256 C 
HETATM   18  O2  UNL     1      21.296  -1.502  55.072  1.00  0.00    -0.267 OA
HETATM   19  C18 UNL     1      21.300  -0.345  52.807  1.00  0.00     0.043 C 
HETATM   20  C19 UNL     1      20.023  -0.547  52.993  1.00  0.00     0.097 C 
HETATM   21  N4  UNL     1      18.875  -0.822  53.725  1.00  0.00    -0.396 N 
HETATM   22  C20 UNL     1      17.903  -1.363  52.845  1.00  0.00     0.145 C 
HETATM   23  C21 UNL     1      17.518  -0.510  51.666  1.00  0.00     0.187 C 
HETATM   24  O3  UNL     1      17.123   0.650  51.700  1.00  0.00    -0.383 OA
HETATM   25  H14 UNL     1      19.892   3.844  52.792  1.00  0.00     0.159 HD
HETATM   26  H20 UNL     1      23.848  -0.703  55.285  1.00  0.00     0.172 HD
HETATM   27  H22 UNL     1      19.411  -0.457  54.521  1.00  0.00     0.158 HD
ENDROOT
BRANCH   1  28
HETATM   28  C3  UNL     1      15.220   1.681  50.976  1.00  0.00     0.147 C 
BRANCH  28  29
HETATM   29  N1  UNL     1      14.300   1.136  51.820  1.00  0.00    -0.418 N 
HETATM   30  C1  UNL     1      13.940   1.533  53.101  1.00  0.00     0.142 C 
HETATM   31  C2  UNL     1      13.086   0.793  51.025  1.00  0.00     0.142 C 
ENDBRANCH  28  29
ENDBRANCH   1  28
TORSDOF 2
ENDMDL
