MODEL 1
REMARK VINA RESULT:      -8.1      0.000      0.000
REMARK  6 active torsions:
REMARK  status: ('A' for Active; 'I' for Inactive)
REMARK    1  A    between atoms: O1_2  and  C2_3 
REMARK    2  A    between atoms: C3_4  and  C4_5 
REMARK    3  A    between atoms: C4_5  and  C5_6 
REMARK    4  A    between atoms: C5_6  and  O2_7 
REMARK    5  A    between atoms: C8_12  and  N3_13 
REMARK    6  A    between atoms: N3_13  and  C9_14 
ROOT
HETATM    1  C2  UNL     1      20.251   0.269  52.771  1.00  0.00     0.083 C 
HETATM    2  C3  UNL     1      20.727   1.338  52.107  1.00  0.00     0.005 C 
HETATM    3  C6  UNL     1      22.081   1.874  52.108  1.00  0.00     0.077 A 
HETATM    4  N1  UNL     1      21.967   3.074  51.644  1.00  0.00    -0.241 NA
HETATM    5  C7  UNL     1      23.177   3.808  51.548  1.00  0.00     0.230 A 
HETATM    6  N2  UNL     1      24.349   3.456  51.850  1.00  0.00    -0.252 NA
HETATM    7  C8  UNL     1      24.659   2.173  52.373  1.00  0.00     0.243 A 
HETATM    8  C15 UNL     1      23.403   1.394  52.499  1.00  0.00     0.013 A 
HETATM    9  C16 UNL     1      23.740   0.213  53.039  1.00  0.00     0.012 C 
HETATM   10  C17 UNL     1      23.165  -1.061  53.487  1.00  0.00     0.197 C 
HETATM   11  O3  UNL     1      21.917  -1.361  53.043  1.00  0.00    -0.376 OA
HETATM   12  C18 UNL     1      20.857  -0.748  53.699  1.00  0.00     0.174 C 
HETATM   13  C19 UNL     1      21.218  -0.062  54.973  1.00  0.00     0.046 C 
ENDROOT
BRANCH   7  14
HETATM   14  N3  UNL     1      25.718   1.453  51.759  1.00  0.00    -0.363 N 
HETATM   15  H11 UNL     1      25.711   1.292  50.702  1.00  0.00     0.162 HD
BRANCH  14  16
HETATM   16  C9  UNL     1      26.856   0.884  52.391  1.00  0.00     0.031 A 
HETATM   17  C10 UNL     1      27.819   1.617  53.049  1.00  0.00     0.032 A 
HETATM   18  C11 UNL     1      28.933   1.103  53.677  1.00  0.00     0.046 A 
HETATM   19  C12 UNL     1      29.122  -0.263  53.658  1.00  0.00     0.138 A 
HETATM   20  F1  UNL     1      30.179  -0.853  54.245  1.00  0.00    -0.204 F 
HETATM   21  C13 UNL     1      28.192  -1.049  53.015  1.00  0.00     0.074 A 
HETATM   22 CL1  UNL     1      28.419  -2.770  52.984  1.00  0.00    -0.081 Cl
HETATM   23  C14 UNL     1      27.111  -0.466  52.415  1.00  0.00     0.056 A 
ENDBRANCH  14  16
ENDBRANCH   7  14
BRANCH   2  24
HETATM   24  C4  UNL     1      19.762   2.078  51.282  1.00  0.00     0.070 C 
BRANCH  24  25
HETATM   25  C5  UNL     1      19.780   1.567  49.868  1.00  0.00     0.168 C 
BRANCH  25  26
HETATM   26  O2  UNL     1      18.635   0.785  49.604  1.00  0.00    -0.401 OA
HETATM   27  H8  UNL     1      18.930   0.098  48.953  1.00  0.00     0.209 HD
ENDBRANCH  25  26
ENDBRANCH  24  25
ENDBRANCH   2  24
BRANCH   1  28
HETATM   28  O1  UNL     1      18.905   0.138  52.492  1.00  0.00    -0.357 OA
HETATM   29  C1  UNL     1      18.105  -0.952  52.880  1.00  0.00     0.209 C 
ENDBRANCH   1  28
TORSDOF 6
ENDMDL
MODEL 2
REMARK VINA RESULT:      -7.8      4.204      5.404
REMARK  6 active torsions:
REMARK  status: ('A' for Active; 'I' for Inactive)
REMARK    1  A    between atoms: O1_2  and  C2_3 
REMARK    2  A    between atoms: C3_4  and  C4_5 
REMARK    3  A    between atoms: C4_5  and  C5_6 
REMARK    4  A    between atoms: C5_6  and  O2_7 
REMARK    5  A    between atoms: C8_12  and  N3_13 
REMARK    6  A    between atoms: N3_13  and  C9_14 
ROOT
HETATM    1  C2  UNL     1      24.056   0.111  53.354  1.00  0.00     0.083 C 
HETATM    2  C3  UNL     1      23.249   1.049  52.826  1.00  0.00     0.005 C 
HETATM    3  C6  UNL     1      23.620   2.278  52.137  1.00  0.00     0.077 A 
HETATM    4  N1  UNL     1      22.553   3.004  52.150  1.00  0.00    -0.241 NA
HETATM    5  C7  UNL     1      22.671   4.272  51.524  1.00  0.00     0.230 A 
HETATM    6  N2  UNL     1      23.670   4.790  50.955  1.00  0.00    -0.252 NA
HETATM    7  C8  UNL     1      24.924   4.133  50.848  1.00  0.00     0.243 A 
HETATM    8  C15 UNL     1      24.827   2.812  51.513  1.00  0.00     0.013 A 
HETATM    9  C16 UNL     1      26.044   2.252  51.428  1.00  0.00     0.012 C 
HETATM   10  C17 UNL     1      26.792   1.046  51.802  1.00  0.00     0.197 C 
HETATM   11  O3  UNL     1      26.063  -0.046  52.150  1.00  0.00    -0.376 OA
HETATM   12  C18 UNL     1      25.547  -0.067  53.440  1.00  0.00     0.174 C 
HETATM   13  C19 UNL     1      26.092   0.979  54.352  1.00  0.00     0.046 C 
ENDROOT
BRANCH   7  14
HETATM   14  N3  UNL     1      25.530   4.083  49.564  1.00  0.00    -0.363 N 
HETATM   15  H11 UNL     1      25.330   3.261  48.911  1.00  0.00     0.162 HD
BRANCH  14  16
HETATM   16  C9  UNL     1      26.418   5.032  48.991  1.00  0.00     0.031 A 
HETATM   17  C10 UNL     1      26.053   6.314  48.640  1.00  0.00     0.032 A 
HETATM   18  C11 UNL     1      26.884   7.264  48.086  1.00  0.00     0.046 A 
HETATM   19  C12 UNL     1      28.200   6.926  47.854  1.00  0.00     0.138 A 
HETATM   20  F1  UNL     1      29.083   7.787  47.317  1.00  0.00    -0.204 F 
HETATM   21  C13 UNL     1      28.624   5.657  48.184  1.00  0.00     0.074 A 
HETATM   22 CL1  UNL     1      30.279   5.219  47.895  1.00  0.00    -0.081 Cl
HETATM   23  C14 UNL     1      27.741   4.769  48.730  1.00  0.00     0.056 A 
ENDBRANCH  14  16
ENDBRANCH   7  14
BRANCH   2  24
HETATM   24  C4  UNL     1      21.804   0.824  52.969  1.00  0.00     0.070 C 
BRANCH  24  25
HETATM   25  C5  UNL     1      21.243   0.205  51.719  1.00  0.00     0.168 C 
BRANCH  25  26
HETATM   26  O2  UNL     1      20.370   1.101  51.065  1.00  0.00    -0.401 OA
HETATM   27  H8  UNL     1      20.341   0.798  50.121  1.00  0.00     0.209 HD
ENDBRANCH  25  26
ENDBRANCH  24  25
ENDBRANCH   2  24
BRANCH   1  28
HETATM   28  O1  UNL     1      23.274  -0.873  53.927  1.00  0.00    -0.357 OA
HETATM   29  C1  UNL     1      23.358  -1.287  55.269  1.00  0.00     0.209 C 
ENDBRANCH   1  28
TORSDOF 6
ENDMDL
MODEL 3
REMARK VINA RESULT:      -7.8      4.599      7.602
REMARK  6 active torsions:
REMARK  status: ('A' for Active; 'I' for Inactive)
REMARK    1  A    between atoms: O1_2  and  C2_3 
REMARK    2  A    between atoms: C3_4  and  C4_5 
REMARK    3  A    between atoms: C4_5  and  C5_6 
REMARK    4  A    between atoms: C5_6  and  O2_7 
REMARK    5  A    between atoms: C8_12  and  N3_13 
REMARK    6  A    between atoms: N3_13  and  C9_14 
ROOT
HETATM    1  C2  UNL     1      26.432   1.573  52.473  1.00  0.00     0.083 C 
HETATM    2  C3  UNL     1      25.438   2.138  51.764  1.00  0.00     0.005 C 
HETATM    3  C6  UNL     1      24.087   1.640  51.546  1.00  0.00     0.077 A 
HETATM    4  N1  UNL     1      23.643   2.308  50.534  1.00  0.00    -0.241 NA
HETATM    5  C7  UNL     1      22.320   1.993  50.129  1.00  0.00     0.230 A 
HETATM    6  N2  UNL     1      21.515   1.153  50.617  1.00  0.00    -0.252 NA
HETATM    7  C8  UNL     1      21.836   0.334  51.730  1.00  0.00     0.243 A 
HETATM    8  C15 UNL     1      23.224   0.635  52.159  1.00  0.00     0.013 A 
HETATM    9  C16 UNL     1      23.496  -0.194  53.178  1.00  0.00     0.012 C 
HETATM   10  C17 UNL     1      24.560  -0.561  54.120  1.00  0.00     0.197 C 
HETATM   11  O3  UNL     1      25.581   0.323  54.266  1.00  0.00    -0.376 OA
HETATM   12  C18 UNL     1      26.562   0.313  53.283  1.00  0.00     0.174 C 
HETATM   13  C19 UNL     1      26.506  -0.850  52.351  1.00  0.00     0.046 C 
ENDROOT
BRANCH   7  14
HETATM   14  N3  UNL     1      20.904   0.289  52.802  1.00  0.00    -0.363 N 
HETATM   15  H11 UNL     1      21.103   0.826  53.704  1.00  0.00     0.162 HD
BRANCH  14  16
HETATM   16  C9  UNL     1      19.670  -0.411  52.843  1.00  0.00     0.031 A 
HETATM   17  C10 UNL     1      19.421  -1.485  53.671  1.00  0.00     0.032 A 
HETATM   18  C11 UNL     1      18.238  -2.188  53.744  1.00  0.00     0.046 A 
HETATM   19  C12 UNL     1      17.196  -1.800  52.928  1.00  0.00     0.138 A 
HETATM   20  F1  UNL     1      16.005  -2.426  52.931  1.00  0.00    -0.204 F 
HETATM   21  C13 UNL     1      17.384  -0.732  52.078  1.00  0.00     0.074 A 
HETATM   22 CL1  UNL     1      16.080  -0.235  51.045  1.00  0.00    -0.081 Cl
HETATM   23  C14 UNL     1      18.587  -0.084  52.062  1.00  0.00     0.056 A 
ENDBRANCH  14  16
ENDBRANCH   7  14
BRANCH   2  24
HETATM   24  C4  UNL     1      25.747   3.416  51.107  1.00  0.00     0.070 C 
BRANCH  24  25
HETATM   25  C5  UNL     1      26.485   3.177  49.818  1.00  0.00     0.168 C 
BRANCH  25  26
HETATM   26  O2  UNL     1      27.578   4.062  49.697  1.00  0.00    -0.401 OA
HETATM   27  H8  UNL     1      27.218   4.864  49.240  1.00  0.00     0.209 HD
ENDBRANCH  25  26
ENDBRANCH  24  25
ENDBRANCH   2  24
BRANCH   1  28
HETATM   28  O1  UNL     1      27.548   2.384  52.393  1.00  0.00    -0.357 OA
HETATM   29  C1  UNL     1      28.549   2.473  53.377  1.00  0.00     0.209 C 
ENDBRANCH   1  28
TORSDOF 6
ENDMDL
MODEL 4
REMARK VINA RESULT:      -7.7      4.268      6.455
REMARK  6 active torsions:
REMARK  status: ('A' for Active; 'I' for Inactive)
REMARK    1  A    between atoms: O1_2  and  C2_3 
REMARK    2  A    between atoms: C3_4  and  C4_5 
REMARK    3  A    between atoms: C4_5  and  C5_6 
REMARK    4  A    between atoms: C5_6  and  O2_7 
REMARK    5  A    between atoms: C8_12  and  N3_13 
REMARK    6  A    between atoms: N3_13  and  C9_14 
ROOT
HETATM    1  C2  UNL     1      22.787  -0.175  53.081  1.00  0.00     0.083 C 
HETATM    2  C3  UNL     1      24.079   0.150  52.898  1.00  0.00     0.005 C 
HETATM    3  C6  UNL     1      24.632   1.277  52.160  1.00  0.00     0.077 A 
HETATM    4  N1  UNL     1      25.869   0.969  51.954  1.00  0.00    -0.241 NA
HETATM    5  C7  UNL     1      26.627   1.933  51.241  1.00  0.00     0.230 A 
HETATM    6  N2  UNL     1      26.266   3.050  50.780  1.00  0.00    -0.252 NA
HETATM    7  C8  UNL     1      24.944   3.549  50.915  1.00  0.00     0.243 A 
HETATM    8  C15 UNL     1      24.129   2.546  51.643  1.00  0.00     0.013 A 
HETATM    9  C16 UNL     1      22.882   3.040  51.703  1.00  0.00     0.012 C 
HETATM   10  C17 UNL     1      21.535   2.727  52.196  1.00  0.00     0.197 C 
HETATM   11  O3  UNL     1      21.436   1.742  53.126  1.00  0.00    -0.376 OA
HETATM   12  C18 UNL     1      21.478   0.435  52.659  1.00  0.00     0.174 C 
HETATM   13  C19 UNL     1      21.350   0.291  51.180  1.00  0.00     0.046 C 
ENDROOT
BRANCH   7  14
HETATM   14  N3  UNL     1      24.790   4.874  51.404  1.00  0.00    -0.363 N 
HETATM   15  H11 UNL     1      24.700   5.048  52.455  1.00  0.00     0.162 HD
BRANCH  14  16
HETATM   16  C9  UNL     1      24.738   6.073  50.646  1.00  0.00     0.031 A 
HETATM   17  C10 UNL     1      23.811   7.073  50.849  1.00  0.00     0.032 A 
HETATM   18  C11 UNL     1      23.729   8.251  50.139  1.00  0.00     0.046 A 
HETATM   19  C12 UNL     1      24.645   8.472  49.132  1.00  0.00     0.138 A 
HETATM   20  F1  UNL     1      24.642   9.593  48.387  1.00  0.00    -0.204 F 
HETATM   21  C13 UNL     1      25.597   7.509  48.882  1.00  0.00     0.074 A 
HETATM   22 CL1  UNL     1      26.755   7.775  47.616  1.00  0.00    -0.081 Cl
HETATM   23  C14 UNL     1      25.615   6.365  49.629  1.00  0.00     0.056 A 
ENDBRANCH  14  16
ENDBRANCH   7  14
BRANCH   2  24
HETATM   24  C4  UNL     1      25.072  -0.750  53.502  1.00  0.00     0.070 C 
BRANCH  24  25
HETATM   25  C5  UNL     1      25.329  -0.362  54.932  1.00  0.00     0.168 C 
BRANCH  25  26
HETATM   26  O2  UNL     1      24.976  -1.412  55.806  1.00  0.00    -0.401 OA
HETATM   27  H8  UNL     1      25.647  -2.124  55.648  1.00  0.00     0.209 HD
ENDBRANCH  25  26
ENDBRANCH  24  25
ENDBRANCH   2  24
BRANCH   1  28
HETATM   28  O1  UNL     1      22.725  -1.334  53.829  1.00  0.00    -0.357 OA
HETATM   29  C1  UNL     1      21.588  -1.781  54.527  1.00  0.00     0.209 C 
ENDBRANCH   1  28
TORSDOF 6
ENDMDL
MODEL 5
REMARK VINA RESULT:      -7.6      1.807      3.153
REMARK  6 active torsions:
REMARK  status: ('A' for Active; 'I' for Inactive)
REMARK    1  A    between atoms: O1_2  and  C2_3 
REMARK    2  A    between atoms: C3_4  and  C4_5 
REMARK    3  A    between atoms: C4_5  and  C5_6 
REMARK    4  A    between atoms: C5_6  and  O2_7 
REMARK    5  A    between atoms: C8_12  and  N3_13 
REMARK    6  A    between atoms: N3_13  and  C9_14 
ROOT
HETATM    1  C2  UNL     1      19.943   1.304  51.300  1.00  0.00     0.083 C 
HETATM    2  C3  UNL     1      20.273   0.689  52.450  1.00  0.00     0.005 C 
HETATM    3  C6  UNL     1      21.592   0.268  52.904  1.00  0.00     0.077 A 
HETATM    4  N1  UNL     1      21.365  -0.579  53.852  1.00  0.00    -0.241 NA
HETATM    5  C7  UNL     1      22.519  -1.136  54.461  1.00  0.00     0.230 A 
HETATM    6  N2  UNL     1      23.736  -0.920  54.210  1.00  0.00    -0.252 NA
HETATM    7  C8  UNL     1      24.167  -0.020  53.200  1.00  0.00     0.243 A 
HETATM    8  C15 UNL     1      22.974   0.559  52.538  1.00  0.00     0.013 A 
HETATM    9  C16 UNL     1      23.432   1.363  51.565  1.00  0.00     0.012 C 
HETATM   10  C17 UNL     1      22.978   2.256  50.492  1.00  0.00     0.197 C 
HETATM   11  O3  UNL     1      21.689   2.679  50.550  1.00  0.00    -0.376 OA
HETATM   12  C18 UNL     1      20.718   1.790  50.106  1.00  0.00     0.174 C 
HETATM   13  C19 UNL     1      21.242   0.603  49.373  1.00  0.00     0.046 C 
ENDROOT
BRANCH   7  14
HETATM   14  N3  UNL     1      25.147   0.944  53.558  1.00  0.00    -0.363 N 
HETATM   15  H11 UNL     1      24.846   1.921  53.869  1.00  0.00     0.162 HD
BRANCH  14  16
HETATM   16  C9  UNL     1      26.558   0.781  53.561  1.00  0.00     0.031 A 
HETATM   17  C10 UNL     1      27.453   1.819  53.704  1.00  0.00     0.032 A 
HETATM   18  C11 UNL     1      28.826   1.702  53.716  1.00  0.00     0.046 A 
HETATM   19  C12 UNL     1      29.377   0.446  53.575  1.00  0.00     0.138 A 
HETATM   20  F1  UNL     1      30.705   0.236  53.576  1.00  0.00    -0.204 F 
HETATM   21  C13 UNL     1      28.532  -0.633  53.429  1.00  0.00     0.074 A 
HETATM   22 CL1  UNL     1      29.213  -2.220  53.251  1.00  0.00    -0.081 Cl
HETATM   23  C14 UNL     1      27.179  -0.437  53.427  1.00  0.00     0.056 A 
ENDBRANCH  14  16
ENDBRANCH   7  14
BRANCH   2  24
HETATM   24  C4  UNL     1      19.168   0.384  53.369  1.00  0.00     0.070 C 
BRANCH  24  25
HETATM   25  C5  UNL     1      18.489  -0.896  52.966  1.00  0.00     0.168 C 
BRANCH  25  26
HETATM   26  O2  UNL     1      17.509  -1.263  53.913  1.00  0.00    -0.401 OA
HETATM   27  H8  UNL     1      16.846  -1.801  53.411  1.00  0.00     0.209 HD
ENDBRANCH  25  26
ENDBRANCH  24  25
ENDBRANCH   2  24
BRANCH   1  28
HETATM   28  O1  UNL     1      18.575   1.497  51.279  1.00  0.00    -0.357 OA
HETATM   29  C1  UNL     1      17.861   2.077  50.215  1.00  0.00     0.209 C 
ENDBRANCH   1  28
TORSDOF 6
ENDMDL
MODEL 6
REMARK VINA RESULT:      -7.4      4.793      8.299
REMARK  6 active torsions:
REMARK  status: ('A' for Active; 'I' for Inactive)
REMARK    1  A    between atoms: O1_2  and  C2_3 
REMARK    2  A    between atoms: C3_4  and  C4_5 
REMARK    3  A    between atoms: C4_5  and  C5_6 
REMARK    4  A    between atoms: C5_6  and  O2_7 
REMARK    5  A    between atoms: C8_12  and  N3_13 
REMARK    6  A    between atoms: N3_13  and  C9_14 
ROOT
HETATM    1  C2  UNL     1      25.631   1.331  52.641  1.00  0.00     0.083 C 
HETATM    2  C3  UNL     1      25.096   0.255  53.245  1.00  0.00     0.005 C 
HETATM    3  C6  UNL     1      23.690  -0.042  53.485  1.00  0.00     0.077 A 
HETATM    4  N1  UNL     1      23.691  -0.961  54.392  1.00  0.00    -0.241 NA
HETATM    5  C7  UNL     1      22.411  -1.420  54.795  1.00  0.00     0.230 A 
HETATM    6  N2  UNL     1      21.271  -1.060  54.393  1.00  0.00    -0.252 NA
HETATM    7  C8  UNL     1      21.083  -0.062  53.401  1.00  0.00     0.243 A 
HETATM    8  C15 UNL     1      22.410   0.445  52.978  1.00  0.00     0.013 A 
HETATM    9  C16 UNL     1      22.178   1.414  52.079  1.00  0.00     0.012 C 
HETATM   10  C17 UNL     1      22.867   2.386  51.221  1.00  0.00     0.197 C 
HETATM   11  O3  UNL     1      24.190   2.176  50.995  1.00  0.00    -0.376 OA
HETATM   12  C18 UNL     1      25.065   2.568  52.000  1.00  0.00     0.174 C 
HETATM   13  C19 UNL     1      24.459   3.413  53.068  1.00  0.00     0.046 C 
ENDROOT
BRANCH   7  14
HETATM   14  N3  UNL     1      20.217  -0.372  52.317  1.00  0.00    -0.363 N 
HETATM   15  H11 UNL     1      20.620  -0.761  51.407  1.00  0.00     0.162 HD
BRANCH  14  16
HETATM   16  C9  UNL     1      18.805  -0.228  52.272  1.00  0.00     0.031 A 
HETATM   17  C10 UNL     1      17.923  -1.101  52.871  1.00  0.00     0.032 A 
HETATM   18  C11 UNL     1      16.549  -0.995  52.854  1.00  0.00     0.046 A 
HETATM   19  C12 UNL     1      15.984   0.070  52.184  1.00  0.00     0.138 A 
HETATM   20  F1  UNL     1      14.653   0.255  52.114  1.00  0.00    -0.204 F 
HETATM   21  C13 UNL     1      16.816   0.977  51.565  1.00  0.00     0.074 A 
HETATM   22 CL1  UNL     1      16.116   2.322  50.718  1.00  0.00    -0.081 Cl
HETATM   23  C14 UNL     1      18.170   0.805  51.626  1.00  0.00     0.056 A 
ENDBRANCH  14  16
ENDBRANCH   7  14
BRANCH   2  24
HETATM   24  C4  UNL     1      26.041  -0.753  53.745  1.00  0.00     0.070 C 
BRANCH  24  25
HETATM   25  C5  UNL     1      26.482  -1.658  52.628  1.00  0.00     0.168 C 
BRANCH  25  26
HETATM   26  O2  UNL     1      27.394  -2.627  53.100  1.00  0.00    -0.401 OA
HETATM   27  H8  UNL     1      28.284  -2.327  52.783  1.00  0.00     0.209 HD
ENDBRANCH  25  26
ENDBRANCH  24  25
ENDBRANCH   2  24
BRANCH   1  28
HETATM   28  O1  UNL     1      27.007   1.204  52.651  1.00  0.00    -0.357 OA
HETATM   29  C1  UNL     1      27.906   2.219  53.026  1.00  0.00     0.209 C 
ENDBRANCH   1  28
TORSDOF 6
ENDMDL
MODEL 7
REMARK VINA RESULT:      -7.3      7.250      9.127
REMARK  6 active torsions:
REMARK  status: ('A' for Active; 'I' for Inactive)
REMARK    1  A    between atoms: O1_2  and  C2_3 
REMARK    2  A    between atoms: C3_4  and  C4_5 
REMARK    3  A    between atoms: C4_5  and  C5_6 
REMARK    4  A    between atoms: C5_6  and  O2_7 
REMARK    5  A    between atoms: C8_12  and  N3_13 
REMARK    6  A    between atoms: N3_13  and  C9_14 
ROOT
HETATM    1  C2  UNL     1      24.408   8.379  48.012  1.00  0.00     0.083 C 
HETATM    2  C3  UNL     1      24.685   7.265  48.713  1.00  0.00     0.005 C 
HETATM    3  C6  UNL     1      25.902   6.465  48.696  1.00  0.00     0.077 A 
HETATM    4  N1  UNL     1      25.567   5.334  49.221  1.00  0.00    -0.241 NA
HETATM    5  C7  UNL     1      26.607   4.373  49.316  1.00  0.00     0.230 A 
HETATM    6  N2  UNL     1      27.813   4.467  48.960  1.00  0.00    -0.252 NA
HETATM    7  C8  UNL     1      28.353   5.637  48.365  1.00  0.00     0.243 A 
HETATM    8  C15 UNL     1      27.277   6.649  48.240  1.00  0.00     0.013 A 
HETATM    9  C16 UNL     1      27.823   7.713  47.633  1.00  0.00     0.012 C 
HETATM   10  C17 UNL     1      27.499   9.058  47.140  1.00  0.00     0.197 C 
HETATM   11  O3  UNL     1      26.356   9.623  47.608  1.00  0.00    -0.376 OA
HETATM   12  C18 UNL     1      25.168   9.212  47.016  1.00  0.00     0.174 C 
HETATM   13  C19 UNL     1      25.332   8.414  45.767  1.00  0.00     0.046 C 
ENDROOT
BRANCH   7  14
HETATM   14  N3  UNL     1      29.561   6.151  48.910  1.00  0.00    -0.363 N 
HETATM   15  H11 UNL     1      29.525   6.887  49.684  1.00  0.00     0.162 HD
BRANCH  14  16
HETATM   16  C9  UNL     1      30.889   5.802  48.548  1.00  0.00     0.031 A 
HETATM   17  C10 UNL     1      32.013   6.391  49.085  1.00  0.00     0.032 A 
HETATM   18  C11 UNL     1      33.317   6.079  48.765  1.00  0.00     0.046 A 
HETATM   19  C12 UNL     1      33.541   5.093  47.827  1.00  0.00     0.138 A 
HETATM   20  F1  UNL     1      34.778   4.722  47.453  1.00  0.00    -0.204 F 
HETATM   21  C13 UNL     1      32.455   4.466  47.255  1.00  0.00     0.074 A 
HETATM   22 CL1  UNL     1      32.725   3.224  46.073  1.00  0.00    -0.081 Cl
HETATM   23  C14 UNL     1      31.191   4.831  47.624  1.00  0.00     0.056 A 
ENDBRANCH  14  16
ENDBRANCH   7  14
BRANCH   2  24
HETATM   24  C4  UNL     1      23.624   6.771  49.602  1.00  0.00     0.070 C 
BRANCH  24  25
HETATM   25  C5  UNL     1      23.635   7.530  50.901  1.00  0.00     0.168 C 
BRANCH  25  26
HETATM   26  O2  UNL     1      24.486   6.907  51.838  1.00  0.00    -0.401 OA
HETATM   27  H8  UNL     1      24.385   5.934  51.679  1.00  0.00     0.209 HD
ENDBRANCH  25  26
ENDBRANCH  24  25
ENDBRANCH   2  24
BRANCH   1  28
HETATM   28  O1  UNL     1      23.128   8.792  48.326  1.00  0.00    -0.357 OA
HETATM   29  C1  UNL     1      22.577  10.039  47.976  1.00  0.00     0.209 C 
ENDBRANCH   1  28
TORSDOF 6
ENDMDL
MODEL 8
REMARK VINA RESULT:      -7.3      5.177      6.006
REMARK  6 active torsions:
REMARK  status: ('A' for Active; 'I' for Inactive)
REMARK    1  A    between atoms: O1_2  and  C2_3 
REMARK    2  A    between atoms: C3_4  and  C4_5 
REMARK    3  A    between atoms: C4_5  and  C5_6 
REMARK    4  A    between atoms: C5_6  and  O2_7 
REMARK    5  A    between atoms: C8_12  and  N3_13 
REMARK    6  A    between atoms: N3_13  and  C9_14 
ROOT
HETATM    1  C2  UNL     1      23.531   1.529  51.535  1.00  0.00     0.083 C 
HETATM    2  C3  UNL     1      23.243   2.408  50.558  1.00  0.00     0.005 C 
HETATM    3  C6  UNL     1      24.076   3.481  50.033  1.00  0.00     0.077 A 
HETATM    4  N1  UNL     1      23.262   4.258  49.399  1.00  0.00    -0.241 NA
HETATM    5  C7  UNL     1      23.854   5.394  48.789  1.00  0.00     0.230 A 
HETATM    6  N2  UNL     1      25.063   5.753  48.777  1.00  0.00    -0.252 NA
HETATM    7  C8  UNL     1      26.093   5.019  49.422  1.00  0.00     0.243 A 
HETATM    8  C15 UNL     1      25.491   3.835  50.082  1.00  0.00     0.013 A 
HETATM    9  C16 UNL     1      26.492   3.203  50.714  1.00  0.00     0.012 C 
HETATM   10  C17 UNL     1      26.773   2.038  51.562  1.00  0.00     0.197 C 
HETATM   11  O3  UNL     1      25.829   1.062  51.596  1.00  0.00    -0.376 OA
HETATM   12  C18 UNL     1      24.728   1.286  52.413  1.00  0.00     0.174 C 
HETATM   13  C19 UNL     1      24.864   2.438  53.349  1.00  0.00     0.046 C 
ENDROOT
BRANCH   7  14
HETATM   14  N3  UNL     1      27.258   4.721  48.665  1.00  0.00    -0.363 N 
HETATM   15  H11 UNL     1      27.446   3.717  48.348  1.00  0.00     0.162 HD
BRANCH  14  16
HETATM   16  C9  UNL     1      28.269   5.624  48.244  1.00  0.00     0.031 A 
HETATM   17  C10 UNL     1      28.029   6.930  47.872  1.00  0.00     0.032 A 
HETATM   18  C11 UNL     1      28.981   7.838  47.462  1.00  0.00     0.046 A 
HETATM   19  C12 UNL     1      30.296   7.428  47.412  1.00  0.00     0.138 A 
HETATM   20  F1  UNL     1      31.292   8.245  47.025  1.00  0.00    -0.204 F 
HETATM   21  C13 UNL     1      30.599   6.133  47.772  1.00  0.00     0.074 A 
HETATM   22 CL1  UNL     1      32.252   5.605  47.713  1.00  0.00    -0.081 Cl
HETATM   23  C14 UNL     1      29.599   5.290  48.169  1.00  0.00     0.056 A 
ENDBRANCH  14  16
ENDBRANCH   7  14
BRANCH   2  24
HETATM   24  C4  UNL     1      21.913   2.291  49.944  1.00  0.00     0.070 C 
BRANCH  24  25
HETATM   25  C5  UNL     1      21.985   1.458  48.693  1.00  0.00     0.168 C 
BRANCH  25  26
HETATM   26  O2  UNL     1      21.950   2.277  47.544  1.00  0.00    -0.401 OA
HETATM   27  H8  UNL     1      20.989   2.444  47.369  1.00  0.00     0.209 HD
ENDBRANCH  25  26
ENDBRANCH  24  25
ENDBRANCH   2  24
BRANCH   1  28
HETATM   28  O1  UNL     1      22.441   0.700  51.719  1.00  0.00    -0.357 OA
HETATM   29  C1  UNL     1      22.353  -0.308  52.696  1.00  0.00     0.209 C 
ENDBRANCH   1  28
TORSDOF 6
ENDMDL
MODEL 9
REMARK VINA RESULT:      -7.2      7.447      9.405
REMARK  6 active torsions:
REMARK  status: ('A' for Active; 'I' for Inactive)
REMARK    1  A    between atoms: O1_2  and  C2_3 
REMARK    2  A    between atoms: C3_4  and  C4_5 
REMARK    3  A    between atoms: C4_5  and  C5_6 
REMARK    4  A    between atoms: C5_6  and  O2_7 
REMARK    5  A    between atoms: C8_12  and  N3_13 
REMARK    6  A    between atoms: N3_13  and  C9_14 
ROOT
HETATM    1  C2  UNL     1      24.282   3.959  49.610  1.00  0.00     0.083 C 
HETATM    2  C3  UNL     1      25.622   3.945  49.499  1.00  0.00     0.005 C 
HETATM    3  C6  UNL     1      26.510   5.035  49.118  1.00  0.00     0.077 A 
HETATM    4  N1  UNL     1      27.623   4.465  48.798  1.00  0.00    -0.241 NA
HETATM    5  C7  UNL     1      28.660   5.341  48.386  1.00  0.00     0.230 A 
HETATM    6  N2  UNL     1      28.650   6.599  48.289  1.00  0.00    -0.252 NA
HETATM    7  C8  UNL     1      27.512   7.387  48.600  1.00  0.00     0.243 A 
HETATM    8  C15 UNL     1      26.409   6.488  49.016  1.00  0.00     0.013 A 
HETATM    9  C16 UNL     1      25.346   7.273  49.252  1.00  0.00     0.012 C 
HETATM   10  C17 UNL     1      23.938   7.222  49.663  1.00  0.00     0.197 C 
HETATM   11  O3  UNL     1      23.513   6.078  50.259  1.00  0.00    -0.376 OA
HETATM   12  C18 UNL     1      23.221   5.008  49.422  1.00  0.00     0.174 C 
HETATM   13  C19 UNL     1      23.149   5.347  47.972  1.00  0.00     0.046 C 
ENDROOT
BRANCH   7  14
HETATM   14  N3  UNL     1      27.701   8.498  49.466  1.00  0.00    -0.363 N 
HETATM   15  H11 UNL     1      27.747   8.348  50.524  1.00  0.00     0.162 HD
BRANCH  14  16
HETATM   16  C9  UNL     1      27.847   9.862  49.101  1.00  0.00     0.031 A 
HETATM   17  C10 UNL     1      26.822  10.644  48.617  1.00  0.00     0.032 A 
HETATM   18  C11 UNL     1      26.922  11.970  48.255  1.00  0.00     0.046 A 
HETATM   19  C12 UNL     1      28.146  12.592  48.382  1.00  0.00     0.138 A 
HETATM   20  F1  UNL     1      28.338  13.882  48.055  1.00  0.00    -0.204 F 
HETATM   21  C13 UNL     1      29.211  11.861  48.863  1.00  0.00     0.074 A 
HETATM   22 CL1  UNL     1      30.758  12.632  49.027  1.00  0.00    -0.081 Cl
HETATM   23  C14 UNL     1      29.034  10.549  49.200  1.00  0.00     0.056 A 
ENDBRANCH  14  16
ENDBRANCH   7  14
BRANCH   2  24
HETATM   24  C4  UNL     1      26.289   2.666  49.782  1.00  0.00     0.070 C 
BRANCH  24  25
HETATM   25  C5  UNL     1      26.459   2.480  51.265  1.00  0.00     0.168 C 
BRANCH  25  26
HETATM   26  O2  UNL     1      27.683   3.032  51.701  1.00  0.00    -0.401 OA
HETATM   27  H8  UNL     1      28.282   2.257  51.851  1.00  0.00     0.209 HD
ENDBRANCH  25  26
ENDBRANCH  24  25
ENDBRANCH   2  24
BRANCH   1  28
HETATM   28  O1  UNL     1      23.856   2.697  49.979  1.00  0.00    -0.357 OA
HETATM   29  C1  UNL     1      22.699   2.428  50.733  1.00  0.00     0.209 C 
ENDBRANCH   1  28
TORSDOF 6
ENDMDL
