MODEL 1
REMARK VINA RESULT:      -7.3      0.000      0.000
REMARK  1 active torsions:
REMARK  status: ('A' for Active; 'I' for Inactive)
REMARK    1  A    between atoms: C4_4  and  O1_5 
ROOT
HETATM    1  C1  UNL     1      21.932   5.876  50.357  1.00  0.00     0.044 C 
HETATM    2  C2  UNL     1      21.757   4.544  51.024  1.00  0.00    -0.077 A 
HETATM    3  C3  UNL     1      22.060   4.352  52.333  1.00  0.00     0.019 A 
HETATM    4  C4  UNL     1      21.648   2.941  52.211  1.00  0.00     0.113 A 
HETATM    5  C5  UNL     1      22.658   1.958  52.597  1.00  0.00     0.007 A 
HETATM    6  C6  UNL     1      22.027   0.741  52.808  1.00  0.00     0.013 A 
HETATM    7  C7  UNL     1      22.560  -0.488  53.220  1.00  0.00     0.001 A 
HETATM    8  C8  UNL     1      23.921  -0.517  53.457  1.00  0.00     0.002 A 
HETATM    9  C9  UNL     1      24.568   0.715  53.244  1.00  0.00     0.030 A 
HETATM   10  C10 UNL     1      24.017   1.941  52.829  1.00  0.00     0.037 A 
HETATM   11  N1  UNL     1      25.229   2.758  52.793  1.00  0.00    -0.387 N 
HETATM   12  C11 UNL     1      26.329   2.483  51.939  1.00  0.00     0.146 C 
HETATM   13  C12 UNL     1      26.417   3.164  50.625  1.00  0.00     0.198 C 
HETATM   14  O2  UNL     1      25.302   2.955  49.839  1.00  0.00    -0.320 OA
HETATM   15  C13 UNL     1      24.078   3.528  49.911  1.00  0.00     0.258 C 
HETATM   16  O3  UNL     1      24.684   4.124  50.794  1.00  0.00    -0.265 OA
HETATM   17  C14 UNL     1      22.984   3.109  49.003  1.00  0.00     0.112 C 
HETATM   18  C15 UNL     1      21.938   2.327  49.762  1.00  0.00     0.022 C 
HETATM   19  C16 UNL     1      21.310   3.141  50.804  1.00  0.00     0.057 A 
HETATM   20  H10 UNL     1      24.719   3.270  53.519  1.00  0.00     0.159 HD
ENDROOT
BRANCH   4  21
HETATM   21  O1  UNL     1      20.425   2.818  52.959  1.00  0.00    -0.380 OA
HETATM   22  H5  UNL     1      19.928   3.658  52.914  1.00  0.00     0.211 HD
ENDBRANCH   4  21
TORSDOF 1
ENDMDL
MODEL 2
REMARK VINA RESULT:      -7.2      9.210     10.767
REMARK  1 active torsions:
REMARK  status: ('A' for Active; 'I' for Inactive)
REMARK    1  A    between atoms: C4_4  and  O1_5 
ROOT
HETATM    1  C1  UNL     1      30.543   9.069  49.021  1.00  0.00     0.044 C 
HETATM    2  C2  UNL     1      30.648   7.692  48.435  1.00  0.00    -0.077 A 
HETATM    3  C3  UNL     1      30.864   6.599  49.208  1.00  0.00     0.019 A 
HETATM    4  C4  UNL     1      30.836   5.751  48.002  1.00  0.00     0.113 A 
HETATM    5  C5  UNL     1      32.021   4.922  47.790  1.00  0.00     0.007 A 
HETATM    6  C6  UNL     1      31.700   3.924  46.882  1.00  0.00     0.013 A 
HETATM    7  C7  UNL     1      32.485   2.873  46.387  1.00  0.00     0.001 A 
HETATM    8  C8  UNL     1      33.781   2.800  46.862  1.00  0.00     0.002 A 
HETATM    9  C9  UNL     1      34.112   3.811  47.784  1.00  0.00     0.030 A 
HETATM   10  C10 UNL     1      33.312   4.861  48.270  1.00  0.00     0.037 A 
HETATM   11  N1  UNL     1      34.276   5.523  49.147  1.00  0.00    -0.387 N 
HETATM   12  C11 UNL     1      35.485   6.101  48.680  1.00  0.00     0.146 C 
HETATM   13  C12 UNL     1      35.522   7.548  48.358  1.00  0.00     0.198 C 
HETATM   14  O2  UNL     1      34.574   7.911  47.421  1.00  0.00    -0.320 OA
HETATM   15  C13 UNL     1      33.244   8.109  47.573  1.00  0.00     0.258 C 
HETATM   16  O3  UNL     1      33.594   7.871  48.724  1.00  0.00    -0.265 OA
HETATM   17  C14 UNL     1      32.382   8.432  46.411  1.00  0.00     0.112 C 
HETATM   18  C15 UNL     1      31.501   7.255  46.064  1.00  0.00     0.022 C 
HETATM   19  C16 UNL     1      30.593   6.922  47.162  1.00  0.00     0.057 A 
HETATM   20  H10 UNL     1      33.586   5.248  49.854  1.00  0.00     0.159 HD
ENDROOT
BRANCH   4  21
HETATM   21  O1  UNL     1      29.619   4.988  48.081  1.00  0.00    -0.380 OA
HETATM   22  H5  UNL     1      28.971   5.339  47.440  1.00  0.00     0.211 HD
ENDBRANCH   4  21
TORSDOF 1
ENDMDL
MODEL 3
REMARK VINA RESULT:      -7.1      1.819      3.919
REMARK  1 active torsions:
REMARK  status: ('A' for Active; 'I' for Inactive)
REMARK    1  A    between atoms: C4_4  and  O1_5 
ROOT
HETATM    1  C1  UNL     1      23.596   4.926  49.622  1.00  0.00     0.044 C 
HETATM    2  C2  UNL     1      23.986   3.791  50.521  1.00  0.00    -0.077 A 
HETATM    3  C3  UNL     1      23.912   2.498  50.116  1.00  0.00     0.019 A 
HETATM    4  C4  UNL     1      24.416   2.067  51.433  1.00  0.00     0.113 A 
HETATM    5  C5  UNL     1      23.566   1.119  52.150  1.00  0.00     0.007 A 
HETATM    6  C6  UNL     1      24.322   0.517  53.145  1.00  0.00     0.013 A 
HETATM    7  C7  UNL     1      23.966  -0.476  54.068  1.00  0.00     0.001 A 
HETATM    8  C8  UNL     1      22.667  -0.942  53.996  1.00  0.00     0.002 A 
HETATM    9  C9  UNL     1      21.894  -0.336  52.988  1.00  0.00     0.030 A 
HETATM   10  C10 UNL     1      22.267   0.662  52.069  1.00  0.00     0.037 A 
HETATM   11  N1  UNL     1      21.001   0.831  51.358  1.00  0.00    -0.387 N 
HETATM   12  C11 UNL     1      19.806   1.268  51.988  1.00  0.00     0.146 C 
HETATM   13  C12 UNL     1      19.453   2.708  51.957  1.00  0.00     0.198 C 
HETATM   14  O2  UNL     1      20.443   3.511  52.487  1.00  0.00    -0.320 OA
HETATM   15  C13 UNL     1      21.611   3.916  51.935  1.00  0.00     0.258 C 
HETATM   16  O3  UNL     1      21.105   3.286  51.013  1.00  0.00    -0.265 OA
HETATM   17  C14 UNL     1      22.578   4.733  52.707  1.00  0.00     0.112 C 
HETATM   18  C15 UNL     1      23.792   3.910  53.068  1.00  0.00     0.022 C 
HETATM   19  C16 UNL     1      24.507   3.457  51.875  1.00  0.00     0.057 A 
HETATM   20  H10 UNL     1      21.576   0.503  50.575  1.00  0.00     0.159 HD
ENDROOT
BRANCH   4  21
HETATM   21  O1  UNL     1      25.748   1.573  51.207  1.00  0.00    -0.380 OA
HETATM   22  H5  UNL     1      25.721   0.846  50.556  1.00  0.00     0.211 HD
ENDBRANCH   4  21
TORSDOF 1
ENDMDL
MODEL 4
REMARK VINA RESULT:      -7.0      1.664      2.199
REMARK  1 active torsions:
REMARK  status: ('A' for Active; 'I' for Inactive)
REMARK    1  A    between atoms: C4_4  and  O1_5 
ROOT
HETATM    1  C1  UNL     1      19.104   3.064  50.758  1.00  0.00     0.044 C 
HETATM    2  C2  UNL     1      19.976   2.161  51.579  1.00  0.00    -0.077 A 
HETATM    3  C3  UNL     1      20.596   2.594  52.705  1.00  0.00     0.019 A 
HETATM    4  C4  UNL     1      21.180   1.253  52.888  1.00  0.00     0.113 A 
HETATM    5  C5  UNL     1      22.638   1.211  52.987  1.00  0.00     0.007 A 
HETATM    6  C6  UNL     1      23.005  -0.008  53.538  1.00  0.00     0.013 A 
HETATM    7  C7  UNL     1      24.276  -0.503  53.858  1.00  0.00     0.001 A 
HETATM    8  C8  UNL     1      25.344   0.334  53.595  1.00  0.00     0.002 A 
HETATM    9  C9  UNL     1      24.978   1.573  53.036  1.00  0.00     0.030 A 
HETATM   10  C10 UNL     1      23.695   2.055  52.719  1.00  0.00     0.037 A 
HETATM   11  N1  UNL     1      24.049   3.361  52.166  1.00  0.00    -0.387 N 
HETATM   12  C11 UNL     1      24.855   3.524  51.009  1.00  0.00     0.146 C 
HETATM   13  C12 UNL     1      24.204   3.686  49.686  1.00  0.00     0.198 C 
HETATM   14  O2  UNL     1      23.356   2.641  49.378  1.00  0.00    -0.320 OA
HETATM   15  C13 UNL     1      22.102   2.390  49.822  1.00  0.00     0.258 C 
HETATM   16  O3  UNL     1      22.347   3.463  50.363  1.00  0.00    -0.265 OA
HETATM   17  C14 UNL     1      21.379   1.162  49.415  1.00  0.00     0.112 C 
HETATM   18  C15 UNL     1      21.276   0.200  50.576  1.00  0.00     0.022 C 
HETATM   19  C16 UNL     1      20.508   0.775  51.682  1.00  0.00     0.057 A 
HETATM   20  H10 UNL     1      23.496   3.677  52.969  1.00  0.00     0.159 HD
ENDROOT
BRANCH   4  21
HETATM   21  O1  UNL     1      20.519   0.684  54.032  1.00  0.00    -0.380 OA
HETATM   22  H5  UNL     1      19.552   0.718  53.901  1.00  0.00     0.211 HD
ENDBRANCH   4  21
TORSDOF 1
ENDMDL
MODEL 5
REMARK VINA RESULT:      -6.9      9.298     10.899
REMARK  1 active torsions:
REMARK  status: ('A' for Active; 'I' for Inactive)
REMARK    1  A    between atoms: C4_4  and  O1_5 
ROOT
HETATM    1  C1  UNL     1      30.544   9.507  49.325  1.00  0.00     0.044 C 
HETATM    2  C2  UNL     1      30.909   8.064  49.139  1.00  0.00    -0.077 A 
HETATM    3  C3  UNL     1      32.153   7.599  49.412  1.00  0.00     0.019 A 
HETATM    4  C4  UNL     1      31.725   6.246  49.011  1.00  0.00     0.113 A 
HETATM    5  C5  UNL     1      32.525   5.621  47.959  1.00  0.00     0.007 A 
HETATM    6  C6  UNL     1      32.269   4.257  47.967  1.00  0.00     0.013 A 
HETATM    7  C7  UNL     1      32.813   3.237  47.174  1.00  0.00     0.001 A 
HETATM    8  C8  UNL     1      33.750   3.624  46.234  1.00  0.00     0.002 A 
HETATM    9  C9  UNL     1      34.013   5.007  46.222  1.00  0.00     0.030 A 
HETATM   10  C10 UNL     1      33.456   6.020  47.024  1.00  0.00     0.037 A 
HETATM   11  N1  UNL     1      34.145   7.184  46.469  1.00  0.00    -0.387 N 
HETATM   12  C11 UNL     1      34.008   7.598  45.118  1.00  0.00     0.146 C 
HETATM   13  C12 UNL     1      33.008   8.637  44.774  1.00  0.00     0.198 C 
HETATM   14  O2  UNL     1      31.729   8.297  45.168  1.00  0.00    -0.320 OA
HETATM   15  C13 UNL     1      31.165   8.343  46.397  1.00  0.00     0.258 C 
HETATM   16  O3  UNL     1      32.277   8.811  46.615  1.00  0.00    -0.265 OA
HETATM   17  C14 UNL     1      29.780   7.863  46.621  1.00  0.00     0.112 C 
HETATM   18  C15 UNL     1      29.790   6.565  47.394  1.00  0.00     0.022 C 
HETATM   19  C16 UNL     1      30.379   6.736  48.723  1.00  0.00     0.057 A 
HETATM   20  H10 UNL     1      34.512   7.227  47.424  1.00  0.00     0.159 HD
ENDROOT
BRANCH   4  21
HETATM   21  O1  UNL     1      31.676   5.469  50.221  1.00  0.00    -0.380 OA
HETATM   22  H5  UNL     1      32.552   5.070  50.389  1.00  0.00     0.211 HD
ENDBRANCH   4  21
TORSDOF 1
ENDMDL
MODEL 6
REMARK VINA RESULT:      -6.6      4.336      6.088
REMARK  1 active torsions:
REMARK  status: ('A' for Active; 'I' for Inactive)
REMARK    1  A    between atoms: C4_4  and  O1_5 
ROOT
HETATM    1  C1  UNL     1      21.621   7.431  50.660  1.00  0.00     0.044 C 
HETATM    2  C2  UNL     1      22.845   6.607  50.394  1.00  0.00    -0.077 A 
HETATM    3  C3  UNL     1      24.003   6.805  51.073  1.00  0.00     0.019 A 
HETATM    4  C4  UNL     1      24.630   5.714  50.303  1.00  0.00     0.113 A 
HETATM    5  C5  UNL     1      25.851   6.074  49.587  1.00  0.00     0.007 A 
HETATM    6  C6  UNL     1      26.523   4.907  49.252  1.00  0.00     0.013 A 
HETATM    7  C7  UNL     1      27.747   4.732  48.593  1.00  0.00     0.001 A 
HETATM    8  C8  UNL     1      28.405   5.885  48.207  1.00  0.00     0.002 A 
HETATM    9  C9  UNL     1      27.729   7.073  48.544  1.00  0.00     0.030 A 
HETATM   10  C10 UNL     1      26.498   7.231  49.206  1.00  0.00     0.037 A 
HETATM   11  N1  UNL     1      26.395   8.689  49.196  1.00  0.00    -0.387 N 
HETATM   12  C11 UNL     1      26.331   9.457  48.003  1.00  0.00     0.146 C 
HETATM   13  C12 UNL     1      25.007   9.848  47.461  1.00  0.00     0.198 C 
HETATM   14  O2  UNL     1      24.186   8.764  47.225  1.00  0.00    -0.320 OA
HETATM   15  C13 UNL     1      23.466   8.022  48.099  1.00  0.00     0.258 C 
HETATM   16  O3  UNL     1      23.947   8.876  48.835  1.00  0.00    -0.265 OA
HETATM   17  C14 UNL     1      22.693   6.843  47.643  1.00  0.00     0.112 C 
HETATM   18  C15 UNL     1      23.349   5.566  48.113  1.00  0.00     0.022 C 
HETATM   19  C16 UNL     1      23.384   5.487  49.574  1.00  0.00     0.057 A 
HETATM   20  H10 UNL     1      26.429   8.543  50.210  1.00  0.00     0.159 HD
ENDROOT
BRANCH   4  21
HETATM   21  O1  UNL     1      24.817   4.630  51.231  1.00  0.00    -0.380 OA
HETATM   22  H5  UNL     1      25.398   3.954  50.831  1.00  0.00     0.211 HD
ENDBRANCH   4  21
TORSDOF 1
ENDMDL
MODEL 7
REMARK VINA RESULT:      -6.5      7.496      9.719
REMARK  1 active torsions:
REMARK  status: ('A' for Active; 'I' for Inactive)
REMARK    1  A    between atoms: C4_4  and  O1_5 
ROOT
HETATM    1  C1  UNL     1      31.444  11.757  48.132  1.00  0.00     0.044 C 
HETATM    2  C2  UNL     1      30.328  10.795  48.414  1.00  0.00    -0.077 A 
HETATM    3  C3  UNL     1      30.408   9.879  49.412  1.00  0.00     0.019 A 
HETATM    4  C4  UNL     1      29.061   9.392  49.059  1.00  0.00     0.113 A 
HETATM    5  C5  UNL     1      28.969   7.966  48.757  1.00  0.00     0.007 A 
HETATM    6  C6  UNL     1      27.637   7.587  48.835  1.00  0.00     0.013 A 
HETATM    7  C7  UNL     1      27.050   6.325  48.661  1.00  0.00     0.001 A 
HETATM    8  C8  UNL     1      27.910   5.285  48.366  1.00  0.00     0.002 A 
HETATM    9  C9  UNL     1      29.264   5.663  48.286  1.00  0.00     0.030 A 
HETATM   10  C10 UNL     1      29.837   6.936  48.462  1.00  0.00     0.037 A 
HETATM   11  N1  UNL     1      31.241   6.612  48.215  1.00  0.00    -0.387 N 
HETATM   12  C11 UNL     1      31.718   6.105  46.978  1.00  0.00     0.146 C 
HETATM   13  C12 UNL     1      32.265   7.046  45.970  1.00  0.00     0.198 C 
HETATM   14  O2  UNL     1      31.368   8.036  45.622  1.00  0.00    -0.320 OA
HETATM   15  C13 UNL     1      31.020   9.158  46.293  1.00  0.00     0.258 C 
HETATM   16  O3  UNL     1      31.887   8.690  47.023  1.00  0.00    -0.265 OA
HETATM   17  C14 UNL     1      29.973  10.068  45.770  1.00  0.00     0.112 C 
HETATM   18  C15 UNL     1      28.719   9.967  46.607  1.00  0.00     0.022 C 
HETATM   19  C16 UNL     1      28.963  10.383  47.989  1.00  0.00     0.057 A 
HETATM   20  H10 UNL     1      31.321   6.918  49.190  1.00  0.00     0.159 HD
ENDROOT
BRANCH   4  21
HETATM   21  O1  UNL     1      28.197   9.799  50.135  1.00  0.00    -0.380 OA
HETATM   22  H5  UNL     1      28.602  10.548  50.614  1.00  0.00     0.211 HD
ENDBRANCH   4  21
TORSDOF 1
ENDMDL
MODEL 8
REMARK VINA RESULT:      -6.4      2.177      4.559
REMARK  1 active torsions:
REMARK  status: ('A' for Active; 'I' for Inactive)
REMARK    1  A    between atoms: C4_4  and  O1_5 
ROOT
HETATM    1  C1  UNL     1      23.110   2.859  49.651  1.00  0.00     0.044 C 
HETATM    2  C2  UNL     1      24.406   2.972  50.396  1.00  0.00    -0.077 A 
HETATM    3  C3  UNL     1      25.472   2.185  50.104  1.00  0.00     0.019 A 
HETATM    4  C4  UNL     1      26.246   2.855  51.165  1.00  0.00     0.113 A 
HETATM    5  C5  UNL     1      26.809   1.972  52.184  1.00  0.00     0.007 A 
HETATM    6  C6  UNL     1      27.805   2.662  52.860  1.00  0.00     0.013 A 
HETATM    7  C7  UNL     1      28.651   2.235  53.894  1.00  0.00     0.001 A 
HETATM    8  C8  UNL     1      28.487   0.931  54.320  1.00  0.00     0.002 A 
HETATM    9  C9  UNL     1      27.478   0.225  53.637  1.00  0.00     0.030 A 
HETATM   10  C10 UNL     1      26.636   0.669  52.602  1.00  0.00     0.037 A 
HETATM   11  N1  UNL     1      25.839  -0.539  52.394  1.00  0.00    -0.387 N 
HETATM   12  C11 UNL     1      25.008  -1.105  53.396  1.00  0.00     0.146 C 
HETATM   13  C12 UNL     1      23.569  -0.751  53.432  1.00  0.00     0.198 C 
HETATM   14  O2  UNL     1      23.356   0.610  53.528  1.00  0.00    -0.320 OA
HETATM   15  C13 UNL     1      23.436   1.564  52.571  1.00  0.00     0.258 C 
HETATM   16  O3  UNL     1      23.656   0.545  51.926  1.00  0.00    -0.265 OA
HETATM   17  C14 UNL     1      23.234   2.995  52.901  1.00  0.00     0.112 C 
HETATM   18  C15 UNL     1      24.544   3.743  52.831  1.00  0.00     0.022 C 
HETATM   19  C16 UNL     1      25.107   3.714  51.480  1.00  0.00     0.057 A 
HETATM   20  H10 UNL     1      26.282  -0.484  51.472  1.00  0.00     0.159 HD
ENDROOT
BRANCH   4  21
HETATM   21  O1  UNL     1      27.240   3.648  50.492  1.00  0.00    -0.380 OA
HETATM   22  H5  UNL     1      27.173   3.507  49.528  1.00  0.00     0.211 HD
ENDBRANCH   4  21
TORSDOF 1
ENDMDL
MODEL 9
REMARK VINA RESULT:      -6.4      2.280      4.340
REMARK  1 active torsions:
REMARK  status: ('A' for Active; 'I' for Inactive)
REMARK    1  A    between atoms: C4_4  and  O1_5 
ROOT
HETATM    1  C1  UNL     1      19.136   0.131  52.559  1.00  0.00     0.044 C 
HETATM    2  C2  UNL     1      20.585   0.410  52.290  1.00  0.00    -0.077 A 
HETATM    3  C3  UNL     1      21.352   1.116  53.159  1.00  0.00     0.019 A 
HETATM    4  C4  UNL     1      22.507   0.955  52.255  1.00  0.00     0.113 A 
HETATM    5  C5  UNL     1      23.148   2.197  51.829  1.00  0.00     0.007 A 
HETATM    6  C6  UNL     1      24.407   1.892  51.333  1.00  0.00     0.013 A 
HETATM    7  C7  UNL     1      25.407   2.741  50.837  1.00  0.00     0.001 A 
HETATM    8  C8  UNL     1      25.117   4.092  50.833  1.00  0.00     0.002 A 
HETATM    9  C9  UNL     1      23.841   4.408  51.336  1.00  0.00     0.030 A 
HETATM   10  C10 UNL     1      22.847   3.543  51.829  1.00  0.00     0.037 A 
HETATM   11  N1  UNL     1      21.804   4.517  52.145  1.00  0.00    -0.387 N 
HETATM   12  C11 UNL     1      21.191   5.347  51.170  1.00  0.00     0.146 C 
HETATM   13  C12 UNL     1      19.916   4.915  50.547  1.00  0.00     0.198 C 
HETATM   14  O2  UNL     1      20.009   3.676  49.945  1.00  0.00    -0.320 OA
HETATM   15  C13 UNL     1      20.004   2.444  50.506  1.00  0.00     0.258 C 
HETATM   16  O3  UNL     1      19.832   3.163  51.484  1.00  0.00    -0.265 OA
HETATM   17  C14 UNL     1      20.184   1.228  49.678  1.00  0.00     0.112 C 
HETATM   18  C15 UNL     1      21.543   0.616  49.928  1.00  0.00     0.022 C 
HETATM   19  C16 UNL     1      21.691   0.185  51.318  1.00  0.00     0.057 A 
HETATM   20  H10 UNL     1      21.974   4.159  53.090  1.00  0.00     0.159 HD
ENDROOT
BRANCH   4  21
HETATM   21  O1  UNL     1      23.409   0.052  52.919  1.00  0.00    -0.380 OA
HETATM   22  H5  UNL     1      23.470  -0.781  52.413  1.00  0.00     0.211 HD
ENDBRANCH   4  21
TORSDOF 1
ENDMDL
