MODEL 1
REMARK VINA RESULT:      -8.6      0.000      0.000
REMARK  5 active torsions:
REMARK  status: ('A' for Active; 'I' for Inactive)
REMARK    1  A    between atoms: C2_2  and  C3_4 
REMARK    2  A    between atoms: C4_5  and  C5_6 
REMARK       I    between atoms: C5_6  and  N1_8 
REMARK    3  A    between atoms: N1_8  and  C6_9 
REMARK    4  A    between atoms: C11_16  and  C12_17 
REMARK    5  A    between atoms: C14_19  and  N4_20 
ROOT
HETATM    1  C6  UNL     1      24.487   2.979  51.771  1.00  0.00     0.035 A 
HETATM    2  C7  UNL     1      23.111   3.022  51.763  1.00  0.00     0.032 A 
HETATM    3  C8  UNL     1      22.329   2.103  52.406  1.00  0.00     0.035 A 
HETATM    4  C9  UNL     1      22.955   1.098  53.082  1.00  0.00     0.070 A 
HETATM    5  N2  UNL     1      22.191   0.202  53.722  1.00  0.00    -0.241 NA
HETATM    6  C10 UNL     1      22.761  -0.780  54.395  1.00  0.00     0.234 A 
HETATM    7  N3  UNL     1      24.074  -0.839  54.413  1.00  0.00    -0.241 NA
HETATM    8  C11 UNL     1      24.963  -0.043  53.842  1.00  0.00     0.078 A 
HETATM    9  C17 UNL     1      24.333   0.964  53.152  1.00  0.00     0.024 A 
HETATM   10  C18 UNL     1      25.023   1.930  52.480  1.00  0.00     0.045 A 
ENDROOT
BRANCH   1  11
HETATM   11  N1  UNL     1      25.353   3.895  51.130  1.00  0.00    -0.324 N 
HETATM   12  C5  UNL     1      25.579   4.145  49.772  1.00  0.00     0.245 C 
HETATM   13  O2  UNL     1      24.913   3.452  48.965  1.00  0.00    -0.268 OA
HETATM   14  H6  UNL     1      25.952   4.520  51.723  1.00  0.00     0.169 HD
BRANCH  12  15
HETATM   15  C4  UNL     1      26.512   5.132  49.245  1.00  0.00     0.078 C 
HETATM   16  C3  UNL     1      27.652   5.034  48.620  1.00  0.00     0.055 C 
BRANCH  16  17
HETATM   17  C2  UNL     1      28.568   6.040  48.101  1.00  0.00     0.145 C 
HETATM   18  C1  UNL     1      30.033   5.893  48.286  1.00  0.00     0.096 C 
HETATM   19  O1  UNL     1      28.093   7.034  47.495  1.00  0.00    -0.294 OA
ENDBRANCH  16  17
ENDBRANCH  12  15
ENDBRANCH   1  11
BRANCH   8  20
HETATM   20  C12 UNL     1      26.437  -0.170  53.914  1.00  0.00    -0.008 A 
HETATM   21  C13 UNL     1      26.788  -1.290  53.259  1.00  0.00     0.039 A 
HETATM   22  C14 UNL     1      28.214  -1.527  53.259  1.00  0.00     0.024 A 
HETATM   23  C15 UNL     1      28.729  -0.524  53.926  1.00  0.00     0.022 A 
HETATM   24  C16 UNL     1      27.670   0.447  54.406  1.00  0.00     0.118 A 
HETATM   25 BR1  UNL     1      28.142   2.086  53.450  1.00  0.00    -0.082 Br
BRANCH  22  26
HETATM   26  N4  UNL     1      29.149  -2.473  52.776  1.00  0.00    -0.399 N 
HETATM   27  H11 UNL     1      29.049  -2.962  51.851  1.00  0.00     0.156 HD
HETATM   28  H12 UNL     1      29.957  -2.658  53.409  1.00  0.00     0.156 HD
ENDBRANCH  22  26
ENDBRANCH   8  20
TORSDOF 5
ENDMDL
MODEL 2
REMARK VINA RESULT:      -8.4      3.800      4.185
REMARK  5 active torsions:
REMARK  status: ('A' for Active; 'I' for Inactive)
REMARK    1  A    between atoms: C2_2  and  C3_4 
REMARK    2  A    between atoms: C4_5  and  C5_6 
REMARK       I    between atoms: C5_6  and  N1_8 
REMARK    3  A    between atoms: N1_8  and  C6_9 
REMARK    4  A    between atoms: C11_16  and  C12_17 
REMARK    5  A    between atoms: C14_19  and  N4_20 
ROOT
HETATM    1  C6  UNL     1      21.791   1.323  51.050  1.00  0.00     0.035 A 
HETATM    2  C7  UNL     1      20.564   0.942  51.546  1.00  0.00     0.032 A 
HETATM    3  C8  UNL     1      20.414   0.194  52.680  1.00  0.00     0.035 A 
HETATM    4  C9  UNL     1      21.543  -0.189  53.343  1.00  0.00     0.070 A 
HETATM    5  N2  UNL     1      21.397  -0.914  54.460  1.00  0.00    -0.241 NA
HETATM    6  C10 UNL     1      22.466  -1.295  55.134  1.00  0.00     0.234 A 
HETATM    7  N3  UNL     1      23.647  -0.943  54.676  1.00  0.00    -0.241 NA
HETATM    8  C11 UNL     1      23.959  -0.238  53.601  1.00  0.00     0.078 A 
HETATM    9  C17 UNL     1      22.823   0.140  52.928  1.00  0.00     0.024 A 
HETATM   10  C18 UNL     1      22.867   0.889  51.789  1.00  0.00     0.045 A 
ENDROOT
BRANCH   1  11
HETATM   11  N1  UNL     1      22.016   2.095  49.886  1.00  0.00    -0.324 N 
HETATM   12  C5  UNL     1      21.962   1.747  48.532  1.00  0.00     0.245 C 
HETATM   13  O2  UNL     1      21.665   0.554  48.280  1.00  0.00    -0.268 OA
HETATM   14  H6  UNL     1      22.270   3.107  49.996  1.00  0.00     0.169 HD
BRANCH  12  15
HETATM   15  C4  UNL     1      22.219   2.655  47.423  1.00  0.00     0.078 C 
HETATM   16  C3  UNL     1      21.452   3.439  46.718  1.00  0.00     0.055 C 
BRANCH  16  17
HETATM   17  C2  UNL     1      21.735   4.341  45.610  1.00  0.00     0.145 C 
HETATM   18  C1  UNL     1      22.141   5.745  45.864  1.00  0.00     0.096 C 
HETATM   19  O1  UNL     1      21.629   3.905  44.435  1.00  0.00    -0.294 OA
ENDBRANCH  16  17
ENDBRANCH  12  15
ENDBRANCH   1  11
BRANCH   8  20
HETATM   20  C12 UNL     1      25.322   0.128  53.151  1.00  0.00    -0.008 A 
HETATM   21  C13 UNL     1      25.741   1.163  53.900  1.00  0.00     0.039 A 
HETATM   22  C14 UNL     1      27.069   1.617  53.555  1.00  0.00     0.024 A 
HETATM   23  C15 UNL     1      27.456   0.833  52.579  1.00  0.00     0.022 A 
HETATM   24  C16 UNL     1      26.404  -0.196  52.220  1.00  0.00     0.118 A 
HETATM   25 BR1  UNL     1      27.304  -1.879  52.649  1.00  0.00    -0.082 Br
BRANCH  22  26
HETATM   26  N4  UNL     1      28.006   2.603  53.944  1.00  0.00    -0.399 N 
HETATM   27  H11 UNL     1      28.985   2.649  53.563  1.00  0.00     0.156 HD
HETATM   28  H12 UNL     1      27.658   3.290  54.646  1.00  0.00     0.156 HD
ENDBRANCH  22  26
ENDBRANCH   8  20
TORSDOF 5
ENDMDL
MODEL 3
REMARK VINA RESULT:      -8.4      4.457      6.645
REMARK  5 active torsions:
REMARK  status: ('A' for Active; 'I' for Inactive)
REMARK    1  A    between atoms: C2_2  and  C3_4 
REMARK    2  A    between atoms: C4_5  and  C5_6 
REMARK       I    between atoms: C5_6  and  N1_8 
REMARK    3  A    between atoms: N1_8  and  C6_9 
REMARK    4  A    between atoms: C11_16  and  C12_17 
REMARK    5  A    between atoms: C14_19  and  N4_20 
ROOT
HETATM    1  C6  UNL     1      23.196  -0.414  53.817  1.00  0.00     0.035 A 
HETATM    2  C7  UNL     1      22.479  -1.271  54.624  1.00  0.00     0.032 A 
HETATM    3  C8  UNL     1      21.136  -1.485  54.482  1.00  0.00     0.035 A 
HETATM    4  C9  UNL     1      20.486  -0.810  53.491  1.00  0.00     0.070 A 
HETATM    5  N2  UNL     1      19.172  -1.027  53.344  1.00  0.00    -0.241 NA
HETATM    6  C10 UNL     1      18.510  -0.399  52.391  1.00  0.00     0.234 A 
HETATM    7  N3  UNL     1      19.176   0.425  51.612  1.00  0.00    -0.241 NA
HETATM    8  C11 UNL     1      20.459   0.746  51.624  1.00  0.00     0.078 A 
HETATM    9  C17 UNL     1      21.113   0.074  52.628  1.00  0.00     0.024 A 
HETATM   10  C18 UNL     1      22.451   0.218  52.849  1.00  0.00     0.045 A 
ENDROOT
BRANCH   1  11
HETATM   11  N1  UNL     1      24.582  -0.148  53.909  1.00  0.00    -0.324 N 
HETATM   12  C5  UNL     1      25.520  -0.504  54.883  1.00  0.00     0.245 C 
HETATM   13  O2  UNL     1      25.085  -1.174  55.851  1.00  0.00    -0.268 OA
HETATM   14  H6  UNL     1      25.038   0.408  53.145  1.00  0.00     0.169 HD
BRANCH  12  15
HETATM   15  C4  UNL     1      26.935  -0.159  54.850  1.00  0.00     0.078 C 
HETATM   16  C3  UNL     1      27.606   0.787  54.255  1.00  0.00     0.055 C 
BRANCH  16  17
HETATM   17  C2  UNL     1      29.026   1.112  54.238  1.00  0.00     0.145 C 
HETATM   18  C1  UNL     1      30.003   0.192  53.605  1.00  0.00     0.096 C 
HETATM   19  O1  UNL     1      29.405   2.187  54.770  1.00  0.00    -0.294 OA
ENDBRANCH  16  17
ENDBRANCH  12  15
ENDBRANCH   1  11
BRANCH   8  20
HETATM   20  C12 UNL     1      21.144   1.683  50.703  1.00  0.00    -0.008 A 
HETATM   21  C13 UNL     1      21.394   1.025  49.557  1.00  0.00     0.039 A 
HETATM   22  C14 UNL     1      22.065   1.838  48.568  1.00  0.00     0.024 A 
HETATM   23  C15 UNL     1      22.216   3.010  49.133  1.00  0.00     0.022 A 
HETATM   24  C16 UNL     1      21.647   3.047  50.536  1.00  0.00     0.118 A 
HETATM   25 BR1  UNL     1      20.220   4.375  50.373  1.00  0.00    -0.082 Br
BRANCH  22  26
HETATM   26  N4  UNL     1      22.573   1.734  47.251  1.00  0.00    -0.399 N 
HETATM   27  H11 UNL     1      22.160   2.247  46.432  1.00  0.00     0.156 HD
HETATM   28  H12 UNL     1      23.397   1.104  47.144  1.00  0.00     0.156 HD
ENDBRANCH  22  26
ENDBRANCH   8  20
TORSDOF 5
ENDMDL
MODEL 4
REMARK VINA RESULT:      -8.4      1.886      2.129
REMARK  5 active torsions:
REMARK  status: ('A' for Active; 'I' for Inactive)
REMARK    1  A    between atoms: C2_2  and  C3_4 
REMARK    2  A    between atoms: C4_5  and  C5_6 
REMARK       I    between atoms: C5_6  and  N1_8 
REMARK    3  A    between atoms: N1_8  and  C6_9 
REMARK    4  A    between atoms: C11_16  and  C12_17 
REMARK    5  A    between atoms: C14_19  and  N4_20 
ROOT
HETATM    1  C6  UNL     1      23.039   2.687  51.439  1.00  0.00     0.035 A 
HETATM    2  C7  UNL     1      21.690   2.615  51.710  1.00  0.00     0.032 A 
HETATM    3  C8  UNL     1      21.148   1.707  52.576  1.00  0.00     0.035 A 
HETATM    4  C9  UNL     1      21.994   0.833  53.193  1.00  0.00     0.070 A 
HETATM    5  N2  UNL     1      21.465  -0.051  54.050  1.00  0.00    -0.241 NA
HETATM    6  C10 UNL     1      22.253  -0.907  54.674  1.00  0.00     0.234 A 
HETATM    7  N3  UNL     1      23.544  -0.855  54.427  1.00  0.00    -0.241 NA
HETATM    8  C11 UNL     1      24.217  -0.052  53.619  1.00  0.00     0.078 A 
HETATM    9  C17 UNL     1      23.365   0.821  52.989  1.00  0.00     0.024 A 
HETATM   10  C18 UNL     1      23.807   1.765  52.111  1.00  0.00     0.045 A 
ENDROOT
BRANCH   1  11
HETATM   11  N1  UNL     1      23.664   3.600  50.558  1.00  0.00    -0.324 N 
HETATM   12  C5  UNL     1      24.065   4.927  50.747  1.00  0.00     0.245 C 
HETATM   13  O2  UNL     1      23.844   5.414  51.882  1.00  0.00    -0.268 OA
HETATM   14  H6  UNL     1      23.889   3.283  49.583  1.00  0.00     0.169 HD
BRANCH  12  15
HETATM   15  C4  UNL     1      24.707   5.760  49.739  1.00  0.00     0.078 C 
HETATM   16  C3  UNL     1      25.932   5.841  49.300  1.00  0.00     0.055 C 
BRANCH  16  17
HETATM   17  C2  UNL     1      26.551   6.685  48.288  1.00  0.00     0.145 C 
HETATM   18  C1  UNL     1      28.018   6.651  48.070  1.00  0.00     0.096 C 
HETATM   19  O1  UNL     1      25.817   7.443  47.603  1.00  0.00    -0.294 OA
ENDBRANCH  16  17
ENDBRANCH  12  15
ENDBRANCH   1  11
BRANCH   8  20
HETATM   20  C12 UNL     1      25.682  -0.049  53.398  1.00  0.00    -0.008 A 
HETATM   21  C13 UNL     1      26.260   0.512  54.474  1.00  0.00     0.039 A 
HETATM   22  C14 UNL     1      27.701   0.574  54.380  1.00  0.00     0.024 A 
HETATM   23  C15 UNL     1      27.992   0.034  53.222  1.00  0.00     0.022 A 
HETATM   24  C16 UNL     1      26.755  -0.425  52.478  1.00  0.00     0.118 A 
HETATM   25 BR1  UNL     1      27.029  -2.358  52.369  1.00  0.00    -0.082 Br
BRANCH  22  26
HETATM   26  N4  UNL     1      28.812   1.024  55.131  1.00  0.00    -0.399 N 
HETATM   27  H11 UNL     1      29.435   1.813  54.824  1.00  0.00     0.156 HD
HETATM   28  H12 UNL     1      28.978   0.512  56.025  1.00  0.00     0.156 HD
ENDBRANCH  22  26
ENDBRANCH   8  20
TORSDOF 5
ENDMDL
MODEL 5
REMARK VINA RESULT:      -8.2      3.970      7.837
REMARK  5 active torsions:
REMARK  status: ('A' for Active; 'I' for Inactive)
REMARK    1  A    between atoms: C2_2  and  C3_4 
REMARK    2  A    between atoms: C4_5  and  C5_6 
REMARK       I    between atoms: C5_6  and  N1_8 
REMARK    3  A    between atoms: N1_8  and  C6_9 
REMARK    4  A    between atoms: C11_16  and  C12_17 
REMARK    5  A    between atoms: C14_19  and  N4_20 
ROOT
HETATM    1  C6  UNL     1      24.338  -0.165  53.812  1.00  0.00     0.035 A 
HETATM    2  C7  UNL     1      25.163  -0.645  54.805  1.00  0.00     0.032 A 
HETATM    3  C8  UNL     1      26.453  -0.223  54.975  1.00  0.00     0.035 A 
HETATM    4  C9  UNL     1      26.934   0.717  54.113  1.00  0.00     0.070 A 
HETATM    5  N2  UNL     1      28.194   1.139  54.285  1.00  0.00    -0.241 NA
HETATM    6  C10 UNL     1      28.691   2.056  53.477  1.00  0.00     0.234 A 
HETATM    7  N3  UNL     1      27.920   2.525  52.521  1.00  0.00    -0.241 NA
HETATM    8  C11 UNL     1      26.669   2.218  52.219  1.00  0.00     0.078 A 
HETATM    9  C17 UNL     1      26.187   1.264  53.081  1.00  0.00     0.024 A 
HETATM   10  C18 UNL     1      24.915   0.780  52.995  1.00  0.00     0.045 A 
ENDROOT
BRANCH   1  11
HETATM   11  N1  UNL     1      22.999  -0.556  53.580  1.00  0.00    -0.324 N 
HETATM   12  C5  UNL     1      22.073  -1.192  54.414  1.00  0.00     0.245 C 
HETATM   13  O2  UNL     1      22.474  -1.475  55.569  1.00  0.00    -0.268 OA
HETATM   14  H6  UNL     1      22.574  -0.362  52.641  1.00  0.00     0.169 HD
BRANCH  12  15
HETATM   15  C4  UNL     1      20.708  -1.540  54.041  1.00  0.00     0.078 C 
HETATM   16  C3  UNL     1      19.733  -0.861  53.506  1.00  0.00     0.055 C 
BRANCH  16  17
HETATM   17  C2  UNL     1      18.372  -1.233  53.142  1.00  0.00     0.145 C 
HETATM   18  C1  UNL     1      17.640  -0.481  52.093  1.00  0.00     0.096 C 
HETATM   19  O1  UNL     1      17.833  -2.203  53.734  1.00  0.00    -0.294 OA
ENDBRANCH  16  17
ENDBRANCH  12  15
ENDBRANCH   1  11
BRANCH   8  20
HETATM   20  C12 UNL     1      25.856   2.799  51.125  1.00  0.00    -0.008 A 
HETATM   21  C13 UNL     1      24.740   3.315  51.669  1.00  0.00     0.039 A 
HETATM   22  C14 UNL     1      23.857   3.917  50.695  1.00  0.00     0.024 A 
HETATM   23  C15 UNL     1      24.461   3.762  49.543  1.00  0.00     0.022 A 
HETATM   24  C16 UNL     1      25.790   3.049  49.685  1.00  0.00     0.118 A 
HETATM   25 BR1  UNL     1      27.060   4.410  49.084  1.00  0.00    -0.082 Br
BRANCH  22  26
HETATM   26  N4  UNL     1      22.609   4.580  50.637  1.00  0.00    -0.399 N 
HETATM   27  H11 UNL     1      21.989   4.716  51.475  1.00  0.00     0.156 HD
HETATM   28  H12 UNL     1      22.338   4.931  49.693  1.00  0.00     0.156 HD
ENDBRANCH  22  26
ENDBRANCH   8  20
TORSDOF 5
ENDMDL
MODEL 6
REMARK VINA RESULT:      -8.1      2.959      6.574
REMARK  5 active torsions:
REMARK  status: ('A' for Active; 'I' for Inactive)
REMARK    1  A    between atoms: C2_2  and  C3_4 
REMARK    2  A    between atoms: C4_5  and  C5_6 
REMARK       I    between atoms: C5_6  and  N1_8 
REMARK    3  A    between atoms: N1_8  and  C6_9 
REMARK    4  A    between atoms: C11_16  and  C12_17 
REMARK    5  A    between atoms: C14_19  and  N4_20 
ROOT
HETATM    1  C6  UNL     1      23.556   1.352  52.671  1.00  0.00     0.035 A 
HETATM    2  C7  UNL     1      22.286   1.076  53.128  1.00  0.00     0.032 A 
HETATM    3  C8  UNL     1      21.195   1.835  52.808  1.00  0.00     0.035 A 
HETATM    4  C9  UNL     1      21.386   2.915  51.998  1.00  0.00     0.070 A 
HETATM    5  N2  UNL     1      20.316   3.654  51.676  1.00  0.00    -0.241 NA
HETATM    6  C10 UNL     1      20.460   4.702  50.887  1.00  0.00     0.234 A 
HETATM    7  N3  UNL     1      21.665   4.983  50.441  1.00  0.00    -0.241 NA
HETATM    8  C11 UNL     1      22.812   4.362  50.663  1.00  0.00     0.078 A 
HETATM    9  C17 UNL     1      22.621   3.279  51.486  1.00  0.00     0.024 A 
HETATM   10  C18 UNL     1      23.645   2.460  51.861  1.00  0.00     0.045 A 
ENDROOT
BRANCH   1  11
HETATM   11  N1  UNL     1      24.725   0.610  52.961  1.00  0.00    -0.324 N 
HETATM   12  C5  UNL     1      25.869   0.952  53.690  1.00  0.00     0.245 C 
HETATM   13  O2  UNL     1      25.887   2.108  54.179  1.00  0.00    -0.268 OA
HETATM   14  H6  UNL     1      24.802  -0.370  52.594  1.00  0.00     0.169 HD
BRANCH  12  15
HETATM   15  C4  UNL     1      27.013   0.078  53.914  1.00  0.00     0.078 C 
HETATM   16  C3  UNL     1      27.760  -0.631  53.116  1.00  0.00     0.055 C 
BRANCH  16  17
HETATM   17  C2  UNL     1      28.902  -1.499  53.365  1.00  0.00     0.145 C 
HETATM   18  C1  UNL     1      30.222  -0.925  53.724  1.00  0.00     0.096 C 
HETATM   19  O1  UNL     1      28.746  -2.744  53.270  1.00  0.00    -0.294 OA
ENDBRANCH  16  17
ENDBRANCH  12  15
ENDBRANCH   1  11
BRANCH   8  20
HETATM   20  C12 UNL     1      24.138   4.734  50.116  1.00  0.00    -0.008 A 
HETATM   21  C13 UNL     1      24.414   5.986  50.521  1.00  0.00     0.039 A 
HETATM   22  C14 UNL     1      25.692   6.469  50.047  1.00  0.00     0.024 A 
HETATM   23  C15 UNL     1      26.193   5.482  49.347  1.00  0.00     0.022 A 
HETATM   24  C16 UNL     1      25.275   4.277  49.318  1.00  0.00     0.118 A 
HETATM   25 BR1  UNL     1      26.348   2.915  50.222  1.00  0.00    -0.082 Br
BRANCH  22  26
HETATM   26  N4  UNL     1      26.500   7.628  50.120  1.00  0.00    -0.399 N 
HETATM   27  H11 UNL     1      26.123   8.580  50.359  1.00  0.00     0.156 HD
HETATM   28  H12 UNL     1      27.511   7.475  49.917  1.00  0.00     0.156 HD
ENDBRANCH  22  26
ENDBRANCH   8  20
TORSDOF 5
ENDMDL
MODEL 7
REMARK VINA RESULT:      -7.9      3.636      6.924
REMARK  5 active torsions:
REMARK  status: ('A' for Active; 'I' for Inactive)
REMARK    1  A    between atoms: C2_2  and  C3_4 
REMARK    2  A    between atoms: C4_5  and  C5_6 
REMARK       I    between atoms: C5_6  and  N1_8 
REMARK    3  A    between atoms: N1_8  and  C6_9 
REMARK    4  A    between atoms: C11_16  and  C12_17 
REMARK    5  A    between atoms: C14_19  and  N4_20 
ROOT
HETATM    1  C6  UNL     1      21.933   0.839  53.136  1.00  0.00     0.035 A 
HETATM    2  C7  UNL     1      22.148  -0.253  53.948  1.00  0.00     0.032 A 
HETATM    3  C8  UNL     1      23.377  -0.825  54.122  1.00  0.00     0.035 A 
HETATM    4  C9  UNL     1      24.433  -0.280  53.454  1.00  0.00     0.070 A 
HETATM    5  N2  UNL     1      25.641  -0.833  53.632  1.00  0.00    -0.241 NA
HETATM    6  C10 UNL     1      26.688  -0.328  53.008  1.00  0.00     0.234 A 
HETATM    7  N3  UNL     1      26.503   0.714  52.227  1.00  0.00    -0.241 NA
HETATM    8  C11 UNL     1      25.389   1.371  51.947  1.00  0.00     0.078 A 
HETATM    9  C17 UNL     1      24.324   0.817  52.613  1.00  0.00     0.024 A 
HETATM   10  C18 UNL     1      23.059   1.315  52.506  1.00  0.00     0.045 A 
ENDROOT
BRANCH   1  11
HETATM   11  N1  UNL     1      20.691   1.478  52.912  1.00  0.00    -0.324 N 
HETATM   12  C5  UNL     1      19.755   1.326  51.883  1.00  0.00     0.245 C 
HETATM   13  O2  UNL     1      20.042   0.486  50.996  1.00  0.00    -0.268 OA
HETATM   14  H6  UNL     1      20.365   2.198  53.602  1.00  0.00     0.169 HD
BRANCH  12  15
HETATM   15  C4  UNL     1      18.501   2.059  51.776  1.00  0.00     0.078 C 
HETATM   16  C3  UNL     1      18.217   3.303  51.511  1.00  0.00     0.055 C 
BRANCH  16  17
HETATM   17  C2  UNL     1      16.950   4.014  51.409  1.00  0.00     0.145 C 
HETATM   18  C1  UNL     1      16.328   4.261  50.085  1.00  0.00     0.096 C 
HETATM   19  O1  UNL     1      16.396   4.413  52.465  1.00  0.00    -0.294 OA
ENDBRANCH  16  17
ENDBRANCH  12  15
ENDBRANCH   1  11
BRANCH   8  20
HETATM   20  C12 UNL     1      25.260   2.549  51.058  1.00  0.00    -0.008 A 
HETATM   21  C13 UNL     1      26.481   2.841  50.578  1.00  0.00     0.039 A 
HETATM   22  C14 UNL     1      26.487   3.981  49.690  1.00  0.00     0.024 A 
HETATM   23  C15 UNL     1      25.240   4.378  49.634  1.00  0.00     0.022 A 
HETATM   24  C16 UNL     1      24.327   3.518  50.482  1.00  0.00     0.118 A 
HETATM   25 BR1  UNL     1      23.135   2.732  49.144  1.00  0.00    -0.082 Br
BRANCH  22  26
HETATM   26  N4  UNL     1      27.398   4.741  48.918  1.00  0.00    -0.399 N 
HETATM   27  H11 UNL     1      28.414   4.846  49.164  1.00  0.00     0.156 HD
HETATM   28  H12 UNL     1      26.987   5.198  48.075  1.00  0.00     0.156 HD
ENDBRANCH  22  26
ENDBRANCH   8  20
TORSDOF 5
ENDMDL
MODEL 8
REMARK VINA RESULT:      -7.9      3.421      7.232
REMARK  5 active torsions:
REMARK  status: ('A' for Active; 'I' for Inactive)
REMARK    1  A    between atoms: C2_2  and  C3_4 
REMARK    2  A    between atoms: C4_5  and  C5_6 
REMARK       I    between atoms: C5_6  and  N1_8 
REMARK    3  A    between atoms: N1_8  and  C6_9 
REMARK    4  A    between atoms: C11_16  and  C12_17 
REMARK    5  A    between atoms: C14_19  and  N4_20 
ROOT
HETATM    1  C6  UNL     1      23.746   3.944  52.192  1.00  0.00     0.035 A 
HETATM    2  C7  UNL     1      22.405   3.658  52.329  1.00  0.00     0.032 A 
HETATM    3  C8  UNL     1      21.429   4.280  51.603  1.00  0.00     0.035 A 
HETATM    4  C9  UNL     1      21.813   5.230  50.703  1.00  0.00     0.070 A 
HETATM    5  N2  UNL     1      20.858   5.834  49.983  1.00  0.00    -0.241 NA
HETATM    6  C10 UNL     1      21.192   6.752  49.096  1.00  0.00     0.234 A 
HETATM    7  N3  UNL     1      22.466   7.041  48.951  1.00  0.00    -0.241 NA
HETATM    8  C11 UNL     1      23.521   6.542  49.576  1.00  0.00     0.078 A 
HETATM    9  C17 UNL     1      23.134   5.593  50.489  1.00  0.00     0.024 A 
HETATM   10  C18 UNL     1      24.031   4.914  51.260  1.00  0.00     0.045 A 
ENDROOT
BRANCH   1  11
HETATM   11  N1  UNL     1      24.805   3.339  52.909  1.00  0.00    -0.324 N 
HETATM   12  C5  UNL     1      25.505   2.151  52.678  1.00  0.00     0.245 C 
HETATM   13  O2  UNL     1      25.155   1.490  51.671  1.00  0.00    -0.268 OA
HETATM   14  H6  UNL     1      25.168   3.819  53.768  1.00  0.00     0.169 HD
BRANCH  12  15
HETATM   15  C4  UNL     1      26.589   1.642  53.508  1.00  0.00     0.078 C 
HETATM   16  C3  UNL     1      27.776   1.178  53.235  1.00  0.00     0.055 C 
BRANCH  16  17
HETATM   17  C2  UNL     1      28.845   0.674  54.086  1.00  0.00     0.145 C 
HETATM   18  C1  UNL     1      29.690  -0.462  53.643  1.00  0.00     0.096 C 
HETATM   19  O1  UNL     1      29.036   1.220  55.203  1.00  0.00    -0.294 OA
ENDBRANCH  16  17
ENDBRANCH  12  15
ENDBRANCH   1  11
BRANCH   8  20
HETATM   20  C12 UNL     1      24.937   6.914  49.351  1.00  0.00    -0.008 A 
HETATM   21  C13 UNL     1      25.262   7.864  50.246  1.00  0.00     0.039 A 
HETATM   22  C14 UNL     1      26.630   8.315  50.128  1.00  0.00     0.024 A 
HETATM   23  C15 UNL     1      27.137   7.615  49.143  1.00  0.00     0.022 A 
HETATM   24  C16 UNL     1      26.132   6.650  48.549  1.00  0.00     0.118 A 
HETATM   25 BR1  UNL     1      26.944   4.913  48.934  1.00  0.00    -0.082 Br
BRANCH  22  26
HETATM   26  N4  UNL     1      27.517   9.236  50.732  1.00  0.00    -0.399 N 
HETATM   27  H11 UNL     1      28.316   8.946  51.351  1.00  0.00     0.156 HD
HETATM   28  H12 UNL     1      27.324  10.239  50.522  1.00  0.00     0.156 HD
ENDBRANCH  22  26
ENDBRANCH   8  20
TORSDOF 5
ENDMDL
MODEL 9
REMARK VINA RESULT:      -7.8      2.199      4.445
REMARK  5 active torsions:
REMARK  status: ('A' for Active; 'I' for Inactive)
REMARK    1  A    between atoms: C2_2  and  C3_4 
REMARK    2  A    between atoms: C4_5  and  C5_6 
REMARK       I    between atoms: C5_6  and  N1_8 
REMARK    3  A    between atoms: N1_8  and  C6_9 
REMARK    4  A    between atoms: C11_16  and  C12_17 
REMARK    5  A    between atoms: C14_19  and  N4_20 
ROOT
HETATM    1  C6  UNL     1      26.156   2.544  52.164  1.00  0.00     0.035 A 
HETATM    2  C7  UNL     1      27.219   2.154  52.949  1.00  0.00     0.032 A 
HETATM    3  C8  UNL     1      27.139   1.146  53.869  1.00  0.00     0.035 A 
HETATM    4  C9  UNL     1      25.943   0.506  54.010  1.00  0.00     0.070 A 
HETATM    5  N2  UNL     1      25.867  -0.488  54.905  1.00  0.00    -0.241 NA
HETATM    6  C10 UNL     1      24.729  -1.138  55.062  1.00  0.00     0.234 A 
HETATM    7  N3  UNL     1      23.701  -0.779  54.324  1.00  0.00    -0.241 NA
HETATM    8  C11 UNL     1      23.613   0.170  53.406  1.00  0.00     0.078 A 
HETATM    9  C17 UNL     1      24.814   0.822  53.271  1.00  0.00     0.024 A 
HETATM   10  C18 UNL     1      24.995   1.838  52.380  1.00  0.00     0.045 A 
ENDROOT
BRANCH   1  11
HETATM   11  N1  UNL     1      26.170   3.575  51.195  1.00  0.00    -0.324 N 
HETATM   12  C5  UNL     1      26.563   3.564  49.853  1.00  0.00     0.245 C 
HETATM   13  O2  UNL     1      26.978   2.467  49.408  1.00  0.00    -0.268 OA
HETATM   14  H6  UNL     1      25.840   4.531  51.474  1.00  0.00     0.169 HD
BRANCH  12  15
HETATM   15  C4  UNL     1      26.523   4.714  48.959  1.00  0.00     0.078 C 
HETATM   16  C3  UNL     1      27.263   5.781  48.848  1.00  0.00     0.055 C 
BRANCH  16  17
HETATM   17  C2  UNL     1      27.203   6.920  47.942  1.00  0.00     0.145 C 
HETATM   18  C1  UNL     1      28.442   7.475  47.345  1.00  0.00     0.096 C 
HETATM   19  O1  UNL     1      26.080   7.421  47.678  1.00  0.00    -0.294 OA
ENDBRANCH  16  17
ENDBRANCH  12  15
ENDBRANCH   1  11
BRANCH   8  20
HETATM   20  C12 UNL     1      22.415   0.513  52.604  1.00  0.00    -0.008 A 
HETATM   21  C13 UNL     1      21.387  -0.221  53.064  1.00  0.00     0.039 A 
HETATM   22  C14 UNL     1      20.150   0.025  52.356  1.00  0.00     0.024 A 
HETATM   23  C15 UNL     1      20.445   0.930  51.455  1.00  0.00     0.022 A 
HETATM   24  C16 UNL     1      21.901   1.344  51.515  1.00  0.00     0.118 A 
HETATM   25 BR1  UNL     1      21.776   3.237  51.989  1.00  0.00    -0.082 Br
BRANCH  22  26
HETATM   26  N4  UNL     1      18.803  -0.406  52.359  1.00  0.00    -0.399 N 
HETATM   27  H11 UNL     1      18.082  -0.049  51.682  1.00  0.00     0.156 HD
HETATM   28  H12 UNL     1      18.567  -1.113  53.089  1.00  0.00     0.156 HD
ENDBRANCH  22  26
ENDBRANCH   8  20
TORSDOF 5
ENDMDL
