MODEL 1
REMARK VINA RESULT:      -8.0      0.000      0.000
REMARK  2 active torsions:
REMARK  status: ('A' for Active; 'I' for Inactive)
REMARK    1  A    between atoms: C3_3  and  C4_4 
REMARK       I    between atoms: C4_4  and  N1_6 
REMARK    2  A    between atoms: N1_6  and  C5_7 
ROOT
HETATM    1  C1  UNL     1      21.161  10.487  48.831  1.00  0.00     0.112 C 
HETATM    2  C2  UNL     1      21.445   9.051  48.942  1.00  0.00    -0.101 C 
HETATM    3  C3  UNL     1      21.674   7.856  49.015  1.00  0.00    -0.006 C 
ENDROOT
BRANCH   3   4
HETATM    4  C4  UNL     1      21.949   6.452  49.125  1.00  0.00     0.300 C 
HETATM    5  O1  UNL     1      21.335   5.811  50.043  1.00  0.00    -0.258 OA
HETATM    6  N1  UNL     1      22.863   5.773  48.258  1.00  0.00    -0.316 N 
HETATM    7  H4  UNL     1      23.362   6.326  47.500  1.00  0.00     0.170 HD
BRANCH   6   8
HETATM    8  C5  UNL     1      23.002   4.358  48.531  1.00  0.00     0.035 C 
HETATM    9  C6  UNL     1      22.287   3.497  47.781  1.00  0.00     0.024 C 
HETATM   10  C7  UNL     1      22.272   1.984  47.885  1.00  0.00     0.180 C 
HETATM   11  N2  UNL     1      22.071   1.584  49.230  1.00  0.00    -0.266 NA
HETATM   12  C8  UNL     1      22.664   1.895  50.334  1.00  0.00     0.171 C 
HETATM   13  N3  UNL     1      21.781   1.040  51.003  1.00  0.00    -0.243 NA
HETATM   14  C18 UNL     1      23.795   2.857  50.387  1.00  0.00     0.082 C 
HETATM   15  C9  UNL     1      21.973   0.481  52.125  1.00  0.00     0.101 C 
HETATM   16  C10 UNL     1      22.575   0.002  53.474  1.00  0.00     0.055 C 
HETATM   17  C11 UNL     1      22.123  -1.399  53.647  1.00  0.00     0.020 C 
HETATM   18  C12 UNL     1      24.050   0.135  53.193  1.00  0.00    -0.046 A 
HETATM   19  C13 UNL     1      25.214  -0.579  53.332  1.00  0.00     0.027 A 
HETATM   20  C17 UNL     1      24.151   1.320  52.498  1.00  0.00     0.037 A 
HETATM   21  C14 UNL     1      26.350  -0.056  52.770  1.00  0.00     0.013 A 
HETATM   22 BR1  UNL     1      27.917  -1.107  53.010  1.00  0.00    -0.051 Br
HETATM   23  C15 UNL     1      26.433   1.121  52.074  1.00  0.00     0.048 A 
HETATM   24  C16 UNL     1      25.267   1.828  51.940  1.00  0.00     0.034 A 
HETATM   25  N4  UNL     1      24.991   2.999  51.189  1.00  0.00    -0.353 N 
HETATM   26  H16 UNL     1      25.711   3.671  51.385  1.00  0.00     0.166 HD
HETATM   27  C19 UNL     1      23.915   3.913  49.608  1.00  0.00     0.062 C 
ENDBRANCH   6   8
ENDBRANCH   3   4
TORSDOF 2
ENDMDL
MODEL 2
REMARK VINA RESULT:      -7.7      3.310      7.601
REMARK  2 active torsions:
REMARK  status: ('A' for Active; 'I' for Inactive)
REMARK    1  A    between atoms: C3_3  and  C4_4 
REMARK       I    between atoms: C4_4  and  N1_6 
REMARK    2  A    between atoms: N1_6  and  C5_7 
ROOT
HETATM    1  C1  UNL     1      30.495  -1.239  53.997  1.00  0.00     0.112 C 
HETATM    2  C2  UNL     1      29.184  -0.732  53.575  1.00  0.00    -0.101 C 
HETATM    3  C3  UNL     1      28.094  -0.298  53.241  1.00  0.00    -0.006 C 
ENDROOT
BRANCH   3   4
HETATM    4  C4  UNL     1      26.811   0.196  52.828  1.00  0.00     0.300 C 
HETATM    5  O1  UNL     1      26.530   0.109  51.585  1.00  0.00    -0.258 OA
HETATM    6  N1  UNL     1      25.870   0.764  53.745  1.00  0.00    -0.316 N 
HETATM    7  H4  UNL     1      26.125   0.825  54.774  1.00  0.00     0.170 HD
BRANCH   6   8
HETATM    8  C5  UNL     1      24.635   1.203  53.131  1.00  0.00     0.035 C 
HETATM    9  C6  UNL     1      23.596   0.344  53.117  1.00  0.00     0.024 C 
HETATM   10  C7  UNL     1      22.217   0.584  52.535  1.00  0.00     0.180 C 
HETATM   11  N2  UNL     1      22.319   1.087  51.215  1.00  0.00    -0.266 NA
HETATM   12  C8  UNL     1      22.969   2.079  50.704  1.00  0.00     0.171 C 
HETATM   13  N3  UNL     1      22.438   1.733  49.456  1.00  0.00    -0.243 NA
HETATM   14  C18 UNL     1      23.842   2.963  51.518  1.00  0.00     0.082 C 
HETATM   15  C9  UNL     1      22.297   2.499  48.455  1.00  0.00     0.101 C 
HETATM   16  C10 UNL     1      22.294   3.718  47.493  1.00  0.00     0.055 C 
HETATM   17  C11 UNL     1      21.061   3.592  46.681  1.00  0.00     0.020 C 
HETATM   18  C12 UNL     1      22.260   4.859  48.477  1.00  0.00    -0.046 A 
HETATM   19  C13 UNL     1      21.592   6.038  48.695  1.00  0.00     0.027 A 
HETATM   20  C17 UNL     1      23.124   4.464  49.475  1.00  0.00     0.037 A 
HETATM   21  C14 UNL     1      21.839   6.700  49.871  1.00  0.00     0.013 A 
HETATM   22 BR1  UNL     1      20.874   8.324  50.092  1.00  0.00    -0.051 Br
HETATM   23  C15 UNL     1      22.696   6.290  50.858  1.00  0.00     0.048 A 
HETATM   24  C16 UNL     1      23.359   5.112  50.633  1.00  0.00     0.034 A 
HETATM   25  N4  UNL     1      24.206   4.364  51.490  1.00  0.00    -0.353 N 
HETATM   26  H16 UNL     1      24.874   4.994  51.895  1.00  0.00     0.166 HD
HETATM   27  C19 UNL     1      24.556   2.563  52.552  1.00  0.00     0.062 C 
ENDBRANCH   6   8
ENDBRANCH   3   4
TORSDOF 2
ENDMDL
MODEL 3
REMARK VINA RESULT:      -7.2      4.163      7.356
REMARK  2 active torsions:
REMARK  status: ('A' for Active; 'I' for Inactive)
REMARK    1  A    between atoms: C3_3  and  C4_4 
REMARK       I    between atoms: C4_4  and  N1_6 
REMARK    2  A    between atoms: N1_6  and  C5_7 
ROOT
HETATM    1  C1  UNL     1      29.888  -0.838  53.640  1.00  0.00     0.112 C 
HETATM    2  C2  UNL     1      28.770   0.023  53.235  1.00  0.00    -0.101 C 
HETATM    3  C3  UNL     1      27.850   0.754  52.908  1.00  0.00    -0.006 C 
ENDROOT
BRANCH   3   4
HETATM    4  C4  UNL     1      26.756   1.595  52.513  1.00  0.00     0.300 C 
HETATM    5  O1  UNL     1      27.014   2.525  51.675  1.00  0.00    -0.258 OA
HETATM    6  N1  UNL     1      25.428   1.423  53.015  1.00  0.00    -0.316 N 
HETATM    7  H4  UNL     1      25.236   0.643  53.710  1.00  0.00     0.170 HD
BRANCH   6   8
HETATM    8  C5  UNL     1      24.468   2.372  52.494  1.00  0.00     0.035 C 
HETATM    9  C6  UNL     1      24.321   3.544  53.143  1.00  0.00     0.024 C 
HETATM   10  C7  UNL     1      23.385   4.681  52.783  1.00  0.00     0.180 C 
HETATM   11  N2  UNL     1      22.072   4.191  52.570  1.00  0.00    -0.266 NA
HETATM   12  C8  UNL     1      21.600   3.247  51.826  1.00  0.00     0.171 C 
HETATM   13  N3  UNL     1      20.324   3.559  52.308  1.00  0.00    -0.243 NA
HETATM   14  C18 UNL     1      22.468   2.400  50.968  1.00  0.00     0.082 C 
HETATM   15  C9  UNL     1      19.218   3.312  51.738  1.00  0.00     0.101 C 
HETATM   16  C10 UNL     1      18.118   2.845  50.747  1.00  0.00     0.055 C 
HETATM   17  C11 UNL     1      17.051   3.872  50.809  1.00  0.00     0.020 C 
HETATM   18  C12 UNL     1      18.884   2.843  49.449  1.00  0.00    -0.046 A 
HETATM   19  C13 UNL     1      18.753   3.271  48.151  1.00  0.00     0.027 A 
HETATM   20  C17 UNL     1      20.113   2.320  49.788  1.00  0.00     0.037 A 
HETATM   21  C14 UNL     1      19.843   3.146  47.329  1.00  0.00     0.013 A 
HETATM   22 BR1  UNL     1      19.576   3.761  45.549  1.00  0.00    -0.051 Br
HETATM   23  C15 UNL     1      21.062   2.631  47.683  1.00  0.00     0.048 A 
HETATM   24  C16 UNL     1      21.185   2.205  48.980  1.00  0.00     0.034 A 
HETATM   25  N4  UNL     1      22.326   1.745  49.685  1.00  0.00    -0.353 N 
HETATM   26  H16 UNL     1      22.788   1.060  49.115  1.00  0.00     0.166 HD
HETATM   27  C19 UNL     1      23.694   2.029  51.279  1.00  0.00     0.062 C 
ENDBRANCH   6   8
ENDBRANCH   3   4
TORSDOF 2
ENDMDL
MODEL 4
REMARK VINA RESULT:      -7.0      3.038      4.240
REMARK  2 active torsions:
REMARK  status: ('A' for Active; 'I' for Inactive)
REMARK    1  A    between atoms: C3_3  and  C4_4 
REMARK       I    between atoms: C4_4  and  N1_6 
REMARK    2  A    between atoms: N1_6  and  C5_7 
ROOT
HETATM    1  C1  UNL     1      23.835   8.025  44.365  1.00  0.00     0.112 C 
HETATM    2  C2  UNL     1      23.489   7.390  45.642  1.00  0.00    -0.101 C 
HETATM    3  C3  UNL     1      23.182   6.869  46.701  1.00  0.00    -0.006 C 
ENDROOT
BRANCH   3   4
HETATM    4  C4  UNL     1      22.844   6.250  47.951  1.00  0.00     0.300 C 
HETATM    5  O1  UNL     1      21.719   6.565  48.468  1.00  0.00    -0.258 OA
HETATM    6  N1  UNL     1      23.707   5.318  48.610  1.00  0.00    -0.316 N 
HETATM    7  H4  UNL     1      24.637   5.070  48.161  1.00  0.00     0.170 HD
BRANCH   6   8
HETATM    8  C5  UNL     1      23.185   4.806  49.859  1.00  0.00     0.035 C 
HETATM    9  C6  UNL     1      23.520   5.448  50.995  1.00  0.00     0.024 C 
HETATM   10  C7  UNL     1      23.094   5.096  52.407  1.00  0.00     0.180 C 
HETATM   11  N2  UNL     1      23.318   3.720  52.662  1.00  0.00    -0.266 NA
HETATM   12  C8  UNL     1      22.974   2.646  52.033  1.00  0.00     0.171 C 
HETATM   13  N3  UNL     1      23.631   1.905  53.021  1.00  0.00    -0.243 NA
HETATM   14  C18 UNL     1      22.196   2.679  50.768  1.00  0.00     0.082 C 
HETATM   15  C9  UNL     1      23.410   0.696  53.333  1.00  0.00     0.101 C 
HETATM   16  C10 UNL     1      22.850  -0.751  53.410  1.00  0.00     0.055 C 
HETATM   17  C11 UNL     1      22.879  -1.123  54.844  1.00  0.00     0.020 C 
HETATM   18  C12 UNL     1      21.460  -0.549  52.863  1.00  0.00    -0.046 A 
HETATM   19  C13 UNL     1      20.160  -0.881  53.151  1.00  0.00     0.027 A 
HETATM   20  C17 UNL     1      21.639   0.324  51.813  1.00  0.00     0.037 A 
HETATM   21  C14 UNL     1      19.175  -0.316  52.381  1.00  0.00     0.013 A 
HETATM   22 BR1  UNL     1      17.404  -0.829  52.846  1.00  0.00    -0.051 Br
HETATM   23  C15 UNL     1      19.369   0.558  51.344  1.00  0.00     0.048 A 
HETATM   24  C16 UNL     1      20.670   0.884  51.062  1.00  0.00     0.034 A 
HETATM   25  N4  UNL     1      21.196   1.834  50.151  1.00  0.00    -0.353 N 
HETATM   26  H16 UNL     1      20.736   1.705  49.267  1.00  0.00     0.166 HD
HETATM   27  C19 UNL     1      22.309   3.612  49.844  1.00  0.00     0.062 C 
ENDBRANCH   6   8
ENDBRANCH   3   4
TORSDOF 2
ENDMDL
MODEL 5
REMARK VINA RESULT:      -6.9      2.986      4.683
REMARK  2 active torsions:
REMARK  status: ('A' for Active; 'I' for Inactive)
REMARK    1  A    between atoms: C3_3  and  C4_4 
REMARK       I    between atoms: C4_4  and  N1_6 
REMARK    2  A    between atoms: N1_6  and  C5_7 
ROOT
HETATM    1  C1  UNL     1      19.758   3.561  41.114  1.00  0.00     0.112 C 
HETATM    2  C2  UNL     1      20.108   3.722  42.530  1.00  0.00    -0.101 C 
HETATM    3  C3  UNL     1      20.381   3.845  43.712  1.00  0.00    -0.006 C 
ENDROOT
BRANCH   3   4
HETATM    4  C4  UNL     1      20.723   4.004  45.097  1.00  0.00     0.300 C 
HETATM    5  O1  UNL     1      19.758   4.190  45.913  1.00  0.00    -0.258 OA
HETATM    6  N1  UNL     1      22.072   3.957  45.572  1.00  0.00    -0.316 N 
HETATM    7  H4  UNL     1      22.858   3.800  44.875  1.00  0.00     0.170 HD
BRANCH   6   8
HETATM    8  C5  UNL     1      22.205   4.139  47.001  1.00  0.00     0.035 C 
HETATM    9  C6  UNL     1      22.503   5.372  47.457  1.00  0.00     0.024 C 
HETATM   10  C7  UNL     1      22.689   5.795  48.901  1.00  0.00     0.180 C 
HETATM   11  N2  UNL     1      23.580   4.914  49.563  1.00  0.00    -0.266 NA
HETATM   12  C8  UNL     1      23.610   3.628  49.685  1.00  0.00     0.171 C 
HETATM   13  N3  UNL     1      24.775   3.768  50.446  1.00  0.00    -0.243 NA
HETATM   14  C18 UNL     1      22.592   2.745  49.059  1.00  0.00     0.082 C 
HETATM   15  C9  UNL     1      25.228   2.942  51.295  1.00  0.00     0.101 C 
HETATM   16  C10 UNL     1      25.439   1.713  52.222  1.00  0.00     0.055 C 
HETATM   17  C11 UNL     1      26.025   2.244  53.475  1.00  0.00     0.020 C 
HETATM   18  C12 UNL     1      24.022   1.222  52.374  1.00  0.00    -0.046 A 
HETATM   19  C13 UNL     1      23.153   0.810  53.353  1.00  0.00     0.027 A 
HETATM   20  C17 UNL     1      23.487   1.354  51.111  1.00  0.00     0.037 A 
HETATM   21  C14 UNL     1      21.851   0.577  52.989  1.00  0.00     0.013 A 
HETATM   22 BR1  UNL     1      20.715   0.008  54.404  1.00  0.00    -0.051 Br
HETATM   23  C15 UNL     1      21.332   0.720  51.729  1.00  0.00     0.048 A 
HETATM   24  C16 UNL     1      22.205   1.131  50.757  1.00  0.00     0.034 A 
HETATM   25  N4  UNL     1      21.966   1.487  49.406  1.00  0.00    -0.353 N 
HETATM   26  H16 UNL     1      21.396   0.772  48.992  1.00  0.00     0.166 HD
HETATM   27  C19 UNL     1      22.008   2.980  47.902  1.00  0.00     0.062 C 
ENDBRANCH   6   8
ENDBRANCH   3   4
TORSDOF 2
ENDMDL
MODEL 6
REMARK VINA RESULT:      -6.9      2.911      3.080
REMARK  2 active torsions:
REMARK  status: ('A' for Active; 'I' for Inactive)
REMARK    1  A    between atoms: C3_3  and  C4_4 
REMARK       I    between atoms: C4_4  and  N1_6 
REMARK    2  A    between atoms: N1_6  and  C5_7 
ROOT
HETATM    1  C1  UNL     1      27.720  11.698  47.738  1.00  0.00     0.112 C 
HETATM    2  C2  UNL     1      27.141  10.358  47.893  1.00  0.00    -0.101 C 
HETATM    3  C3  UNL     1      26.647   9.249  48.007  1.00  0.00    -0.006 C 
ENDROOT
BRANCH   3   4
HETATM    4  C4  UNL     1      26.080   7.940  48.160  1.00  0.00     0.300 C 
HETATM    5  O1  UNL     1      26.746   6.960  47.682  1.00  0.00    -0.258 OA
HETATM    6  N1  UNL     1      24.828   7.711  48.816  1.00  0.00    -0.316 N 
HETATM    7  H4  UNL     1      24.292   8.540  49.207  1.00  0.00     0.170 HD
BRANCH   6   8
HETATM    8  C5  UNL     1      24.431   6.321  48.868  1.00  0.00     0.035 C 
HETATM    9  C6  UNL     1      23.468   5.907  48.020  1.00  0.00     0.024 C 
HETATM   10  C7  UNL     1      22.895   4.508  47.896  1.00  0.00     0.180 C 
HETATM   11  N2  UNL     1      22.528   4.010  49.171  1.00  0.00    -0.266 NA
HETATM   12  C8  UNL     1      23.167   3.908  50.288  1.00  0.00     0.171 C 
HETATM   13  N3  UNL     1      22.015   3.346  50.850  1.00  0.00    -0.243 NA
HETATM   14  C18 UNL     1      24.570   4.368  50.448  1.00  0.00     0.082 C 
HETATM   15  C9  UNL     1      21.960   2.591  51.867  1.00  0.00     0.101 C 
HETATM   16  C10 UNL     1      22.311   1.725  53.108  1.00  0.00     0.055 C 
HETATM   17  C11 UNL     1      21.372   0.579  53.082  1.00  0.00     0.020 C 
HETATM   18  C12 UNL     1      23.738   1.348  52.801  1.00  0.00    -0.046 A 
HETATM   19  C13 UNL     1      24.554   0.245  52.791  1.00  0.00     0.027 A 
HETATM   20  C17 UNL     1      24.284   2.505  52.290  1.00  0.00     0.037 A 
HETATM   21  C14 UNL     1      25.816   0.394  52.277  1.00  0.00     0.013 A 
HETATM   22 BR1  UNL     1      26.881  -1.181  52.303  1.00  0.00    -0.051 Br
HETATM   23  C15 UNL     1      26.343   1.550  51.764  1.00  0.00     0.048 A 
HETATM   24  C16 UNL     1      25.523   2.647  51.778  1.00  0.00     0.034 A 
HETATM   25  N4  UNL     1      25.715   3.938  51.222  1.00  0.00    -0.353 N 
HETATM   26  H16 UNL     1      26.626   4.260  51.493  1.00  0.00     0.166 HD
HETATM   27  C19 UNL     1      25.089   5.413  49.834  1.00  0.00     0.062 C 
ENDBRANCH   6   8
ENDBRANCH   3   4
TORSDOF 2
ENDMDL
MODEL 7
REMARK VINA RESULT:      -6.6      2.117      2.561
REMARK  2 active torsions:
REMARK  status: ('A' for Active; 'I' for Inactive)
REMARK    1  A    between atoms: C3_3  and  C4_4 
REMARK       I    between atoms: C4_4  and  N1_6 
REMARK    2  A    between atoms: N1_6  and  C5_7 
ROOT
HETATM    1  C1  UNL     1      20.416  12.788  49.290  1.00  0.00     0.112 C 
HETATM    2  C2  UNL     1      20.610  11.333  49.277  1.00  0.00    -0.101 C 
HETATM    3  C3  UNL     1      20.769  10.124  49.286  1.00  0.00    -0.006 C 
ENDROOT
BRANCH   3   4
HETATM    4  C4  UNL     1      20.961   8.702  49.273  1.00  0.00     0.300 C 
HETATM    5  O1  UNL     1      21.802   8.239  48.430  1.00  0.00    -0.258 OA
HETATM    6  N1  UNL     1      20.259   7.818  50.153  1.00  0.00    -0.316 N 
HETATM    7  H4  UNL     1      19.565   8.225  50.846  1.00  0.00     0.170 HD
BRANCH   6   8
HETATM    8  C5  UNL     1      20.593   6.420  49.982  1.00  0.00     0.035 C 
HETATM    9  C6  UNL     1      19.854   5.694  49.120  1.00  0.00     0.024 C 
HETATM   10  C7  UNL     1      20.019   4.225  48.782  1.00  0.00     0.180 C 
HETATM   11  N2  UNL     1      20.100   3.452  49.968  1.00  0.00    -0.266 NA
HETATM   12  C8  UNL     1      20.842   3.541  51.021  1.00  0.00     0.171 C 
HETATM   13  N3  UNL     1      20.186   2.414  51.528  1.00  0.00    -0.243 NA
HETATM   14  C18 UNL     1      21.855   4.613  51.194  1.00  0.00     0.082 C 
HETATM   15  C9  UNL     1      20.630   1.609  52.402  1.00  0.00     0.101 C 
HETATM   16  C10 UNL     1      21.506   0.881  53.458  1.00  0.00     0.055 C 
HETATM   17  C11 UNL     1      21.244  -0.566  53.278  1.00  0.00     0.020 C 
HETATM   18  C12 UNL     1      22.887   1.308  53.027  1.00  0.00    -0.046 A 
HETATM   19  C13 UNL     1      24.126   0.768  52.791  1.00  0.00     0.027 A 
HETATM   20  C17 UNL     1      22.737   2.637  52.699  1.00  0.00     0.037 A 
HETATM   21  C14 UNL     1      25.084   1.590  52.254  1.00  0.00     0.013 A 
HETATM   22 BR1  UNL     1      26.772   0.764  51.961  1.00  0.00    -0.051 Br
HETATM   23  C15 UNL     1      24.918   2.909  51.925  1.00  0.00     0.048 A 
HETATM   24  C16 UNL     1      23.678   3.441  52.164  1.00  0.00     0.034 A 
HETATM   25  N4  UNL     1      23.151   4.714  51.831  1.00  0.00    -0.353 N 
HETATM   26  H16 UNL     1      23.818   5.410  52.112  1.00  0.00     0.166 HD
HETATM   27  C19 UNL     1      21.723   5.846  50.747  1.00  0.00     0.062 C 
ENDBRANCH   6   8
ENDBRANCH   3   4
TORSDOF 2
ENDMDL
MODEL 8
REMARK VINA RESULT:      -6.6      4.722      5.632
REMARK  2 active torsions:
REMARK  status: ('A' for Active; 'I' for Inactive)
REMARK    1  A    between atoms: C3_3  and  C4_4 
REMARK       I    between atoms: C4_4  and  N1_6 
REMARK    2  A    between atoms: N1_6  and  C5_7 
ROOT
HETATM    1  C1  UNL     1      12.168   4.530  53.929  1.00  0.00     0.112 C 
HETATM    2  C2  UNL     1      13.396   3.926  53.399  1.00  0.00    -0.101 C 
HETATM    3  C3  UNL     1      14.420   3.416  52.977  1.00  0.00    -0.006 C 
ENDROOT
BRANCH   3   4
HETATM    4  C4  UNL     1      15.622   2.828  52.459  1.00  0.00     0.300 C 
HETATM    5  O1  UNL     1      15.773   1.571  52.631  1.00  0.00    -0.258 OA
HETATM    6  N1  UNL     1      16.623   3.588  51.775  1.00  0.00    -0.316 N 
HETATM    7  H4  UNL     1      16.477   4.632  51.642  1.00  0.00     0.170 HD
BRANCH   6   8
HETATM    8  C5  UNL     1      17.759   2.810  51.329  1.00  0.00     0.035 C 
HETATM    9  C6  UNL     1      17.523   1.592  50.803  1.00  0.00     0.024 C 
HETATM   10  C7  UNL     1      18.548   0.608  50.274  1.00  0.00     0.180 C 
HETATM   11  N2  UNL     1      19.590   0.425  51.217  1.00  0.00    -0.266 NA
HETATM   12  C8  UNL     1      20.356   1.253  51.847  1.00  0.00     0.171 C 
HETATM   13  N3  UNL     1      20.965   0.157  52.467  1.00  0.00    -0.243 NA
HETATM   14  C18 UNL     1      20.249   2.725  51.675  1.00  0.00     0.082 C 
HETATM   15  C9  UNL     1      22.128   0.121  52.971  1.00  0.00     0.101 C 
HETATM   16  C10 UNL     1      23.559   0.480  53.457  1.00  0.00     0.055 C 
HETATM   17  C11 UNL     1      24.375  -0.741  53.257  1.00  0.00     0.020 C 
HETATM   18  C12 UNL     1      23.908   1.605  52.517  1.00  0.00    -0.046 A 
HETATM   19  C13 UNL     1      24.939   2.018  51.710  1.00  0.00     0.027 A 
HETATM   20  C17 UNL     1      22.745   2.338  52.428  1.00  0.00     0.037 A 
HETATM   21  C14 UNL     1      24.716   3.101  50.900  1.00  0.00     0.013 A 
HETATM   22 BR1  UNL     1      26.195   3.607  49.817  1.00  0.00    -0.051 Br
HETATM   23  C15 UNL     1      23.550   3.816  50.817  1.00  0.00     0.048 A 
HETATM   24  C16 UNL     1      22.526   3.398  51.626  1.00  0.00     0.034 A 
HETATM   25  N4  UNL     1      21.178   3.835  51.691  1.00  0.00    -0.353 N 
HETATM   26  H16 UNL     1      21.178   4.838  51.726  1.00  0.00     0.166 HD
HETATM   27  C19 UNL     1      19.122   3.373  51.462  1.00  0.00     0.062 C 
ENDBRANCH   6   8
ENDBRANCH   3   4
TORSDOF 2
ENDMDL
MODEL 9
REMARK VINA RESULT:      -6.5      3.950      5.202
REMARK  2 active torsions:
REMARK  status: ('A' for Active; 'I' for Inactive)
REMARK    1  A    between atoms: C3_3  and  C4_4 
REMARK       I    between atoms: C4_4  and  N1_6 
REMARK    2  A    between atoms: N1_6  and  C5_7 
ROOT
HETATM    1  C1  UNL     1      28.985   9.148  44.666  1.00  0.00     0.112 C 
HETATM    2  C2  UNL     1      28.102   8.581  45.692  1.00  0.00    -0.101 C 
HETATM    3  C3  UNL     1      27.353   8.109  46.531  1.00  0.00    -0.006 C 
ENDROOT
BRANCH   3   4
HETATM    4  C4  UNL     1      26.490   7.556  47.535  1.00  0.00     0.300 C 
HETATM    5  O1  UNL     1      27.015   6.738  48.364  1.00  0.00    -0.258 OA
HETATM    6  N1  UNL     1      25.101   7.888  47.629  1.00  0.00    -0.316 N 
HETATM    7  H4  UNL     1      24.686   8.571  46.930  1.00  0.00     0.170 HD
BRANCH   6   8
HETATM    8  C5  UNL     1      24.404   7.225  48.710  1.00  0.00     0.035 C 
HETATM    9  C6  UNL     1      24.457   7.785  49.934  1.00  0.00     0.024 C 
HETATM   10  C7  UNL     1      23.809   7.273  51.206  1.00  0.00     0.180 C 
HETATM   11  N2  UNL     1      24.110   5.902  51.396  1.00  0.00    -0.266 NA
HETATM   12  C8  UNL     1      23.993   4.866  50.634  1.00  0.00     0.171 C 
HETATM   13  N3  UNL     1      24.520   4.091  51.673  1.00  0.00    -0.243 NA
HETATM   14  C18 UNL     1      23.466   4.953  49.247  1.00  0.00     0.082 C 
HETATM   15  C9  UNL     1      24.359   2.845  51.844  1.00  0.00     0.101 C 
HETATM   16  C10 UNL     1      23.933   1.358  51.702  1.00  0.00     0.055 C 
HETATM   17  C11 UNL     1      23.727   0.860  53.083  1.00  0.00     0.020 C 
HETATM   18  C12 UNL     1      22.658   1.500  50.911  1.00  0.00    -0.046 A 
HETATM   19  C13 UNL     1      21.364   1.042  50.914  1.00  0.00     0.027 A 
HETATM   20  C17 UNL     1      22.948   2.476  49.984  1.00  0.00     0.037 A 
HETATM   21  C14 UNL     1      20.493   1.597  50.012  1.00  0.00     0.013 A 
HETATM   22 BR1  UNL     1      18.722   0.906  50.083  1.00  0.00    -0.051 Br
HETATM   23  C15 UNL     1      20.795   2.574  49.101  1.00  0.00     0.048 A 
HETATM   24  C16 UNL     1      22.088   3.025  49.103  1.00  0.00     0.034 A 
HETATM   25  N4  UNL     1      22.684   4.093  48.385  1.00  0.00    -0.353 N 
HETATM   26  H16 UNL     1      22.413   4.010  47.422  1.00  0.00     0.166 HD
HETATM   27  C19 UNL     1      23.662   5.972  48.436  1.00  0.00     0.062 C 
ENDBRANCH   6   8
ENDBRANCH   3   4
TORSDOF 2
ENDMDL
