MODEL 1
REMARK VINA RESULT:      -7.5      0.000      0.000
REMARK  3 active torsions:
REMARK  status: ('A' for Active; 'I' for Inactive)
REMARK    1  A    between atoms: N1_4  and  O1_5 
REMARK    2  A    between atoms: C4_6  and  C18_21 
REMARK    3  A    between atoms: N2_15  and  C13_16 
ROOT
HETATM    1  C1  UNL     1      20.667   4.111  51.091  1.00  0.00     0.017 C 
HETATM    2  C2  UNL     1      21.185   3.129  51.942  1.00  0.00    -0.051 C 
HETATM    3  C3  UNL     1      22.369   3.921  52.361  1.00  0.00     0.185 C 
HETATM    4  N1  UNL     1      23.555   3.177  52.440  1.00  0.00    -0.279 N 
HETATM    5  C4  UNL     1      23.809   2.501  51.239  1.00  0.00     0.081 C 
HETATM    6  C5  UNL     1      25.315   2.336  51.145  1.00  0.00     0.046 C 
HETATM    7  C6  UNL     1      23.422   1.121  51.879  1.00  0.00     0.013 C 
HETATM    8  C7  UNL     1      22.481   0.384  52.590  1.00  0.00     0.049 C 
HETATM    9  C8  UNL     1      21.224   0.161  53.294  1.00  0.00     0.093 C 
HETATM   10  C9  UNL     1      20.621   1.632  53.430  1.00  0.00     0.051 C 
HETATM   11  C10 UNL     1      20.510   1.818  52.046  1.00  0.00     0.074 C 
HETATM   12  C11 UNL     1      20.712   0.503  51.264  1.00  0.00     0.042 C 
HETATM   13  C12 UNL     1      21.403   0.730  49.974  1.00  0.00     0.120 C 
HETATM   14  N2  UNL     1      20.892   2.081  50.083  1.00  0.00    -0.326 N 
HETATM   15  C19 UNL     1      19.570   1.985  50.917  1.00  0.00     0.248 C 
HETATM   16  O2  UNL     1      18.889   0.847  50.637  1.00  0.00    -0.346 OA
HETATM   17  C20 UNL     1      18.736  -0.198  51.656  1.00  0.00     0.296 C 
HETATM   18  N3  UNL     1      19.993  -0.011  52.458  1.00  0.00    -0.355 N 
ENDROOT
BRANCH   4  19
HETATM   19  O1  UNL     1      24.531   3.572  53.202  1.00  0.00    -0.291 OA
HETATM   20  H5  UNL     1      24.582   3.078  54.035  1.00  0.00     0.244 HD
ENDBRANCH   4  19
BRANCH   5  21
HETATM   21  C18 UNL     1      23.259   2.941  50.028  1.00  0.00    -0.001 A 
HETATM   22  C13 UNL     1      22.766   2.295  48.825  1.00  0.00     0.045 A 
HETATM   23  C14 UNL     1      22.337   2.799  47.623  1.00  0.00     0.030 A 
HETATM   24  C15 UNL     1      22.361   4.174  47.507  1.00  0.00     0.002 A 
HETATM   25  C16 UNL     1      22.814   4.836  48.615  1.00  0.00     0.001 A 
HETATM   26  C17 UNL     1      23.238   4.285  49.801  1.00  0.00     0.012 A 
ENDBRANCH   5  21
TORSDOF 3
ENDMDL
MODEL 2
REMARK VINA RESULT:      -7.3      2.122      4.299
REMARK  3 active torsions:
REMARK  status: ('A' for Active; 'I' for Inactive)
REMARK    1  A    between atoms: N1_4  and  O1_5 
REMARK    2  A    between atoms: C4_6  and  C18_21 
REMARK    3  A    between atoms: N2_15  and  C13_16 
ROOT
HETATM    1  C1  UNL     1      24.812   3.057  49.440  1.00  0.00     0.017 C 
HETATM    2  C2  UNL     1      23.820   4.022  49.639  1.00  0.00    -0.051 C 
HETATM    3  C3  UNL     1      24.672   4.929  50.449  1.00  0.00     0.185 C 
HETATM    4  N1  UNL     1      24.017   5.491  51.556  1.00  0.00    -0.279 N 
HETATM    5  C4  UNL     1      23.442   4.498  52.361  1.00  0.00     0.081 C 
HETATM    6  C5  UNL     1      23.400   5.056  53.772  1.00  0.00     0.046 C 
HETATM    7  C6  UNL     1      21.998   4.875  51.875  1.00  0.00     0.013 C 
HETATM    8  C7  UNL     1      21.146   5.094  50.796  1.00  0.00     0.049 C 
HETATM    9  C8  UNL     1      20.783   5.184  49.388  1.00  0.00     0.093 C 
HETATM   10  C9  UNL     1      22.191   5.085  48.645  1.00  0.00     0.051 C 
HETATM   11  C10 UNL     1      22.457   3.793  49.116  1.00  0.00     0.074 C 
HETATM   12  C11 UNL     1      21.214   3.140  49.758  1.00  0.00     0.042 C 
HETATM   13  C12 UNL     1      21.577   2.279  50.906  1.00  0.00     0.120 C 
HETATM   14  N2  UNL     1      22.875   2.191  50.268  1.00  0.00    -0.326 N 
HETATM   15  C19 UNL     1      22.624   2.374  48.733  1.00  0.00     0.248 C 
HETATM   16  O2  UNL     1      21.456   1.801  48.350  1.00  0.00    -0.346 OA
HETATM   17  C20 UNL     1      20.339   2.628  47.881  1.00  0.00     0.296 C 
HETATM   18  N3  UNL     1      20.571   3.897  48.653  1.00  0.00    -0.355 N 
ENDROOT
BRANCH   4  19
HETATM   19  O1  UNL     1      24.436   6.607  52.071  1.00  0.00    -0.291 OA
HETATM   20  H5  UNL     1      23.796   7.005  52.681  1.00  0.00     0.244 HD
ENDBRANCH   4  19
BRANCH   5  21
HETATM   21  C18 UNL     1      23.916   3.180  52.338  1.00  0.00    -0.001 A 
HETATM   22  C13 UNL     1      23.323   1.869  52.529  1.00  0.00     0.045 A 
HETATM   23  C14 UNL     1      23.874   0.614  52.599  1.00  0.00     0.030 A 
HETATM   24  C15 UNL     1      25.246   0.554  52.460  1.00  0.00     0.002 A 
HETATM   25  C16 UNL     1      25.858   1.763  52.273  1.00  0.00     0.001 A 
HETATM   26  C17 UNL     1      25.261   3.000  52.212  1.00  0.00     0.012 A 
ENDBRANCH   5  21
TORSDOF 3
ENDMDL
MODEL 3
REMARK VINA RESULT:      -7.2      2.127      3.299
REMARK  3 active torsions:
REMARK  status: ('A' for Active; 'I' for Inactive)
REMARK    1  A    between atoms: N1_4  and  O1_5 
REMARK    2  A    between atoms: C4_6  and  C18_21 
REMARK    3  A    between atoms: N2_15  and  C13_16 
ROOT
HETATM    1  C1  UNL     1      21.759   5.324  51.398  1.00  0.00     0.017 C 
HETATM    2  C2  UNL     1      23.043   4.821  51.633  1.00  0.00    -0.051 C 
HETATM    3  C3  UNL     1      23.731   6.129  51.486  1.00  0.00     0.185 C 
HETATM    4  N1  UNL     1      24.936   6.064  50.770  1.00  0.00    -0.279 N 
HETATM    5  C4  UNL     1      24.750   5.456  49.521  1.00  0.00     0.081 C 
HETATM    6  C5  UNL     1      25.812   6.027  48.599  1.00  0.00     0.046 C 
HETATM    7  C6  UNL     1      25.474   4.148  49.996  1.00  0.00     0.013 C 
HETATM    8  C7  UNL     1      25.561   3.139  50.951  1.00  0.00     0.049 C 
HETATM    9  C8  UNL     1      25.189   2.424  52.165  1.00  0.00     0.093 C 
HETATM   10  C9  UNL     1      24.174   3.427  52.877  1.00  0.00     0.051 C 
HETATM   11  C10 UNL     1      23.238   3.371  51.836  1.00  0.00     0.074 C 
HETATM   12  C11 UNL     1      23.544   2.233  50.839  1.00  0.00     0.042 C 
HETATM   13  C12 UNL     1      23.195   2.610  49.451  1.00  0.00     0.120 C 
HETATM   14  N2  UNL     1      22.282   3.550  50.069  1.00  0.00    -0.326 N 
HETATM   15  C19 UNL     1      21.880   2.929  51.450  1.00  0.00     0.248 C 
HETATM   16  O2  UNL     1      21.777   1.579  51.375  1.00  0.00    -0.346 OA
HETATM   17  C20 UNL     1      22.722   0.719  52.097  1.00  0.00     0.296 C 
HETATM   18  N3  UNL     1      23.952   1.582  52.112  1.00  0.00    -0.355 N 
ENDROOT
BRANCH   4  19
HETATM   19  O1  UNL     1      25.853   6.967  50.942  1.00  0.00    -0.291 OA
HETATM   20  H5  UNL     1      26.600   6.650  51.475  1.00  0.00     0.244 HD
ENDBRANCH   4  19
BRANCH   5  21
HETATM   21  C18 UNL     1      23.490   5.430  48.907  1.00  0.00    -0.001 A 
HETATM   22  C13 UNL     1      22.784   4.500  48.044  1.00  0.00     0.045 A 
HETATM   23  C14 UNL     1      21.583   4.590  47.387  1.00  0.00     0.030 A 
HETATM   24  C15 UNL     1      20.890   5.770  47.564  1.00  0.00     0.002 A 
HETATM   25  C16 UNL     1      21.508   6.683  48.373  1.00  0.00     0.001 A 
HETATM   26  C17 UNL     1      22.719   6.549  49.010  1.00  0.00     0.012 A 
ENDBRANCH   5  21
TORSDOF 3
ENDMDL
MODEL 4
REMARK VINA RESULT:      -7.2      2.430      5.485
REMARK  3 active torsions:
REMARK  status: ('A' for Active; 'I' for Inactive)
REMARK    1  A    between atoms: N1_4  and  O1_5 
REMARK    2  A    between atoms: C4_6  and  C18_21 
REMARK    3  A    between atoms: N2_15  and  C13_16 
ROOT
HETATM    1  C1  UNL     1      23.498   4.573  52.576  1.00  0.00     0.017 C 
HETATM    2  C2  UNL     1      22.579   4.913  51.578  1.00  0.00    -0.051 C 
HETATM    3  C3  UNL     1      21.779   3.667  51.698  1.00  0.00     0.185 C 
HETATM    4  N1  UNL     1      21.378   3.125  50.468  1.00  0.00    -0.279 N 
HETATM    5  C4  UNL     1      22.475   2.932  49.618  1.00  0.00     0.081 C 
HETATM    6  C5  UNL     1      22.112   1.780  48.697  1.00  0.00     0.046 C 
HETATM    7  C6  UNL     1      22.052   4.146  48.718  1.00  0.00     0.013 C 
HETATM    8  C7  UNL     1      21.699   5.490  48.657  1.00  0.00     0.049 C 
HETATM    9  C8  UNL     1      21.425   6.817  49.195  1.00  0.00     0.093 C 
HETATM   10  C9  UNL     1      21.409   6.572  50.771  1.00  0.00     0.051 C 
HETATM   11  C10 UNL     1      22.750   6.169  50.819  1.00  0.00     0.074 C 
HETATM   12  C11 UNL     1      23.496   6.471  49.502  1.00  0.00     0.042 C 
HETATM   13  C12 UNL     1      24.499   5.430  49.187  1.00  0.00     0.120 C 
HETATM   14  N2  UNL     1      24.487   5.166  50.612  1.00  0.00    -0.326 N 
HETATM   15  C19 UNL     1      24.102   6.516  51.306  1.00  0.00     0.248 C 
HETATM   16  O2  UNL     1      24.631   7.578  50.650  1.00  0.00    -0.346 OA
HETATM   17  C20 UNL     1      23.760   8.537  49.962  1.00  0.00     0.296 C 
HETATM   18  N3  UNL     1      22.604   7.658  49.576  1.00  0.00    -0.355 N 
ENDROOT
BRANCH   4  19
HETATM   19  O1  UNL     1      20.336   2.351  50.398  1.00  0.00    -0.291 OA
HETATM   20  H5  UNL     1      19.505   2.823  50.566  1.00  0.00     0.244 HD
ENDBRANCH   4  19
BRANCH   5  21
HETATM   21  C18 UNL     1      23.774   2.799  50.128  1.00  0.00    -0.001 A 
HETATM   22  C13 UNL     1      25.097   3.212  49.698  1.00  0.00     0.045 A 
HETATM   23  C14 UNL     1      26.348   2.951  50.197  1.00  0.00     0.030 A 
HETATM   24  C15 UNL     1      26.388   2.154  51.324  1.00  0.00     0.002 A 
HETATM   25  C16 UNL     1      25.167   1.738  51.777  1.00  0.00     0.001 A 
HETATM   26  C17 UNL     1      23.935   2.024  51.238  1.00  0.00     0.012 A 
ENDBRANCH   5  21
TORSDOF 3
ENDMDL
MODEL 5
REMARK VINA RESULT:      -7.2     10.355     12.705
REMARK  3 active torsions:
REMARK  status: ('A' for Active; 'I' for Inactive)
REMARK    1  A    between atoms: N1_4  and  O1_5 
REMARK    2  A    between atoms: C4_6  and  C18_21 
REMARK    3  A    between atoms: N2_15  and  C13_16 
ROOT
HETATM    1  C1  UNL     1      32.219   5.656  49.545  1.00  0.00     0.017 C 
HETATM    2  C2  UNL     1      31.518   5.924  48.365  1.00  0.00    -0.051 C 
HETATM    3  C3  UNL     1      31.868   4.641  47.704  1.00  0.00     0.185 C 
HETATM    4  N1  UNL     1      32.191   4.769  46.344  1.00  0.00    -0.279 N 
HETATM    5  C4  UNL     1      33.201   5.720  46.152  1.00  0.00     0.081 C 
HETATM    6  C5  UNL     1      33.942   5.315  44.890  1.00  0.00     0.046 C 
HETATM    7  C6  UNL     1      32.181   6.751  45.551  1.00  0.00     0.013 C 
HETATM    8  C7  UNL     1      30.979   7.434  45.707  1.00  0.00     0.049 C 
HETATM    9  C8  UNL     1      29.746   7.815  46.385  1.00  0.00     0.093 C 
HETATM   10  C9  UNL     1      29.660   6.774  47.590  1.00  0.00     0.051 C 
HETATM   11  C10 UNL     1      30.842   7.226  48.192  1.00  0.00     0.074 C 
HETATM   12  C11 UNL     1      31.333   8.556  47.582  1.00  0.00     0.042 C 
HETATM   13  C12 UNL     1      32.810   8.628  47.536  1.00  0.00     0.120 C 
HETATM   14  N2  UNL     1      32.765   7.662  48.615  1.00  0.00    -0.326 N 
HETATM   15  C19 UNL     1      31.416   7.910  49.371  1.00  0.00     0.248 C 
HETATM   16  O2  UNL     1      31.104   9.228  49.407  1.00  0.00    -0.346 OA
HETATM   17  C20 UNL     1      29.936   9.737  48.680  1.00  0.00     0.296 C 
HETATM   18  N3  UNL     1      29.863   8.772  47.531  1.00  0.00    -0.355 N 
ENDROOT
BRANCH   4  19
HETATM   19  O1  UNL     1      32.066   3.755  45.541  1.00  0.00    -0.291 OA
HETATM   20  H5  UNL     1      32.012   2.907  46.008  1.00  0.00     0.244 HD
ENDBRANCH   4  19
BRANCH   5  21
HETATM   21  C18 UNL     1      34.084   6.061  47.185  1.00  0.00    -0.001 A 
HETATM   22  C13 UNL     1      34.788   7.266  47.583  1.00  0.00     0.045 A 
HETATM   23  C14 UNL     1      35.730   7.501  48.552  1.00  0.00     0.030 A 
HETATM   24  C15 UNL     1      36.093   6.407  49.312  1.00  0.00     0.002 A 
HETATM   25  C16 UNL     1      35.456   5.243  48.983  1.00  0.00     0.001 A 
HETATM   26  C17 UNL     1      34.517   5.055  47.996  1.00  0.00     0.012 A 
ENDBRANCH   5  21
TORSDOF 3
ENDMDL
MODEL 6
REMARK VINA RESULT:      -7.1      1.651      5.204
REMARK  3 active torsions:
REMARK  status: ('A' for Active; 'I' for Inactive)
REMARK    1  A    between atoms: N1_4  and  O1_5 
REMARK    2  A    between atoms: C4_6  and  C18_21 
REMARK    3  A    between atoms: N2_15  and  C13_16 
ROOT
HETATM    1  C1  UNL     1      20.881   3.680  52.350  1.00  0.00     0.017 C 
HETATM    2  C2  UNL     1      21.080   4.111  51.034  1.00  0.00    -0.051 C 
HETATM    3  C3  UNL     1      20.092   3.179  50.434  1.00  0.00     0.185 C 
HETATM    4  N1  UNL     1      20.517   2.591  49.232  1.00  0.00    -0.279 N 
HETATM    5  C4  UNL     1      21.761   1.965  49.388  1.00  0.00     0.081 C 
HETATM    6  C5  UNL     1      21.808   0.839  48.372  1.00  0.00     0.046 C 
HETATM    7  C6  UNL     1      22.485   3.096  48.576  1.00  0.00     0.013 C 
HETATM    8  C7  UNL     1      22.712   4.460  48.417  1.00  0.00     0.049 C 
HETATM    9  C8  UNL     1      22.571   5.876  48.732  1.00  0.00     0.093 C 
HETATM   10  C9  UNL     1      21.391   5.891  49.805  1.00  0.00     0.051 C 
HETATM   11  C10 UNL     1      22.106   5.134  50.743  1.00  0.00     0.074 C 
HETATM   12  C11 UNL     1      23.598   5.005  50.371  1.00  0.00     0.042 C 
HETATM   13  C12 UNL     1      24.148   3.685  50.754  1.00  0.00     0.120 C 
HETATM   14  N2  UNL     1      23.070   3.658  51.722  1.00  0.00    -0.326 N 
HETATM   15  C19 UNL     1      22.755   5.151  52.072  1.00  0.00     0.248 C 
HETATM   16  O2  UNL     1      23.882   5.905  52.087  1.00  0.00    -0.346 OA
HETATM   17  C20 UNL     1      24.090   6.955  51.083  1.00  0.00     0.296 C 
HETATM   18  N3  UNL     1      23.333   6.394  49.912  1.00  0.00    -0.355 N 
ENDROOT
BRANCH   4  19
HETATM   19  O1  UNL     1      19.649   2.147  48.374  1.00  0.00    -0.291 OA
HETATM   20  H5  UNL     1      19.808   1.224  48.120  1.00  0.00     0.244 HD
ENDBRANCH   4  19
BRANCH   5  21
HETATM   21  C18 UNL     1      22.211   1.547  50.647  1.00  0.00    -0.001 A 
HETATM   22  C13 UNL     1      23.500   1.484  51.312  1.00  0.00     0.045 A 
HETATM   23  C14 UNL     1      23.885   0.957  52.519  1.00  0.00     0.030 A 
HETATM   24  C15 UNL     1      22.880   0.378  53.267  1.00  0.00     0.002 A 
HETATM   25  C16 UNL     1      21.641   0.413  52.690  1.00  0.00     0.001 A 
HETATM   26  C17 UNL     1      21.303   0.951  51.471  1.00  0.00     0.012 A 
ENDBRANCH   5  21
TORSDOF 3
ENDMDL
MODEL 7
REMARK VINA RESULT:      -7.1      1.619      4.214
REMARK  3 active torsions:
REMARK  status: ('A' for Active; 'I' for Inactive)
REMARK    1  A    between atoms: N1_4  and  O1_5 
REMARK    2  A    between atoms: C4_6  and  C18_21 
REMARK    3  A    between atoms: N2_15  and  C13_16 
ROOT
HETATM    1  C1  UNL     1      21.436   0.649  50.157  1.00  0.00     0.017 C 
HETATM    2  C2  UNL     1      21.723   2.018  50.175  1.00  0.00    -0.051 C 
HETATM    3  C3  UNL     1      23.198   1.847  50.221  1.00  0.00     0.185 C 
HETATM    4  N1  UNL     1      23.848   2.732  51.095  1.00  0.00    -0.279 N 
HETATM    5  C4  UNL     1      23.299   2.665  52.382  1.00  0.00     0.081 C 
HETATM    6  C5  UNL     1      24.407   3.049  53.346  1.00  0.00     0.046 C 
HETATM    7  C6  UNL     1      22.595   4.057  52.206  1.00  0.00     0.013 C 
HETATM    8  C7  UNL     1      21.763   4.857  51.430  1.00  0.00     0.049 C 
HETATM    9  C8  UNL     1      20.906   5.173  50.294  1.00  0.00     0.093 C 
HETATM   10  C9  UNL     1      21.139   3.938  49.311  1.00  0.00     0.051 C 
HETATM   11  C10 UNL     1      20.619   3.000  50.213  1.00  0.00     0.074 C 
HETATM   12  C11 UNL     1      19.893   3.672  51.398  1.00  0.00     0.042 C 
HETATM   13  C12 UNL     1      20.076   2.914  52.656  1.00  0.00     0.120 C 
HETATM   14  N2  UNL     1      20.318   1.778  51.789  1.00  0.00    -0.326 N 
HETATM   15  C19 UNL     1      19.515   2.051  50.473  1.00  0.00     0.248 C 
HETATM   16  O2  UNL     1      18.342   2.681  50.729  1.00  0.00    -0.346 OA
HETATM   17  C20 UNL     1      18.121   4.058  50.275  1.00  0.00     0.296 C 
HETATM   18  N3  UNL     1      19.521   4.603  50.301  1.00  0.00    -0.355 N 
ENDROOT
BRANCH   4  19
HETATM   19  O1  UNL     1      25.100   3.029  50.918  1.00  0.00    -0.291 OA
HETATM   20  H5  UNL     1      25.675   2.248  50.898  1.00  0.00     0.244 HD
ENDBRANCH   4  19
BRANCH   5  21
HETATM   21  C18 UNL     1      22.604   1.529  52.818  1.00  0.00    -0.001 A 
HETATM   22  C13 UNL     1      21.440   1.289  53.650  1.00  0.00     0.045 A 
HETATM   23  C14 UNL     1      20.874   0.134  54.127  1.00  0.00     0.030 A 
HETATM   24  C15 UNL     1      21.503  -1.038  53.757  1.00  0.00     0.002 A 
HETATM   25  C16 UNL     1      22.607  -0.871  52.966  1.00  0.00     0.001 A 
HETATM   26  C17 UNL     1      23.140   0.313  52.515  1.00  0.00     0.012 A 
ENDBRANCH   5  21
TORSDOF 3
ENDMDL
MODEL 8
REMARK VINA RESULT:      -7.1     10.483     12.668
REMARK  3 active torsions:
REMARK  status: ('A' for Active; 'I' for Inactive)
REMARK    1  A    between atoms: N1_4  and  O1_5 
REMARK    2  A    between atoms: C4_6  and  C18_21 
REMARK    3  A    between atoms: N2_15  and  C13_16 
ROOT
HETATM    1  C1  UNL     1      34.814   6.429  47.286  1.00  0.00     0.017 C 
HETATM    2  C2  UNL     1      33.616   6.154  47.954  1.00  0.00    -0.051 C 
HETATM    3  C3  UNL     1      33.934   4.728  48.222  1.00  0.00     0.185 C 
HETATM    4  N1  UNL     1      32.851   3.856  48.034  1.00  0.00    -0.279 N 
HETATM    5  C4  UNL     1      32.293   4.010  46.758  1.00  0.00     0.081 C 
HETATM    6  C5  UNL     1      31.677   2.672  46.391  1.00  0.00     0.046 C 
HETATM    7  C6  UNL     1      31.033   4.739  47.346  1.00  0.00     0.013 C 
HETATM    8  C7  UNL     1      30.543   5.763  48.150  1.00  0.00     0.049 C 
HETATM    9  C8  UNL     1      30.636   6.912  49.042  1.00  0.00     0.093 C 
HETATM   10  C9  UNL     1      32.191   6.968  49.396  1.00  0.00     0.051 C 
HETATM   11  C10 UNL     1      32.582   7.202  48.071  1.00  0.00     0.074 C 
HETATM   12  C11 UNL     1      31.383   7.558  47.165  1.00  0.00     0.042 C 
HETATM   13  C12 UNL     1      31.549   7.017  45.797  1.00  0.00     0.120 C 
HETATM   14  N2  UNL     1      32.966   7.032  46.098  1.00  0.00    -0.326 N 
HETATM   15  C19 UNL     1      33.182   8.182  47.139  1.00  0.00     0.248 C 
HETATM   16  O2  UNL     1      32.362   9.233  46.894  1.00  0.00    -0.346 OA
HETATM   17  C20 UNL     1      31.294   9.580  47.839  1.00  0.00     0.296 C 
HETATM   18  N3  UNL     1      30.970   8.233  48.422  1.00  0.00    -0.355 N 
ENDROOT
BRANCH   4  19
HETATM   19  O1  UNL     1      32.817   2.709  48.644  1.00  0.00    -0.291 OA
HETATM   20  H5  UNL     1      33.292   2.012  48.164  1.00  0.00     0.244 HD
ENDBRANCH   4  19
BRANCH   5  21
HETATM   21  C18 UNL     1      33.037   4.546  45.699  1.00  0.00    -0.001 A 
HETATM   22  C13 UNL     1      32.746   5.401  44.564  1.00  0.00     0.045 A 
HETATM   23  C14 UNL     1      33.510   5.802  43.497  1.00  0.00     0.030 A 
HETATM   24  C15 UNL     1      34.804   5.323  43.473  1.00  0.00     0.002 A 
HETATM   25  C16 UNL     1      35.135   4.513  44.524  1.00  0.00     0.001 A 
HETATM   26  C17 UNL     1      34.331   4.136  45.574  1.00  0.00     0.012 A 
ENDBRANCH   5  21
TORSDOF 3
ENDMDL
MODEL 9
REMARK VINA RESULT:      -7.1     10.414     13.467
REMARK  3 active torsions:
REMARK  status: ('A' for Active; 'I' for Inactive)
REMARK    1  A    between atoms: N1_4  and  O1_5 
REMARK    2  A    between atoms: C4_6  and  C18_21 
REMARK    3  A    between atoms: N2_15  and  C13_16 
ROOT
HETATM    1  C1  UNL     1      34.825   6.826  48.200  1.00  0.00     0.017 C 
HETATM    2  C2  UNL     1      33.568   7.438  48.151  1.00  0.00    -0.051 C 
HETATM    3  C3  UNL     1      32.943   6.548  49.162  1.00  0.00     0.185 C 
HETATM    4  N1  UNL     1      31.637   6.148  48.841  1.00  0.00    -0.279 N 
HETATM    5  C4  UNL     1      31.584   5.568  47.567  1.00  0.00     0.081 C 
HETATM    6  C5  UNL     1      30.422   4.590  47.584  1.00  0.00     0.046 C 
HETATM    7  C6  UNL     1      30.870   6.831  46.969  1.00  0.00     0.013 C 
HETATM    8  C7  UNL     1      30.879   8.213  46.807  1.00  0.00     0.049 C 
HETATM    9  C8  UNL     1      31.399   9.565  46.965  1.00  0.00     0.093 C 
HETATM   10  C9  UNL     1      32.572   9.379  48.029  1.00  0.00     0.051 C 
HETATM   11  C10 UNL     1      33.324   8.540  47.196  1.00  0.00     0.074 C 
HETATM   12  C11 UNL     1      32.796   8.534  45.746  1.00  0.00     0.042 C 
HETATM   13  C12 UNL     1      32.938   7.203  45.114  1.00  0.00     0.120 C 
HETATM   14  N2  UNL     1      33.992   6.994  46.086  1.00  0.00    -0.326 N 
HETATM   15  C19 UNL     1      34.573   8.410  46.416  1.00  0.00     0.248 C 
HETATM   16  O2  UNL     1      34.584   9.209  45.320  1.00  0.00    -0.346 OA
HETATM   17  C20 UNL     1      33.719  10.392  45.253  1.00  0.00     0.296 C 
HETATM   18  N3  UNL     1      32.560   9.957  46.104  1.00  0.00    -0.355 N 
ENDROOT
BRANCH   4  19
HETATM   19  O1  UNL     1      30.813   5.780  49.777  1.00  0.00    -0.291 OA
HETATM   20  H5  UNL     1      31.260   5.569  50.611  1.00  0.00     0.244 HD
ENDBRANCH   4  19
BRANCH   5  21
HETATM   21  C18 UNL     1      32.725   5.007  46.976  1.00  0.00    -0.001 A 
HETATM   22  C13 UNL     1      33.227   4.881  45.621  1.00  0.00     0.045 A 
HETATM   23  C14 UNL     1      34.310   4.219  45.100  1.00  0.00     0.030 A 
HETATM   24  C15 UNL     1      35.091   3.540  46.014  1.00  0.00     0.002 A 
HETATM   25  C16 UNL     1      34.666   3.628  47.310  1.00  0.00     0.001 A 
HETATM   26  C17 UNL     1      33.567   4.304  47.785  1.00  0.00     0.012 A 
ENDBRANCH   5  21
TORSDOF 3
ENDMDL
