MODEL 1
REMARK VINA RESULT:      -7.3      0.000      0.000
REMARK  4 active torsions:
REMARK  status: ('A' for Active; 'I' for Inactive)
REMARK    1  A    between atoms: O1_2  and  C2_3 
REMARK    2  A    between atoms: C6_9  and  S1_10 
REMARK    3  A    between atoms: C17_22  and  O2_23 
REMARK    4  A    between atoms: O2_23  and  C18_24 
ROOT
HETATM    1  C2  UNL     1      25.405   0.414  52.433  1.00  0.00     0.103 C 
HETATM    2  C3  UNL     1      25.213   1.442  51.585  1.00  0.00     0.067 C 
HETATM    3  C4  UNL     1      23.998   2.286  51.540  1.00  0.00     0.066 C 
HETATM    4  N1  UNL     1      24.358   3.512  51.247  1.00  0.00    -0.150 NA
HETATM    5  C5  UNL     1      23.320   4.481  51.158  1.00  0.00     0.195 A 
HETATM    6  N2  UNL     1      24.438   4.758  50.583  1.00  0.00    -0.285 N 
HETATM    7  C6  UNL     1      24.591   6.024  49.884  1.00  0.00     0.167 C 
HETATM    8  C7  UNL     1      23.832   5.969  48.618  1.00  0.00     0.036 C 
HETATM    9  C8  UNL     1      23.174   4.815  48.325  1.00  0.00     0.023 C 
HETATM   10  C9  UNL     1      22.314   4.290  47.228  1.00  0.00    -0.024 C 
HETATM   11  C10 UNL     1      21.972   3.046  47.546  1.00  0.00    -0.024 C 
HETATM   12  C11 UNL     1      22.368   2.287  48.779  1.00  0.00     0.032 A 
HETATM   13  C12 UNL     1      21.667   0.931  48.983  1.00  0.00     0.036 A 
HETATM   14  C13 UNL     1      21.258   2.209  49.699  1.00  0.00     0.090 A 
HETATM   15  N3  UNL     1      21.500   2.242  51.105  1.00  0.00    -0.383 N 
HETATM   16  C14 UNL     1      22.653   1.773  51.791  1.00  0.00     0.052 C 
HETATM   17  C15 UNL     1      22.335   0.824  52.660  1.00  0.00     0.034 C 
HETATM   18  C16 UNL     1      23.200   0.047  53.579  1.00  0.00     0.042 C 
HETATM   19  C17 UNL     1      24.529  -0.137  53.491  1.00  0.00     0.112 C 
HETATM   20  H16 UNL     1      20.920   2.594  51.894  1.00  0.00     0.160 HD
ENDROOT
BRANCH  19  21
HETATM   21  O2  UNL     1      25.092  -0.900  54.471  1.00  0.00    -0.283 OA
BRANCH  21  22
HETATM   22  C18 UNL     1      24.429  -1.215  55.635  1.00  0.00     0.403 C 
HETATM   23  O3  UNL     1      25.198  -1.157  56.633  1.00  0.00    -0.276 OA
ENDBRANCH  21  22
ENDBRANCH  19  21
BRANCH   1  24
HETATM   24  O1  UNL     1      26.618  -0.248  52.307  1.00  0.00    -0.353 OA
HETATM   25  C1  UNL     1      27.822   0.180  52.902  1.00  0.00     0.210 C 
ENDBRANCH   1  24
BRANCH   7  26
HETATM   26  S1  UNL     1      23.948   7.374  50.926  1.00  0.00    -0.155 SA
HETATM   27  H7  UNL     1      24.940   8.287  51.268  1.00  0.00     0.103 HD
ENDBRANCH   7  26
TORSDOF 4
ENDMDL
MODEL 2
REMARK VINA RESULT:      -7.0      4.119      6.599
REMARK  4 active torsions:
REMARK  status: ('A' for Active; 'I' for Inactive)
REMARK    1  A    between atoms: O1_2  and  C2_3 
REMARK    2  A    between atoms: C6_9  and  S1_10 
REMARK    3  A    between atoms: C17_22  and  O2_23 
REMARK    4  A    between atoms: O2_23  and  C18_24 
ROOT
HETATM    1  C2  UNL     1      25.932   6.112  48.981  1.00  0.00     0.103 C 
HETATM    2  C3  UNL     1      25.094   5.061  48.928  1.00  0.00     0.067 C 
HETATM    3  C4  UNL     1      23.790   4.982  49.626  1.00  0.00     0.066 C 
HETATM    4  N1  UNL     1      22.955   4.318  48.864  1.00  0.00    -0.150 NA
HETATM    5  C5  UNL     1      21.636   4.136  49.367  1.00  0.00     0.195 A 
HETATM    6  N2  UNL     1      22.028   3.340  48.434  1.00  0.00    -0.285 N 
HETATM    7  C6  UNL     1      21.126   2.312  47.940  1.00  0.00     0.167 C 
HETATM    8  C7  UNL     1      21.017   1.242  48.952  1.00  0.00     0.036 C 
HETATM    9  C8  UNL     1      21.743   1.375  50.094  1.00  0.00     0.023 C 
HETATM   10  C9  UNL     1      21.964   0.607  51.351  1.00  0.00    -0.024 C 
HETATM   11  C10 UNL     1      22.820   1.296  52.098  1.00  0.00    -0.024 C 
HETATM   12  C11 UNL     1      23.462   2.610  51.758  1.00  0.00     0.032 A 
HETATM   13  C12 UNL     1      24.261   3.276  52.894  1.00  0.00     0.036 A 
HETATM   14  C13 UNL     1      22.845   3.679  52.509  1.00  0.00     0.090 A 
HETATM   15  N3  UNL     1      22.702   4.969  51.916  1.00  0.00    -0.383 N 
HETATM   16  C14 UNL     1      23.546   5.567  50.942  1.00  0.00     0.052 C 
HETATM   17  C15 UNL     1      24.069   6.697  51.397  1.00  0.00     0.034 C 
HETATM   18  C16 UNL     1      25.002   7.644  50.742  1.00  0.00     0.042 C 
HETATM   19  C17 UNL     1      25.813   7.403  49.697  1.00  0.00     0.112 C 
HETATM   20  H16 UNL     1      21.991   5.715  52.058  1.00  0.00     0.160 HD
ENDROOT
BRANCH  19  21
HETATM   21  O2  UNL     1      26.579   8.451  49.282  1.00  0.00    -0.283 OA
BRANCH  21  22
HETATM   22  C18 UNL     1      27.338   9.201  50.150  1.00  0.00     0.403 C 
HETATM   23  O3  UNL     1      27.432  10.399  49.762  1.00  0.00    -0.276 OA
ENDBRANCH  21  22
ENDBRANCH  19  21
BRANCH   1  24
HETATM   24  O1  UNL     1      27.105   5.981  48.252  1.00  0.00    -0.353 OA
HETATM   25  C1  UNL     1      28.122   5.049  48.545  1.00  0.00     0.210 C 
ENDBRANCH   1  24
BRANCH   7  26
HETATM   26  S1  UNL     1      19.481   3.041  47.641  1.00  0.00    -0.155 SA
HETATM   27  H7  UNL     1      19.567   4.362  47.214  1.00  0.00     0.103 HD
ENDBRANCH   7  26
TORSDOF 4
ENDMDL
MODEL 3
REMARK VINA RESULT:      -6.9      2.154      3.842
REMARK  4 active torsions:
REMARK  status: ('A' for Active; 'I' for Inactive)
REMARK    1  A    between atoms: O1_2  and  C2_3 
REMARK    2  A    between atoms: C6_9  and  S1_10 
REMARK    3  A    between atoms: C17_22  and  O2_23 
REMARK    4  A    between atoms: O2_23  and  C18_24 
ROOT
HETATM    1  C2  UNL     1      23.944   0.086  52.694  1.00  0.00     0.103 C 
HETATM    2  C3  UNL     1      23.165   0.899  51.957  1.00  0.00     0.067 C 
HETATM    3  C4  UNL     1      23.664   1.999  51.100  1.00  0.00     0.066 C 
HETATM    4  N1  UNL     1      22.898   2.073  50.039  1.00  0.00    -0.150 NA
HETATM    5  C5  UNL     1      23.220   3.079  49.085  1.00  0.00     0.195 A 
HETATM    6  N2  UNL     1      22.028   2.595  49.053  1.00  0.00    -0.285 N 
HETATM    7  C6  UNL     1      21.081   3.082  48.062  1.00  0.00     0.167 C 
HETATM    8  C7  UNL     1      20.634   4.436  48.450  1.00  0.00     0.036 C 
HETATM    9  C8  UNL     1      21.134   4.960  49.602  1.00  0.00     0.023 C 
HETATM   10  C9  UNL     1      20.999   6.221  50.383  1.00  0.00    -0.024 C 
HETATM   11  C10 UNL     1      21.775   6.115  51.455  1.00  0.00    -0.024 C 
HETATM   12  C11 UNL     1      22.639   4.948  51.833  1.00  0.00     0.032 A 
HETATM   13  C12 UNL     1      23.585   5.175  53.027  1.00  0.00     0.036 A 
HETATM   14  C13 UNL     1      24.029   5.246  51.574  1.00  0.00     0.090 A 
HETATM   15  N3  UNL     1      24.906   4.209  51.137  1.00  0.00    -0.383 N 
HETATM   16  C14 UNL     1      24.821   2.824  51.442  1.00  0.00     0.052 C 
HETATM   17  C15 UNL     1      25.910   2.408  52.071  1.00  0.00     0.034 C 
HETATM   18  C16 UNL     1      26.256   1.062  52.584  1.00  0.00     0.042 C 
HETATM   19  C17 UNL     1      25.415   0.049  52.857  1.00  0.00     0.112 C 
HETATM   20  H16 UNL     1      25.755   4.235  50.536  1.00  0.00     0.160 HD
ENDROOT
BRANCH  19  21
HETATM   21  O2  UNL     1      25.990  -1.096  53.323  1.00  0.00    -0.283 OA
BRANCH  21  22
HETATM   22  C18 UNL     1      26.734  -1.929  52.520  1.00  0.00     0.403 C 
HETATM   23  O3  UNL     1      27.701  -2.437  53.153  1.00  0.00    -0.276 OA
ENDBRANCH  21  22
ENDBRANCH  19  21
BRANCH   1  24
HETATM   24  O1  UNL     1      23.273  -0.882  53.428  1.00  0.00    -0.353 OA
HETATM   25  C1  UNL     1      21.917  -0.795  53.804  1.00  0.00     0.210 C 
ENDBRANCH   1  24
BRANCH   7  26
HETATM   26  S1  UNL     1      21.891   3.150  46.430  1.00  0.00    -0.155 SA
HETATM   27  H7  UNL     1      22.613   4.326  46.255  1.00  0.00     0.103 HD
ENDBRANCH   7  26
TORSDOF 4
ENDMDL
MODEL 4
REMARK VINA RESULT:      -6.8      3.845      7.146
REMARK  4 active torsions:
REMARK  status: ('A' for Active; 'I' for Inactive)
REMARK    1  A    between atoms: O1_2  and  C2_3 
REMARK    2  A    between atoms: C6_9  and  S1_10 
REMARK    3  A    between atoms: C17_22  and  O2_23 
REMARK    4  A    between atoms: O2_23  and  C18_24 
ROOT
HETATM    1  C2  UNL     1      22.716   3.823  48.565  1.00  0.00     0.103 C 
HETATM    2  C3  UNL     1      22.782   2.771  49.401  1.00  0.00     0.067 C 
HETATM    3  C4  UNL     1      23.107   2.856  50.843  1.00  0.00     0.066 C 
HETATM    4  N1  UNL     1      22.405   1.948  51.477  1.00  0.00    -0.150 NA
HETATM    5  C5  UNL     1      22.581   1.873  52.888  1.00  0.00     0.195 A 
HETATM    6  N2  UNL     1      22.081   0.843  52.299  1.00  0.00    -0.285 N 
HETATM    7  C6  UNL     1      21.721  -0.328  53.082  1.00  0.00     0.167 C 
HETATM    8  C7  UNL     1      22.954  -1.029  53.492  1.00  0.00     0.036 C 
HETATM    9  C8  UNL     1      24.143  -0.510  53.082  1.00  0.00     0.023 C 
HETATM   10  C9  UNL     1      25.590  -0.833  53.226  1.00  0.00    -0.024 C 
HETATM   11  C10 UNL     1      26.276   0.094  52.567  1.00  0.00    -0.024 C 
HETATM   12  C11 UNL     1      25.717   1.263  51.808  1.00  0.00     0.032 A 
HETATM   13  C12 UNL     1      26.750   2.289  51.305  1.00  0.00     0.036 A 
HETATM   14  C13 UNL     1      25.906   2.484  52.555  1.00  0.00     0.090 A 
HETATM   15  N3  UNL     1      24.921   3.514  52.489  1.00  0.00    -0.383 N 
HETATM   16  C14 UNL     1      24.061   3.814  51.397  1.00  0.00     0.052 C 
HETATM   17  C15 UNL     1      24.255   5.052  50.966  1.00  0.00     0.034 C 
HETATM   18  C16 UNL     1      23.600   5.786  49.859  1.00  0.00     0.042 C 
HETATM   19  C17 UNL     1      22.931   5.266  48.814  1.00  0.00     0.112 C 
HETATM   20  H16 UNL     1      24.631   4.234  53.182  1.00  0.00     0.160 HD
ENDROOT
BRANCH  19  21
HETATM   21  O2  UNL     1      22.420   6.165  47.926  1.00  0.00    -0.283 OA
BRANCH  21  22
HETATM   22  C18 UNL     1      23.214   7.024  47.203  1.00  0.00     0.403 C 
HETATM   23  O3  UNL     1      23.044   6.874  45.961  1.00  0.00    -0.276 OA
ENDBRANCH  21  22
ENDBRANCH  19  21
BRANCH   1  24
HETATM   24  O1  UNL     1      22.395   3.523  47.249  1.00  0.00    -0.353 OA
HETATM   25  C1  UNL     1      21.091   3.238  46.794  1.00  0.00     0.210 C 
ENDBRANCH   1  24
BRANCH   7  26
HETATM   26  S1  UNL     1      20.793   0.194  54.562  1.00  0.00    -0.155 SA
HETATM   27  H7  UNL     1      21.170   1.460  54.995  1.00  0.00     0.103 HD
ENDBRANCH   7  26
TORSDOF 4
ENDMDL
MODEL 5
REMARK VINA RESULT:      -6.8      1.580      1.968
REMARK  4 active torsions:
REMARK  status: ('A' for Active; 'I' for Inactive)
REMARK    1  A    between atoms: O1_2  and  C2_3 
REMARK    2  A    between atoms: C6_9  and  S1_10 
REMARK    3  A    between atoms: C17_22  and  O2_23 
REMARK    4  A    between atoms: O2_23  and  C18_24 
ROOT
HETATM    1  C2  UNL     1      23.139   0.896  52.643  1.00  0.00     0.103 C 
HETATM    2  C3  UNL     1      23.412   1.869  51.754  1.00  0.00     0.067 C 
HETATM    3  C4  UNL     1      22.491   2.973  51.399  1.00  0.00     0.066 C 
HETATM    4  N1  UNL     1      23.206   4.050  51.179  1.00  0.00    -0.150 NA
HETATM    5  C5  UNL     1      22.493   5.229  50.822  1.00  0.00     0.195 A 
HETATM    6  N2  UNL     1      23.746   5.185  50.530  1.00  0.00    -0.285 N 
HETATM    7  C6  UNL     1      24.369   6.318  49.865  1.00  0.00     0.167 C 
HETATM    8  C7  UNL     1      23.933   6.347  48.454  1.00  0.00     0.036 C 
HETATM    9  C8  UNL     1      23.093   5.364  48.032  1.00  0.00     0.023 C 
HETATM   10  C9  UNL     1      22.405   4.974  46.770  1.00  0.00    -0.024 C 
HETATM   11  C10 UNL     1      21.699   3.878  47.018  1.00  0.00    -0.024 C 
HETATM   12  C11 UNL     1      21.597   3.146  48.325  1.00  0.00     0.032 A 
HETATM   13  C12 UNL     1      20.550   2.017  48.379  1.00  0.00     0.036 A 
HETATM   14  C13 UNL     1      20.320   3.408  48.949  1.00  0.00     0.090 A 
HETATM   15  N3  UNL     1      20.232   3.493  50.371  1.00  0.00    -0.383 N 
HETATM   16  C14 UNL     1      21.040   2.818  51.326  1.00  0.00     0.052 C 
HETATM   17  C15 UNL     1      20.303   2.044  52.109  1.00  0.00     0.034 C 
HETATM   18  C16 UNL     1      20.710   1.158  53.225  1.00  0.00     0.042 C 
HETATM   19  C17 UNL     1      21.933   0.656  53.467  1.00  0.00     0.112 C 
HETATM   20  H16 UNL     1      19.593   4.034  50.989  1.00  0.00     0.160 HD
ENDROOT
BRANCH  19  21
HETATM   21  O2  UNL     1      22.045  -0.139  54.569  1.00  0.00    -0.283 OA
BRANCH  21  22
HETATM   22  C18 UNL     1      21.486  -1.394  54.635  1.00  0.00     0.403 C 
HETATM   23  O3  UNL     1      22.180  -2.171  55.347  1.00  0.00    -0.276 OA
ENDBRANCH  21  22
ENDBRANCH  19  21
BRANCH   1  24
HETATM   24  O1  UNL     1      24.142  -0.044  52.828  1.00  0.00    -0.353 OA
HETATM   25  C1  UNL     1      25.519   0.226  52.691  1.00  0.00     0.210 C 
ENDBRANCH   1  24
BRANCH   7  26
HETATM   26  S1  UNL     1      23.862   7.862  50.693  1.00  0.00    -0.155 SA
HETATM   27  H7  UNL     1      23.650   7.677  52.055  1.00  0.00     0.103 HD
ENDBRANCH   7  26
TORSDOF 4
ENDMDL
MODEL 6
REMARK VINA RESULT:      -6.8      3.602      6.709
REMARK  4 active torsions:
REMARK  status: ('A' for Active; 'I' for Inactive)
REMARK    1  A    between atoms: O1_2  and  C2_3 
REMARK    2  A    between atoms: C6_9  and  S1_10 
REMARK    3  A    between atoms: C17_22  and  O2_23 
REMARK    4  A    between atoms: O2_23  and  C18_24 
ROOT
HETATM    1  C2  UNL     1      22.912   4.494  51.161  1.00  0.00     0.103 C 
HETATM    2  C3  UNL     1      23.399   3.569  52.009  1.00  0.00     0.067 C 
HETATM    3  C4  UNL     1      23.418   2.111  51.749  1.00  0.00     0.066 C 
HETATM    4  N1  UNL     1      24.511   1.614  52.276  1.00  0.00    -0.150 NA
HETATM    5  C5  UNL     1      24.712   0.213  52.129  1.00  0.00     0.195 A 
HETATM    6  N2  UNL     1      25.368   0.809  53.063  1.00  0.00    -0.285 N 
HETATM    7  C6  UNL     1      26.270   0.044  53.908  1.00  0.00     0.167 C 
HETATM    8  C7  UNL     1      25.473  -0.774  54.845  1.00  0.00     0.036 C 
HETATM    9  C8  UNL     1      24.118  -0.671  54.780  1.00  0.00     0.023 C 
HETATM   10  C9  UNL     1      22.937  -1.256  55.473  1.00  0.00    -0.024 C 
HETATM   11  C10 UNL     1      21.848  -0.729  54.928  1.00  0.00    -0.024 C 
HETATM   12  C11 UNL     1      21.791   0.277  53.814  1.00  0.00     0.032 A 
HETATM   13  C12 UNL     1      20.389   0.566  53.246  1.00  0.00     0.036 A 
HETATM   14  C13 UNL     1      21.394  -0.361  52.581  1.00  0.00     0.090 A 
HETATM   15  N3  UNL     1      21.938   0.093  51.342  1.00  0.00    -0.383 N 
HETATM   16  C14 UNL     1      22.363   1.410  51.020  1.00  0.00     0.052 C 
HETATM   17  C15 UNL     1      21.675   1.894  49.996  1.00  0.00     0.034 C 
HETATM   18  C16 UNL     1      21.766   3.214  49.329  1.00  0.00     0.042 C 
HETATM   19  C17 UNL     1      22.299   4.346  49.822  1.00  0.00     0.112 C 
HETATM   20  H16 UNL     1      22.131  -0.409  50.451  1.00  0.00     0.160 HD
ENDROOT
BRANCH  19  21
HETATM   21  O2  UNL     1      22.257   5.433  49.000  1.00  0.00    -0.283 OA
BRANCH  21  22
HETATM   22  C18 UNL     1      23.015   5.524  47.856  1.00  0.00     0.403 C 
HETATM   23  O3  UNL     1      23.878   6.440  47.946  1.00  0.00    -0.276 OA
ENDBRANCH  21  22
ENDBRANCH  19  21
BRANCH   1  24
HETATM   24  O1  UNL     1      22.990   5.808  51.601  1.00  0.00    -0.353 OA
HETATM   25  C1  UNL     1      24.141   6.615  51.494  1.00  0.00     0.210 C 
ENDBRANCH   1  24
BRANCH   7  26
HETATM   26  S1  UNL     1      27.299  -1.044  52.869  1.00  0.00    -0.155 SA
HETATM   27  H7  UNL     1      27.606  -2.240  53.510  1.00  0.00     0.103 HD
ENDBRANCH   7  26
TORSDOF 4
ENDMDL
MODEL 7
REMARK VINA RESULT:      -6.6      2.709      3.646
REMARK  4 active torsions:
REMARK  status: ('A' for Active; 'I' for Inactive)
REMARK    1  A    between atoms: O1_2  and  C2_3 
REMARK    2  A    between atoms: C6_9  and  S1_10 
REMARK    3  A    between atoms: C17_22  and  O2_23 
REMARK    4  A    between atoms: O2_23  and  C18_24 
ROOT
HETATM    1  C2  UNL     1      26.337   3.804  49.865  1.00  0.00     0.103 C 
HETATM    2  C3  UNL     1      25.314   4.456  49.283  1.00  0.00     0.067 C 
HETATM    3  C4  UNL     1      23.899   4.359  49.707  1.00  0.00     0.066 C 
HETATM    4  N1  UNL     1      23.337   5.531  49.535  1.00  0.00    -0.150 NA
HETATM    5  C5  UNL     1      21.963   5.640  49.891  1.00  0.00     0.195 A 
HETATM    6  N2  UNL     1      22.439   6.530  49.092  1.00  0.00    -0.285 N 
HETATM    7  C6  UNL     1      21.574   7.589  48.598  1.00  0.00     0.167 C 
HETATM    8  C7  UNL     1      20.651   7.026  47.591  1.00  0.00     0.036 C 
HETATM    9  C8  UNL     1      20.768   5.703  47.297  1.00  0.00     0.023 C 
HETATM   10  C9  UNL     1      20.107   4.716  46.399  1.00  0.00    -0.024 C 
HETATM   11  C10 UNL     1      20.701   3.542  46.584  1.00  0.00    -0.024 C 
HETATM   12  C11 UNL     1      21.834   3.242  47.522  1.00  0.00     0.032 A 
HETATM   13  C12 UNL     1      22.196   1.753  47.678  1.00  0.00     0.036 A 
HETATM   14  C13 UNL     1      21.352   2.525  48.680  1.00  0.00     0.090 A 
HETATM   15  N3  UNL     1      21.950   2.755  49.955  1.00  0.00    -0.383 N 
HETATM   16  C14 UNL     1      23.295   3.131  50.219  1.00  0.00     0.052 C 
HETATM   17  C15 UNL     1      23.903   2.224  50.971  1.00  0.00     0.034 C 
HETATM   18  C16 UNL     1      25.293   2.190  51.482  1.00  0.00     0.042 C 
HETATM   19  C17 UNL     1      26.355   2.869  51.012  1.00  0.00     0.112 C 
HETATM   20  H16 UNL     1      21.559   2.700  50.917  1.00  0.00     0.160 HD
ENDROOT
BRANCH  19  21
HETATM   21  O2  UNL     1      27.533   2.659  51.665  1.00  0.00    -0.283 OA
BRANCH  21  22
HETATM   22  C18 UNL     1      27.591   2.154  52.942  1.00  0.00     0.403 C 
HETATM   23  O3  UNL     1      28.578   2.617  53.577  1.00  0.00    -0.276 OA
ENDBRANCH  21  22
ENDBRANCH  19  21
BRANCH   1  24
HETATM   24  O1  UNL     1      27.588   4.036  49.311  1.00  0.00    -0.353 OA
HETATM   25  C1  UNL     1      27.915   5.164  48.531  1.00  0.00     0.210 C 
ENDBRANCH   1  24
BRANCH   7  26
HETATM   26  S1  UNL     1      20.615   8.285  49.984  1.00  0.00    -0.155 SA
HETATM   27  H7  UNL     1      21.387   8.428  51.132  1.00  0.00     0.103 HD
ENDBRANCH   7  26
TORSDOF 4
ENDMDL
MODEL 8
REMARK VINA RESULT:      -6.3      8.347     10.276
REMARK  4 active torsions:
REMARK  status: ('A' for Active; 'I' for Inactive)
REMARK    1  A    between atoms: O1_2  and  C2_3 
REMARK    2  A    between atoms: C6_9  and  S1_10 
REMARK    3  A    between atoms: C17_22  and  O2_23 
REMARK    4  A    between atoms: O2_23  and  C18_24 
ROOT
HETATM    1  C2  UNL     1      32.842   6.692  46.525  1.00  0.00     0.103 C 
HETATM    2  C3  UNL     1      31.810   7.490  46.196  1.00  0.00     0.067 C 
HETATM    3  C4  UNL     1      31.012   8.282  47.161  1.00  0.00     0.066 C 
HETATM    4  N1  UNL     1      30.674   9.411  46.587  1.00  0.00    -0.150 NA
HETATM    5  C5  UNL     1      29.897  10.316  47.363  1.00  0.00     0.195 A 
HETATM    6  N2  UNL     1      29.882  10.469  46.085  1.00  0.00    -0.285 N 
HETATM    7  C6  UNL     1      29.091  11.540  45.499  1.00  0.00     0.167 C 
HETATM    8  C7  UNL     1      27.660  11.180  45.579  1.00  0.00     0.036 C 
HETATM    9  C8  UNL     1      27.341   9.979  46.134  1.00  0.00     0.023 C 
HETATM   10  C9  UNL     1      26.107   9.199  46.427  1.00  0.00    -0.024 C 
HETATM   11  C10 UNL     1      26.478   8.058  46.997  1.00  0.00    -0.024 C 
HETATM   12  C11 UNL     1      27.879   7.614  47.300  1.00  0.00     0.032 A 
HETATM   13  C12 UNL     1      28.006   6.332  48.144  1.00  0.00     0.036 A 
HETATM   14  C13 UNL     1      28.150   7.734  48.714  1.00  0.00     0.090 A 
HETATM   15  N3  UNL     1      29.458   8.098  49.156  1.00  0.00    -0.383 N 
HETATM   16  C14 UNL     1      30.693   7.820  48.510  1.00  0.00     0.052 C 
HETATM   17  C15 UNL     1      31.483   7.095  49.288  1.00  0.00     0.034 C 
HETATM   18  C16 UNL     1      32.844   6.567  49.034  1.00  0.00     0.042 C 
HETATM   19  C17 UNL     1      33.443   6.389  47.843  1.00  0.00     0.112 C 
HETATM   20  H16 UNL     1      29.779   8.615  50.000  1.00  0.00     0.160 HD
ENDROOT
BRANCH  19  21
HETATM   21  O2  UNL     1      34.709   5.884  47.882  1.00  0.00    -0.283 OA
BRANCH  21  22
HETATM   22  C18 UNL     1      35.034   4.756  48.598  1.00  0.00     0.403 C 
HETATM   23  O3  UNL     1      35.017   3.727  47.869  1.00  0.00    -0.276 OA
ENDBRANCH  21  22
ENDBRANCH  19  21
BRANCH   1  24
HETATM   24  O1  UNL     1      33.454   6.038  45.465  1.00  0.00    -0.353 OA
HETATM   25  C1  UNL     1      33.051   4.783  44.967  1.00  0.00     0.210 C 
ENDBRANCH   1  24
BRANCH   7  26
HETATM   26  S1  UNL     1      29.385  13.086  46.420  1.00  0.00    -0.155 SA
HETATM   27  H7  UNL     1      30.208  12.887  47.523  1.00  0.00     0.103 HD
ENDBRANCH   7  26
TORSDOF 4
ENDMDL
MODEL 9
REMARK VINA RESULT:      -6.3     22.494     25.978
REMARK  4 active torsions:
REMARK  status: ('A' for Active; 'I' for Inactive)
REMARK    1  A    between atoms: O1_2  and  C2_3 
REMARK    2  A    between atoms: C6_9  and  S1_10 
REMARK    3  A    between atoms: C17_22  and  O2_23 
REMARK    4  A    between atoms: O2_23  and  C18_24 
ROOT
HETATM    1  C2  UNL     1      39.407   0.069  68.345  1.00  0.00     0.103 C 
HETATM    2  C3  UNL     1      40.206   0.946  68.981  1.00  0.00     0.067 C 
HETATM    3  C4  UNL     1      41.667   1.063  68.774  1.00  0.00     0.066 C 
HETATM    4  N1  UNL     1      41.998   2.328  68.876  1.00  0.00    -0.150 NA
HETATM    5  C5  UNL     1      43.374   2.645  68.706  1.00  0.00     0.195 A 
HETATM    6  N2  UNL     1      42.640   3.509  69.315  1.00  0.00    -0.285 N 
HETATM    7  C6  UNL     1      43.233   4.748  69.791  1.00  0.00     0.167 C 
HETATM    8  C7  UNL     1      44.062   4.460  70.978  1.00  0.00     0.036 C 
HETATM    9  C8  UNL     1      44.117   3.172  71.413  1.00  0.00     0.023 C 
HETATM   10  C9  UNL     1      44.777   2.410  72.509  1.00  0.00    -0.024 C 
HETATM   11  C10 UNL     1      44.418   1.137  72.388  1.00  0.00    -0.024 C 
HETATM   12  C11 UNL     1      43.512   0.550  71.345  1.00  0.00     0.032 A 
HETATM   13  C12 UNL     1      43.426  -0.988  71.325  1.00  0.00     0.036 A 
HETATM   14  C13 UNL     1      44.282  -0.178  70.363  1.00  0.00     0.090 A 
HETATM   15  N3  UNL     1      43.864  -0.183  68.998  1.00  0.00    -0.383 N 
HETATM   16  C14 UNL     1      42.535  -0.082  68.505  1.00  0.00     0.052 C 
HETATM   17  C15 UNL     1      42.210  -1.151  67.793  1.00  0.00     0.034 C 
HETATM   18  C16 UNL     1      40.942  -1.482  67.101  1.00  0.00     0.042 C 
HETATM   19  C17 UNL     1      39.724  -0.962  67.331  1.00  0.00     0.112 C 
HETATM   20  H16 UNL     1      44.406  -0.261  68.114  1.00  0.00     0.160 HD
ENDROOT
BRANCH  19  21
HETATM   21  O2  UNL     1      38.713  -1.441  66.551  1.00  0.00    -0.283 OA
BRANCH  21  22
HETATM   22  C18 UNL     1      38.392  -2.777  66.495  1.00  0.00     0.403 C 
HETATM   23  O3  UNL     1      37.259  -3.000  67.002  1.00  0.00    -0.276 OA
ENDBRANCH  21  22
ENDBRANCH  19  21
BRANCH   1  24
HETATM   24  O1  UNL     1      38.064   0.126  68.687  1.00  0.00    -0.353 OA
HETATM   25  C1  UNL     1      37.485  -0.590  69.755  1.00  0.00     0.210 C 
ENDBRANCH   1  24
BRANCH   7  26
HETATM   26  S1  UNL     1      44.274   5.467  68.477  1.00  0.00    -0.155 SA
HETATM   27  H7  UNL     1      44.615   6.788  68.747  1.00  0.00     0.103 HD
ENDBRANCH   7  26
TORSDOF 4
ENDMDL
