MODEL 1
REMARK VINA RESULT:      -7.5      0.000      0.000
REMARK  9 active torsions:
REMARK  status: ('A' for Active; 'I' for Inactive)
REMARK    1  A    between atoms: C4_4  and  N1_5 
REMARK    2  A    between atoms: N1_5  and  C5_6 
REMARK    3  A    between atoms: C5_6  and  C6_7 
REMARK    4  A    between atoms: C5_6  and  C8_10 
REMARK    5  A    between atoms: C6_7  and  C7_8 
REMARK    6  A    between atoms: C8_10  and  C9_11 
REMARK    7  A    between atoms: C9_11  and  O1_12 
REMARK    8  A    between atoms: O1_12  and  C10_13 
REMARK    9  A    between atoms: C10_13  and  C11_14 
ROOT
HETATM    1  C5  UNL     1      26.344   2.515  50.936  1.00  0.00     0.132 C 
ENDROOT
BRANCH   1   2
HETATM    2  N1  UNL     1      26.969   2.861  52.163  1.00  0.00    -0.364 N 
HETATM    3  H5  UNL     1      27.217   3.675  52.779  1.00  0.00     0.162 HD
BRANCH   2   4
HETATM    4  C4  UNL     1      27.378   1.590  52.685  1.00  0.00     0.127 A 
HETATM    5  C3  UNL     1      26.946   0.348  52.274  1.00  0.00     0.077 A 
HETATM    6  C2  UNL     1      27.401  -0.815  52.859  1.00  0.00     0.035 A 
HETATM    7  C1  UNL     1      26.831  -2.067  52.296  1.00  0.00     0.070 C 
HETATM    8  N3  UNL     1      28.303  -0.736  53.871  1.00  0.00    -0.247 NA
HETATM    9  C17 UNL     1      28.730   0.497  54.276  1.00  0.00     0.235 A 
HETATM   10  N2  UNL     1      28.285   1.654  53.704  1.00  0.00    -0.225 NA
ENDBRANCH   2   4
ENDBRANCH   1   2
BRANCH   1  11
HETATM   11  C6  UNL     1      26.639   3.427  49.800  1.00  0.00     0.014 C 
BRANCH  11  12
HETATM   12  C7  UNL     1      27.145   4.390  49.094  1.00  0.00     0.083 C 
HETATM   13 CL1  UNL     1      28.238   5.457  48.249  1.00  0.00    -0.097 Cl
ENDBRANCH  11  12
ENDBRANCH   1  11
BRANCH   1  14
HETATM   14  C8  UNL     1      24.868   2.518  51.120  1.00  0.00     0.026 C 
BRANCH  14  15
HETATM   15  C9  UNL     1      23.553   2.474  51.077  1.00  0.00     0.133 C 
BRANCH  15  16
HETATM   16  O1  UNL     1      22.318   1.982  51.451  1.00  0.00    -0.359 OA
BRANCH  16  17
HETATM   17  C10 UNL     1      21.957   0.620  51.293  1.00  0.00     0.213 C 
BRANCH  17  18
HETATM   18  C11 UNL     1      22.161  -0.020  52.602  1.00  0.00    -0.031 A 
HETATM   19  C12 UNL     1      21.079  -0.469  53.340  1.00  0.00     0.009 A 
HETATM   20  C13 UNL     1      21.216  -1.078  54.570  1.00  0.00     0.004 A 
HETATM   21  C14 UNL     1      22.485  -1.247  55.085  1.00  0.00     0.042 A 
HETATM   22  C15 UNL     1      23.584  -0.811  54.373  1.00  0.00     0.117 A 
HETATM   23  F1  UNL     1      24.837  -0.979  54.883  1.00  0.00    -0.206 F 
HETATM   24  C16 UNL     1      23.416  -0.202  53.140  1.00  0.00     0.051 A 
ENDBRANCH  17  18
ENDBRANCH  16  17
ENDBRANCH  15  16
ENDBRANCH  14  15
ENDBRANCH   1  14
TORSDOF 9
ENDMDL
MODEL 2
REMARK VINA RESULT:      -7.4      1.473      1.771
REMARK  9 active torsions:
REMARK  status: ('A' for Active; 'I' for Inactive)
REMARK    1  A    between atoms: C4_4  and  N1_5 
REMARK    2  A    between atoms: N1_5  and  C5_6 
REMARK    3  A    between atoms: C5_6  and  C6_7 
REMARK    4  A    between atoms: C5_6  and  C8_10 
REMARK    5  A    between atoms: C6_7  and  C7_8 
REMARK    6  A    between atoms: C8_10  and  C9_11 
REMARK    7  A    between atoms: C9_11  and  O1_12 
REMARK    8  A    between atoms: O1_12  and  C10_13 
REMARK    9  A    between atoms: C10_13  and  C11_14 
ROOT
HETATM    1  C5  UNL     1      26.223   2.537  50.785  1.00  0.00     0.132 C 
ENDROOT
BRANCH   1   2
HETATM    2  N1  UNL     1      26.776   2.872  52.050  1.00  0.00    -0.364 N 
HETATM    3  H5  UNL     1      27.174   3.667  52.607  1.00  0.00     0.162 HD
BRANCH   2   4
HETATM    4  C4  UNL     1      26.739   1.625  52.756  1.00  0.00     0.127 A 
HETATM    5  C3  UNL     1      26.801   0.361  52.209  1.00  0.00     0.077 A 
HETATM    6  C2  UNL     1      26.744  -0.776  52.989  1.00  0.00     0.035 A 
HETATM    7  C1  UNL     1      26.823  -2.056  52.238  1.00  0.00     0.070 C 
HETATM    8  N3  UNL     1      26.624  -0.648  54.334  1.00  0.00    -0.247 NA
HETATM    9  C17 UNL     1      26.562   0.606  54.873  1.00  0.00     0.235 A 
HETATM   10  N2  UNL     1      26.618   1.738  54.111  1.00  0.00    -0.225 NA
ENDBRANCH   2   4
ENDBRANCH   1   2
BRANCH   1  11
HETATM   11  C6  UNL     1      26.623   3.432  49.666  1.00  0.00     0.014 C 
BRANCH  11  12
HETATM   12  C7  UNL     1      27.197   4.381  48.994  1.00  0.00     0.083 C 
HETATM   13 CL1  UNL     1      28.363   5.483  48.306  1.00  0.00    -0.097 Cl
ENDBRANCH  11  12
ENDBRANCH   1  11
BRANCH   1  14
HETATM   14  C8  UNL     1      24.740   2.588  50.869  1.00  0.00     0.026 C 
BRANCH  14  15
HETATM   15  C9  UNL     1      23.430   2.482  50.795  1.00  0.00     0.133 C 
BRANCH  15  16
HETATM   16  O1  UNL     1      22.213   1.919  51.129  1.00  0.00    -0.359 OA
BRANCH  16  17
HETATM   17  C10 UNL     1      21.609   2.099  52.399  1.00  0.00     0.213 C 
BRANCH  17  18
HETATM   18  C11 UNL     1      21.680   0.799  53.084  1.00  0.00    -0.031 A 
HETATM   19  C12 UNL     1      22.884   0.336  53.588  1.00  0.00     0.009 A 
HETATM   20  C13 UNL     1      23.003  -0.874  54.240  1.00  0.00     0.004 A 
HETATM   21  C14 UNL     1      21.876  -1.654  54.397  1.00  0.00     0.042 A 
HETATM   22  C15 UNL     1      20.661  -1.220  53.905  1.00  0.00     0.117 A 
HETATM   23  F1  UNL     1      19.548  -1.991  54.061  1.00  0.00    -0.206 F 
HETATM   24  C16 UNL     1      20.571  -0.000  53.254  1.00  0.00     0.051 A 
ENDBRANCH  17  18
ENDBRANCH  16  17
ENDBRANCH  15  16
ENDBRANCH  14  15
ENDBRANCH   1  14
TORSDOF 9
ENDMDL
MODEL 3
REMARK VINA RESULT:      -6.9      1.662      2.058
REMARK  9 active torsions:
REMARK  status: ('A' for Active; 'I' for Inactive)
REMARK    1  A    between atoms: C4_4  and  N1_5 
REMARK    2  A    between atoms: N1_5  and  C5_6 
REMARK    3  A    between atoms: C5_6  and  C6_7 
REMARK    4  A    between atoms: C5_6  and  C8_10 
REMARK    5  A    between atoms: C6_7  and  C7_8 
REMARK    6  A    between atoms: C8_10  and  C9_11 
REMARK    7  A    between atoms: C9_11  and  O1_12 
REMARK    8  A    between atoms: O1_12  and  C10_13 
REMARK    9  A    between atoms: C10_13  and  C11_14 
ROOT
HETATM    1  C5  UNL     1      25.563   2.554  51.152  1.00  0.00     0.132 C 
ENDROOT
BRANCH   1   2
HETATM    2  N1  UNL     1      25.669   2.952  52.512  1.00  0.00    -0.364 N 
HETATM    3  H5  UNL     1      25.455   3.736  53.176  1.00  0.00     0.162 HD
BRANCH   2   4
HETATM    4  C4  UNL     1      26.307   1.825  53.126  1.00  0.00     0.127 A 
HETATM    5  C3  UNL     1      27.650   1.519  53.106  1.00  0.00     0.077 A 
HETATM    6  C2  UNL     1      28.154   0.394  53.725  1.00  0.00     0.035 A 
HETATM    7  C1  UNL     1      29.624   0.215  53.604  1.00  0.00     0.070 C 
HETATM    8  N3  UNL     1      27.302  -0.439  54.375  1.00  0.00    -0.247 NA
HETATM    9  C17 UNL     1      25.970  -0.133  54.394  1.00  0.00     0.235 A 
HETATM   10  N2  UNL     1      25.462   0.978  53.784  1.00  0.00    -0.225 NA
ENDBRANCH   2   4
ENDBRANCH   1   2
BRANCH   1  11
HETATM   11  C6  UNL     1      26.073   3.543  50.165  1.00  0.00     0.014 C 
BRANCH  11  12
HETATM   12  C7  UNL     1      26.829   4.131  49.291  1.00  0.00     0.083 C 
HETATM   13 CL1  UNL     1      28.127   4.992  48.502  1.00  0.00    -0.097 Cl
ENDBRANCH  11  12
ENDBRANCH   1  11
BRANCH   1  14
HETATM   14  C8  UNL     1      24.133   2.315  50.823  1.00  0.00     0.026 C 
BRANCH  14  15
HETATM   15  C9  UNL     1      22.925   1.900  50.504  1.00  0.00     0.133 C 
BRANCH  15  16
HETATM   16  O1  UNL     1      21.988   0.931  50.202  1.00  0.00    -0.359 OA
BRANCH  16  17
HETATM   17  C10 UNL     1      20.771   0.794  50.915  1.00  0.00     0.213 C 
BRANCH  17  18
HETATM   18  C11 UNL     1      21.125   0.307  52.257  1.00  0.00    -0.031 A 
HETATM   19  C12 UNL     1      22.045  -0.717  52.412  1.00  0.00     0.009 A 
HETATM   20  C13 UNL     1      22.413  -1.207  53.648  1.00  0.00     0.004 A 
HETATM   21  C14 UNL     1      21.840  -0.654  54.776  1.00  0.00     0.042 A 
HETATM   22  C15 UNL     1      20.920   0.368  54.653  1.00  0.00     0.117 A 
HETATM   23  F1  UNL     1      20.357   0.914  55.768  1.00  0.00    -0.206 F 
HETATM   24  C16 UNL     1      20.569   0.841  53.399  1.00  0.00     0.051 A 
ENDBRANCH  17  18
ENDBRANCH  16  17
ENDBRANCH  15  16
ENDBRANCH  14  15
ENDBRANCH   1  14
TORSDOF 9
ENDMDL
MODEL 4
REMARK VINA RESULT:      -6.5      3.761      6.750
REMARK  9 active torsions:
REMARK  status: ('A' for Active; 'I' for Inactive)
REMARK    1  A    between atoms: C4_4  and  N1_5 
REMARK    2  A    between atoms: N1_5  and  C5_6 
REMARK    3  A    between atoms: C5_6  and  C6_7 
REMARK    4  A    between atoms: C5_6  and  C8_10 
REMARK    5  A    between atoms: C6_7  and  C7_8 
REMARK    6  A    between atoms: C8_10  and  C9_11 
REMARK    7  A    between atoms: C9_11  and  O1_12 
REMARK    8  A    between atoms: O1_12  and  C10_13 
REMARK    9  A    between atoms: C10_13  and  C11_14 
ROOT
HETATM    1  C5  UNL     1      25.039   0.242  53.249  1.00  0.00     0.132 C 
ENDROOT
BRANCH   1   2
HETATM    2  N1  UNL     1      25.787  -0.803  52.644  1.00  0.00    -0.364 N 
HETATM    3  H5  UNL     1      25.700  -1.648  52.029  1.00  0.00     0.162 HD
BRANCH   2   4
HETATM    4  C4  UNL     1      27.126  -0.531  53.078  1.00  0.00     0.127 A 
HETATM    5  C3  UNL     1      27.643   0.689  53.457  1.00  0.00     0.077 A 
HETATM    6  C2  UNL     1      28.958   0.836  53.846  1.00  0.00     0.035 A 
HETATM    7  C1  UNL     1      29.351   2.220  54.220  1.00  0.00     0.070 C 
HETATM    8  N3  UNL     1      29.769  -0.253  53.859  1.00  0.00    -0.247 NA
HETATM    9  C17 UNL     1      29.253  -1.461  53.484  1.00  0.00     0.235 A 
HETATM   10  N2  UNL     1      27.953  -1.617  53.096  1.00  0.00    -0.225 NA
ENDBRANCH   2   4
ENDBRANCH   1   2
BRANCH   1  11
HETATM   11  C6  UNL     1      23.639  -0.110  53.606  1.00  0.00     0.014 C 
BRANCH  11  12
HETATM   12  C7  UNL     1      22.550  -0.789  53.793  1.00  0.00     0.083 C 
HETATM   13 CL1  UNL     1      21.094  -1.475  54.469  1.00  0.00    -0.097 Cl
ENDBRANCH  11  12
ENDBRANCH   1  11
BRANCH   1  14
HETATM   14  C8  UNL     1      24.969   1.398  52.316  1.00  0.00     0.026 C 
BRANCH  14  15
HETATM   15  C9  UNL     1      24.818   2.525  51.653  1.00  0.00     0.133 C 
BRANCH  15  16
HETATM   16  O1  UNL     1      25.116   3.413  50.637  1.00  0.00    -0.359 OA
BRANCH  16  17
HETATM   17  C10 UNL     1      26.138   3.171  49.685  1.00  0.00     0.213 C 
BRANCH  17  18
HETATM   18  C11 UNL     1      26.510   4.482  49.129  1.00  0.00    -0.031 A 
HETATM   19  C12 UNL     1      25.565   5.486  49.007  1.00  0.00     0.009 A 
HETATM   20  C13 UNL     1      25.862   6.732  48.495  1.00  0.00     0.004 A 
HETATM   21  C14 UNL     1      27.156   6.987  48.089  1.00  0.00     0.042 A 
HETATM   22  C15 UNL     1      28.121   6.006  48.198  1.00  0.00     0.117 A 
HETATM   23  F1  UNL     1      29.400   6.260  47.797  1.00  0.00    -0.206 F 
HETATM   24  C16 UNL     1      27.794   4.763  48.716  1.00  0.00     0.051 A 
ENDBRANCH  17  18
ENDBRANCH  16  17
ENDBRANCH  15  16
ENDBRANCH  14  15
ENDBRANCH   1  14
TORSDOF 9
ENDMDL
MODEL 5
REMARK VINA RESULT:      -6.4      3.354      5.627
REMARK  9 active torsions:
REMARK  status: ('A' for Active; 'I' for Inactive)
REMARK    1  A    between atoms: C4_4  and  N1_5 
REMARK    2  A    between atoms: N1_5  and  C5_6 
REMARK    3  A    between atoms: C5_6  and  C6_7 
REMARK    4  A    between atoms: C5_6  and  C8_10 
REMARK    5  A    between atoms: C6_7  and  C7_8 
REMARK    6  A    between atoms: C8_10  and  C9_11 
REMARK    7  A    between atoms: C9_11  and  O1_12 
REMARK    8  A    between atoms: O1_12  and  C10_13 
REMARK    9  A    between atoms: C10_13  and  C11_14 
ROOT
HETATM    1  C5  UNL     1      25.814   0.204  52.501  1.00  0.00     0.132 C 
ENDROOT
BRANCH   1   2
HETATM    2  N1  UNL     1      25.149   0.754  53.629  1.00  0.00    -0.364 N 
HETATM    3  H5  UNL     1      25.276   1.402  54.445  1.00  0.00     0.162 HD
BRANCH   2   4
HETATM    4  C4  UNL     1      23.845   0.164  53.552  1.00  0.00     0.127 A 
HETATM    5  C3  UNL     1      22.857   0.454  52.636  1.00  0.00     0.077 A 
HETATM    6  C2  UNL     1      21.627  -0.171  52.664  1.00  0.00     0.035 A 
HETATM    7  C1  UNL     1      20.678   0.262  51.605  1.00  0.00     0.070 C 
HETATM    8  N3  UNL     1      21.382  -1.102  53.620  1.00  0.00    -0.247 NA
HETATM    9  C17 UNL     1      22.363  -1.388  54.527  1.00  0.00     0.235 A 
HETATM   10  N2  UNL     1      23.583  -0.774  54.508  1.00  0.00    -0.225 NA
ENDBRANCH   2   4
ENDBRANCH   1   2
BRANCH   1  11
HETATM   11  C6  UNL     1      27.046  -0.569  52.812  1.00  0.00     0.014 C 
BRANCH  11  12
HETATM   12  C7  UNL     1      28.219  -0.885  53.263  1.00  0.00     0.083 C 
HETATM   13 CL1  UNL     1      29.941  -1.000  53.529  1.00  0.00    -0.097 Cl
ENDBRANCH  11  12
ENDBRANCH   1  11
BRANCH   1  14
HETATM   14  C8  UNL     1      26.215   1.305  51.585  1.00  0.00     0.026 C 
BRANCH  14  15
HETATM   15  C9  UNL     1      26.603   2.390  50.950  1.00  0.00     0.133 C 
BRANCH  15  16
HETATM   16  O1  UNL     1      26.506   3.345  49.956  1.00  0.00    -0.359 OA
BRANCH  16  17
HETATM   17  C10 UNL     1      25.723   4.518  50.096  1.00  0.00     0.213 C 
BRANCH  17  18
HETATM   18  C11 UNL     1      24.317   4.086  50.090  1.00  0.00    -0.031 A 
HETATM   19  C12 UNL     1      23.795   3.407  49.002  1.00  0.00     0.009 A 
HETATM   20  C13 UNL     1      22.485   2.978  48.949  1.00  0.00     0.004 A 
HETATM   21  C14 UNL     1      21.661   3.237  50.026  1.00  0.00     0.042 A 
HETATM   22  C15 UNL     1      22.152   3.912  51.125  1.00  0.00     0.117 A 
HETATM   23  F1  UNL     1      21.337   4.166  52.189  1.00  0.00    -0.206 F 
HETATM   24  C16 UNL     1      23.472   4.331  51.151  1.00  0.00     0.051 A 
ENDBRANCH  17  18
ENDBRANCH  16  17
ENDBRANCH  15  16
ENDBRANCH  14  15
ENDBRANCH   1  14
TORSDOF 9
ENDMDL
MODEL 6
REMARK VINA RESULT:      -6.4      3.679      6.850
REMARK  9 active torsions:
REMARK  status: ('A' for Active; 'I' for Inactive)
REMARK    1  A    between atoms: C4_4  and  N1_5 
REMARK    2  A    between atoms: N1_5  and  C5_6 
REMARK    3  A    between atoms: C5_6  and  C6_7 
REMARK    4  A    between atoms: C5_6  and  C8_10 
REMARK    5  A    between atoms: C6_7  and  C7_8 
REMARK    6  A    between atoms: C8_10  and  C9_11 
REMARK    7  A    between atoms: C9_11  and  O1_12 
REMARK    8  A    between atoms: O1_12  and  C10_13 
REMARK    9  A    between atoms: C10_13  and  C11_14 
ROOT
HETATM    1  C5  UNL     1      23.865   2.292  51.001  1.00  0.00     0.132 C 
ENDROOT
BRANCH   1   2
HETATM    2  N1  UNL     1      23.354   3.569  51.356  1.00  0.00    -0.364 N 
HETATM    3  H5  UNL     1      23.058   4.157  52.174  1.00  0.00     0.162 HD
BRANCH   2   4
HETATM    4  C4  UNL     1      23.226   4.226  50.089  1.00  0.00     0.127 A 
HETATM    5  C3  UNL     1      23.935   5.324  49.649  1.00  0.00     0.077 A 
HETATM    6  C2  UNL     1      23.719   5.884  48.408  1.00  0.00     0.035 A 
HETATM    7  C1  UNL     1      24.568   7.063  48.094  1.00  0.00     0.070 C 
HETATM    8  N3  UNL     1      22.781   5.340  47.592  1.00  0.00    -0.247 NA
HETATM    9  C17 UNL     1      22.080   4.251  48.030  1.00  0.00     0.235 A 
HETATM   10  N2  UNL     1      22.286   3.690  49.257  1.00  0.00    -0.225 NA
ENDBRANCH   2   4
ENDBRANCH   1   2
BRANCH   1  11
HETATM   11  C6  UNL     1      23.436   1.175  51.884  1.00  0.00     0.014 C 
BRANCH  11  12
HETATM   12  C7  UNL     1      23.318   0.396  52.915  1.00  0.00     0.083 C 
HETATM   13 CL1  UNL     1      22.815  -0.851  54.028  1.00  0.00    -0.097 Cl
ENDBRANCH  11  12
ENDBRANCH   1  11
BRANCH   1  14
HETATM   14  C8  UNL     1      25.350   2.330  51.044  1.00  0.00     0.026 C 
BRANCH  14  15
HETATM   15  C9  UNL     1      26.641   2.475  51.259  1.00  0.00     0.133 C 
BRANCH  15  16
HETATM   16  O1  UNL     1      27.767   2.500  52.058  1.00  0.00    -0.359 OA
BRANCH  16  17
HETATM   17  C10 UNL     1      27.767   2.035  53.397  1.00  0.00     0.213 C 
BRANCH  17  18
HETATM   18  C11 UNL     1      28.255   0.648  53.359  1.00  0.00    -0.031 A 
HETATM   19  C12 UNL     1      29.561   0.353  53.709  1.00  0.00     0.009 A 
HETATM   20  C13 UNL     1      30.067  -0.930  53.692  1.00  0.00     0.004 A 
HETATM   21  C14 UNL     1      29.235  -1.963  53.310  1.00  0.00     0.042 A 
HETATM   22  C15 UNL     1      27.927  -1.701  52.955  1.00  0.00     0.117 A 
HETATM   23  F1  UNL     1      27.105  -2.723  52.579  1.00  0.00    -0.206 F 
HETATM   24  C16 UNL     1      27.446  -0.402  52.981  1.00  0.00     0.051 A 
ENDBRANCH  17  18
ENDBRANCH  16  17
ENDBRANCH  15  16
ENDBRANCH  14  15
ENDBRANCH   1  14
TORSDOF 9
ENDMDL
MODEL 7
REMARK VINA RESULT:      -6.4      4.053      7.704
REMARK  9 active torsions:
REMARK  status: ('A' for Active; 'I' for Inactive)
REMARK    1  A    between atoms: C4_4  and  N1_5 
REMARK    2  A    between atoms: N1_5  and  C5_6 
REMARK    3  A    between atoms: C5_6  and  C6_7 
REMARK    4  A    between atoms: C5_6  and  C8_10 
REMARK    5  A    between atoms: C6_7  and  C7_8 
REMARK    6  A    between atoms: C8_10  and  C9_11 
REMARK    7  A    between atoms: C9_11  and  O1_12 
REMARK    8  A    between atoms: O1_12  and  C10_13 
REMARK    9  A    between atoms: C10_13  and  C11_14 
ROOT
HETATM    1  C5  UNL     1      26.154   1.045  52.336  1.00  0.00     0.132 C 
ENDROOT
BRANCH   1   2
HETATM    2  N1  UNL     1      25.246   1.579  53.289  1.00  0.00    -0.364 N 
HETATM    3  H5  UNL     1      25.151   2.300  54.046  1.00  0.00     0.162 HD
BRANCH   2   4
HETATM    4  C4  UNL     1      24.060   0.803  53.072  1.00  0.00     0.127 A 
HETATM    5  C3  UNL     1      23.080   1.032  52.130  1.00  0.00     0.077 A 
HETATM    6  C2  UNL     1      21.969   0.222  52.019  1.00  0.00     0.035 A 
HETATM    7  C1  UNL     1      21.011   0.613  50.953  1.00  0.00     0.070 C 
HETATM    8  N3  UNL     1      21.836  -0.834  52.861  1.00  0.00    -0.247 NA
HETATM    9  C17 UNL     1      22.809  -1.059  53.793  1.00  0.00     0.235 A 
HETATM   10  N2  UNL     1      23.912  -0.263  53.912  1.00  0.00    -0.225 NA
ENDBRANCH   2   4
ENDBRANCH   1   2
BRANCH   1  11
HETATM   11  C6  UNL     1      27.460   0.602  52.891  1.00  0.00     0.014 C 
BRANCH  11  12
HETATM   12  C7  UNL     1      28.424  -0.154  53.317  1.00  0.00     0.083 C 
HETATM   13 CL1  UNL     1      29.881  -1.108  53.438  1.00  0.00    -0.097 Cl
ENDBRANCH  11  12
ENDBRANCH   1  11
BRANCH   1  14
HETATM   14  C8  UNL     1      26.449   2.078  51.309  1.00  0.00     0.026 C 
BRANCH  14  15
HETATM   15  C9  UNL     1      26.569   3.111  50.502  1.00  0.00     0.133 C 
BRANCH  15  16
HETATM   16  O1  UNL     1      27.126   3.792  49.436  1.00  0.00    -0.359 OA
BRANCH  16  17
HETATM   17  C10 UNL     1      26.595   5.010  48.943  1.00  0.00     0.213 C 
BRANCH  17  18
HETATM   18  C11 UNL     1      27.729   5.771  48.397  1.00  0.00    -0.031 A 
HETATM   19  C12 UNL     1      27.555   7.071  47.956  1.00  0.00     0.009 A 
HETATM   20  C13 UNL     1      28.586   7.828  47.439  1.00  0.00     0.004 A 
HETATM   21  C14 UNL     1      29.844   7.264  47.359  1.00  0.00     0.042 A 
HETATM   22  C15 UNL     1      30.049   5.969  47.791  1.00  0.00     0.117 A 
HETATM   23  F1  UNL     1      31.292   5.414  47.713  1.00  0.00    -0.206 F 
HETATM   24  C16 UNL     1      28.995   5.232  48.306  1.00  0.00     0.051 A 
ENDBRANCH  17  18
ENDBRANCH  16  17
ENDBRANCH  15  16
ENDBRANCH  14  15
ENDBRANCH   1  14
TORSDOF 9
ENDMDL
MODEL 8
REMARK VINA RESULT:      -6.4      4.222      6.191
REMARK  9 active torsions:
REMARK  status: ('A' for Active; 'I' for Inactive)
REMARK    1  A    between atoms: C4_4  and  N1_5 
REMARK    2  A    between atoms: N1_5  and  C5_6 
REMARK    3  A    between atoms: C5_6  and  C6_7 
REMARK    4  A    between atoms: C5_6  and  C8_10 
REMARK    5  A    between atoms: C6_7  and  C7_8 
REMARK    6  A    between atoms: C8_10  and  C9_11 
REMARK    7  A    between atoms: C9_11  and  O1_12 
REMARK    8  A    between atoms: O1_12  and  C10_13 
REMARK    9  A    between atoms: C10_13  and  C11_14 
ROOT
HETATM    1  C5  UNL     1      28.970   5.862  48.098  1.00  0.00     0.132 C 
ENDROOT
BRANCH   1   2
HETATM    2  N1  UNL     1      29.916   6.126  49.123  1.00  0.00    -0.364 N 
HETATM    3  H5  UNL     1      30.008   6.450  50.117  1.00  0.00     0.162 HD
BRANCH   2   4
HETATM    4  C4  UNL     1      31.166   5.812  48.495  1.00  0.00     0.127 A 
HETATM    5  C3  UNL     1      31.405   4.809  47.580  1.00  0.00     0.077 A 
HETATM    6  C2  UNL     1      32.658   4.588  47.048  1.00  0.00     0.035 A 
HETATM    7  C1  UNL     1      32.739   3.465  46.077  1.00  0.00     0.070 C 
HETATM    8  N3  UNL     1      33.688   5.382  47.434  1.00  0.00    -0.247 NA
HETATM    9  C17 UNL     1      33.449   6.376  48.341  1.00  0.00     0.235 A 
HETATM   10  N2  UNL     1      32.213   6.602  48.875  1.00  0.00    -0.225 NA
ENDBRANCH   2   4
ENDBRANCH   1   2
BRANCH   1  11
HETATM   11  C6  UNL     1      28.308   7.065  47.527  1.00  0.00     0.014 C 
BRANCH  11  12
HETATM   12  C7  UNL     1      27.922   7.978  46.690  1.00  0.00     0.083 C 
HETATM   13 CL1  UNL     1      27.496   8.856  45.243  1.00  0.00    -0.097 Cl
ENDBRANCH  11  12
ENDBRANCH   1  11
BRANCH   1  14
HETATM   14  C8  UNL     1      27.893   4.991  48.637  1.00  0.00     0.026 C 
BRANCH  14  15
HETATM   15  C9  UNL     1      27.050   4.223  49.295  1.00  0.00     0.133 C 
BRANCH  15  16
HETATM   16  O1  UNL     1      26.728   3.177  50.139  1.00  0.00    -0.359 OA
BRANCH  16  17
HETATM   17  C10 UNL     1      25.464   3.064  50.770  1.00  0.00     0.213 C 
BRANCH  17  18
HETATM   18  C11 UNL     1      25.511   1.839  51.583  1.00  0.00    -0.031 A 
HETATM   19  C12 UNL     1      26.650   1.052  51.602  1.00  0.00     0.009 A 
HETATM   20  C13 UNL     1      26.746  -0.104  52.349  1.00  0.00     0.004 A 
HETATM   21  C14 UNL     1      25.660  -0.491  53.109  1.00  0.00     0.042 A 
HETATM   22  C15 UNL     1      24.511   0.273  53.110  1.00  0.00     0.117 A 
HETATM   23  F1  UNL     1      23.439  -0.110  53.863  1.00  0.00    -0.206 F 
HETATM   24  C16 UNL     1      24.442   1.429  52.350  1.00  0.00     0.051 A 
ENDBRANCH  17  18
ENDBRANCH  16  17
ENDBRANCH  15  16
ENDBRANCH  14  15
ENDBRANCH   1  14
TORSDOF 9
ENDMDL
MODEL 9
REMARK VINA RESULT:      -6.4      3.903      6.365
REMARK  9 active torsions:
REMARK  status: ('A' for Active; 'I' for Inactive)
REMARK    1  A    between atoms: C4_4  and  N1_5 
REMARK    2  A    between atoms: N1_5  and  C5_6 
REMARK    3  A    between atoms: C5_6  and  C6_7 
REMARK    4  A    between atoms: C5_6  and  C8_10 
REMARK    5  A    between atoms: C6_7  and  C7_8 
REMARK    6  A    between atoms: C8_10  and  C9_11 
REMARK    7  A    between atoms: C9_11  and  O1_12 
REMARK    8  A    between atoms: O1_12  and  C10_13 
REMARK    9  A    between atoms: C10_13  and  C11_14 
ROOT
HETATM    1  C5  UNL     1      22.426   1.058  51.684  1.00  0.00     0.132 C 
ENDROOT
BRANCH   1   2
HETATM    2  N1  UNL     1      22.384   2.416  52.098  1.00  0.00    -0.364 N 
HETATM    3  H5  UNL     1      22.014   3.055  52.845  1.00  0.00     0.162 HD
BRANCH   2   4
HETATM    4  C4  UNL     1      23.140   3.085  51.081  1.00  0.00     0.127 A 
HETATM    5  C3  UNL     1      24.480   2.923  50.803  1.00  0.00     0.077 A 
HETATM    6  C2  UNL     1      25.110   3.633  49.802  1.00  0.00     0.035 A 
HETATM    7  C1  UNL     1      26.558   3.337  49.638  1.00  0.00     0.070 C 
HETATM    8  N3  UNL     1      24.391   4.519  49.068  1.00  0.00    -0.247 NA
HETATM    9  C17 UNL     1      23.063   4.678  49.346  1.00  0.00     0.235 A 
HETATM   10  N2  UNL     1      22.429   3.980  50.334  1.00  0.00    -0.225 NA
ENDBRANCH   2   4
ENDBRANCH   1   2
BRANCH   1  11
HETATM   11  C6  UNL     1      21.101   0.445  51.402  1.00  0.00     0.014 C 
BRANCH  11  12
HETATM   12  C7  UNL     1      19.823   0.227  51.392  1.00  0.00     0.083 C 
HETATM   13 CL1  UNL     1      18.221  -0.385  51.721  1.00  0.00    -0.097 Cl
ENDBRANCH  11  12
ENDBRANCH   1  11
BRANCH   1  14
HETATM   14  C8  UNL     1      23.062   0.240  52.751  1.00  0.00     0.026 C 
BRANCH  14  15
HETATM   15  C9  UNL     1      23.765  -0.539  53.546  1.00  0.00     0.133 C 
BRANCH  15  16
HETATM   16  O1  UNL     1      24.944  -1.029  54.073  1.00  0.00    -0.359 OA
BRANCH  16  17
HETATM   17  C10 UNL     1      25.644  -0.377  55.119  1.00  0.00     0.213 C 
BRANCH  17  18
HETATM   18  C11 UNL     1      26.719   0.400  54.482  1.00  0.00    -0.031 A 
HETATM   19  C12 UNL     1      26.473   1.674  53.998  1.00  0.00     0.009 A 
HETATM   20  C13 UNL     1      27.446   2.444  53.395  1.00  0.00     0.004 A 
HETATM   21  C14 UNL     1      28.718   1.922  53.271  1.00  0.00     0.042 A 
HETATM   22  C15 UNL     1      28.995   0.655  53.744  1.00  0.00     0.117 A 
HETATM   23  F1  UNL     1      30.252   0.142  53.622  1.00  0.00    -0.206 F 
HETATM   24  C16 UNL     1      27.998  -0.096  54.345  1.00  0.00     0.051 A 
ENDBRANCH  17  18
ENDBRANCH  16  17
ENDBRANCH  15  16
ENDBRANCH  14  15
ENDBRANCH   1  14
TORSDOF 9
ENDMDL
