MODEL 1
REMARK VINA RESULT:      -9.5      0.000      0.000
REMARK  3 active torsions:
REMARK  status: ('A' for Active; 'I' for Inactive)
REMARK    1  A    between atoms: C7_7  and  C8_8 
REMARK    2  A    between atoms: C12_13  and  N2_14 
REMARK    3  A    between atoms: N3_16  and  C14_17 
ROOT
HETATM    1  C8  UNL     1      25.914   0.129  53.347  1.00  0.00     0.043 C 
HETATM    2  C9  UNL     1      25.135   0.433  52.316  1.00  0.00     0.036 C 
HETATM    3  C10 UNL     1      23.822   0.601  52.924  1.00  0.00     0.184 A 
HETATM    4  C11 UNL     1      23.787  -0.285  54.077  1.00  0.00     0.134 A 
HETATM    5  N1  UNL     1      22.702  -0.937  54.439  1.00  0.00    -0.214 NA
HETATM    6  C12 UNL     1      21.487  -0.821  53.674  1.00  0.00     0.139 A 
HETATM    7  C13 UNL     1      21.487  -0.079  52.600  1.00  0.00     0.142 A 
HETATM    8  N3  UNL     1      22.652   0.627  52.127  1.00  0.00    -0.338 N 
HETATM    9  N4  UNL     1      25.172  -0.315  54.515  1.00  0.00    -0.342 N 
HETATM   10  H17 UNL     1      25.255  -0.637  55.495  1.00  0.00     0.167 HD
ENDROOT
BRANCH   1  11
HETATM   11  C7  UNL     1      27.346  -0.121  53.345  1.00  0.00    -0.004 A 
HETATM   12  C2  UNL     1      28.442   0.675  53.514  1.00  0.00    -0.050 A 
HETATM   13  C1  UNL     1      28.165   2.128  53.637  1.00  0.00     0.049 C 
HETATM   14  C3  UNL     1      29.736   0.277  53.539  1.00  0.00     0.007 A 
HETATM   15  C4  UNL     1      30.045  -1.054  53.381  1.00  0.00     0.001 A 
HETATM   16  C5  UNL     1      29.012  -1.932  53.203  1.00  0.00     0.001 A 
HETATM   17  C6  UNL     1      27.720  -1.464  53.188  1.00  0.00     0.014 A 
ENDBRANCH   1  11
BRANCH   8  18
HETATM   18  C14 UNL     1      22.547   1.304  50.887  1.00  0.00     0.036 A 
HETATM   19  C15 UNL     1      21.740   0.883  49.850  1.00  0.00     0.030 A 
HETATM   20  C16 UNL     1      21.600   1.518  48.634  1.00  0.00     0.004 A 
HETATM   21  C17 UNL     1      22.321   2.676  48.418  1.00  0.00     0.019 A 
HETATM   22  C18 UNL     1      23.152   3.163  49.406  1.00  0.00     0.013 A 
HETATM   23 BR1  UNL     1      24.138   4.761  49.089  1.00  0.00    -0.051 Br
HETATM   24  C19 UNL     1      23.233   2.464  50.594  1.00  0.00     0.048 A 
ENDBRANCH   8  18
BRANCH   6  25
HETATM   25  N2  UNL     1      20.383  -1.550  54.186  1.00  0.00    -0.383 N 
HETATM   26  H10 UNL     1      19.909  -1.318  55.101  1.00  0.00     0.157 HD
HETATM   27  H11 UNL     1      20.038  -2.362  53.603  1.00  0.00     0.157 HD
ENDBRANCH   6  25
TORSDOF 3
ENDMDL
MODEL 2
REMARK VINA RESULT:      -9.4      0.530      1.402
REMARK  3 active torsions:
REMARK  status: ('A' for Active; 'I' for Inactive)
REMARK    1  A    between atoms: C7_7  and  C8_8 
REMARK    2  A    between atoms: C12_13  and  N2_14 
REMARK    3  A    between atoms: N3_16  and  C14_17 
ROOT
HETATM    1  C8  UNL     1      25.627  -0.067  53.536  1.00  0.00     0.043 C 
HETATM    2  C9  UNL     1      24.889   0.257  52.481  1.00  0.00     0.036 C 
HETATM    3  C10 UNL     1      23.561   0.453  53.047  1.00  0.00     0.184 A 
HETATM    4  C11 UNL     1      23.469  -0.434  54.197  1.00  0.00     0.134 A 
HETATM    5  N1  UNL     1      22.358  -1.061  54.521  1.00  0.00    -0.214 NA
HETATM    6  C12 UNL     1      21.171  -0.916  53.718  1.00  0.00     0.139 A 
HETATM    7  C13 UNL     1      21.223  -0.173  52.647  1.00  0.00     0.142 A 
HETATM    8  N3  UNL     1      22.418   0.507  52.214  1.00  0.00    -0.338 N 
HETATM    9  N4  UNL     1      24.837  -0.496  54.678  1.00  0.00    -0.342 N 
HETATM   10  H17 UNL     1      24.882  -0.822  55.660  1.00  0.00     0.167 HD
ENDROOT
BRANCH   1  11
HETATM   11  C7  UNL     1      27.052  -0.350  53.579  1.00  0.00    -0.004 A 
HETATM   12  C2  UNL     1      27.829  -1.356  53.084  1.00  0.00    -0.050 A 
HETATM   13  C1  UNL     1      27.096  -2.471  52.434  1.00  0.00     0.049 C 
HETATM   14  C3  UNL     1      29.178  -1.453  53.163  1.00  0.00     0.007 A 
HETATM   15  C4  UNL     1      29.897  -0.467  53.799  1.00  0.00     0.001 A 
HETATM   16  C5  UNL     1      29.206   0.585  54.331  1.00  0.00     0.001 A 
HETATM   17  C6  UNL     1      27.837   0.624  54.215  1.00  0.00     0.014 A 
ENDBRANCH   1  11
BRANCH   8  18
HETATM   18  C14 UNL     1      22.368   1.189  50.972  1.00  0.00     0.036 A 
HETATM   19  C15 UNL     1      21.574   0.798  49.915  1.00  0.00     0.030 A 
HETATM   20  C16 UNL     1      21.487   1.439  48.696  1.00  0.00     0.004 A 
HETATM   21  C17 UNL     1      22.253   2.571  48.501  1.00  0.00     0.019 A 
HETATM   22  C18 UNL     1      23.075   3.028  49.511  1.00  0.00     0.013 A 
HETATM   23 BR1  UNL     1      24.125   4.591  49.222  1.00  0.00    -0.051 Br
HETATM   24  C19 UNL     1      23.101   2.325  50.699  1.00  0.00     0.048 A 
ENDBRANCH   8  18
BRANCH   6  25
HETATM   25  N2  UNL     1      20.035  -1.621  54.193  1.00  0.00    -0.383 N 
HETATM   26  H10 UNL     1      19.042  -1.323  53.991  1.00  0.00     0.157 HD
HETATM   27  H11 UNL     1      20.220  -2.483  54.777  1.00  0.00     0.157 HD
ENDBRANCH   6  25
TORSDOF 3
ENDMDL
MODEL 3
REMARK VINA RESULT:      -9.2      2.796      4.332
REMARK  3 active torsions:
REMARK  status: ('A' for Active; 'I' for Inactive)
REMARK    1  A    between atoms: C7_7  and  C8_8 
REMARK    2  A    between atoms: C12_13  and  N2_14 
REMARK    3  A    between atoms: N3_16  and  C14_17 
ROOT
HETATM    1  C8  UNL     1      25.996   0.886  52.485  1.00  0.00     0.043 C 
HETATM    2  C9  UNL     1      24.760   0.633  52.896  1.00  0.00     0.036 C 
HETATM    3  C10 UNL     1      23.947   1.534  52.091  1.00  0.00     0.184 A 
HETATM    4  C11 UNL     1      24.774   2.698  51.814  1.00  0.00     0.134 A 
HETATM    5  N1  UNL     1      24.286   3.920  51.766  1.00  0.00    -0.214 NA
HETATM    6  C12 UNL     1      22.891   4.164  52.022  1.00  0.00     0.139 A 
HETATM    7  C13 UNL     1      22.121   3.155  52.327  1.00  0.00     0.142 A 
HETATM    8  N3  UNL     1      22.599   1.800  52.436  1.00  0.00    -0.338 N 
HETATM    9  N4  UNL     1      26.118   2.148  51.775  1.00  0.00    -0.342 N 
HETATM   10  H17 UNL     1      26.773   2.778  51.281  1.00  0.00     0.167 HD
ENDROOT
BRANCH   1  11
HETATM   11  C7  UNL     1      27.232   0.256  52.922  1.00  0.00    -0.004 A 
HETATM   12  C2  UNL     1      27.709  -1.021  52.868  1.00  0.00    -0.050 A 
HETATM   13  C1  UNL     1      26.762  -2.037  52.344  1.00  0.00     0.049 C 
HETATM   14  C3  UNL     1      28.927  -1.449  53.277  1.00  0.00     0.007 A 
HETATM   15  C4  UNL     1      29.821  -0.552  53.814  1.00  0.00     0.001 A 
HETATM   16  C5  UNL     1      29.433   0.754  53.912  1.00  0.00     0.001 A 
HETATM   17  C6  UNL     1      28.183   1.124  53.478  1.00  0.00     0.014 A 
ENDBRANCH   1  11
BRANCH   8  18
HETATM   18  C14 UNL     1      21.683   0.818  52.886  1.00  0.00     0.036 A 
HETATM   19  C15 UNL     1      21.947  -0.062  53.916  1.00  0.00     0.030 A 
HETATM   20  C16 UNL     1      21.080  -1.023  54.392  1.00  0.00     0.004 A 
HETATM   21  C17 UNL     1      19.837  -1.129  53.800  1.00  0.00     0.019 A 
HETATM   22  C18 UNL     1      19.496  -0.285  52.762  1.00  0.00     0.013 A 
HETATM   23 BR1  UNL     1      17.777  -0.447  51.958  1.00  0.00    -0.051 Br
HETATM   24  C19 UNL     1      20.425   0.648  52.348  1.00  0.00     0.048 A 
ENDBRANCH   8  18
BRANCH   6  25
HETATM   25  N2  UNL     1      22.488   5.519  51.910  1.00  0.00    -0.383 N 
HETATM   26  H10 UNL     1      21.813   5.865  51.175  1.00  0.00     0.157 HD
HETATM   27  H11 UNL     1      22.899   6.197  52.610  1.00  0.00     0.157 HD
ENDBRANCH   6  25
TORSDOF 3
ENDMDL
MODEL 4
REMARK VINA RESULT:      -9.0      2.512      3.471
REMARK  3 active torsions:
REMARK  status: ('A' for Active; 'I' for Inactive)
REMARK    1  A    between atoms: C7_7  and  C8_8 
REMARK    2  A    between atoms: C12_13  and  N2_14 
REMARK    3  A    between atoms: N3_16  and  C14_17 
ROOT
HETATM    1  C8  UNL     1      26.385   0.848  52.744  1.00  0.00     0.043 C 
HETATM    2  C9  UNL     1      26.363   1.789  51.808  1.00  0.00     0.036 C 
HETATM    3  C10 UNL     1      25.186   2.576  52.149  1.00  0.00     0.184 A 
HETATM    4  C11 UNL     1      24.248   1.660  52.778  1.00  0.00     0.134 A 
HETATM    5  N1  UNL     1      22.946   1.743  52.597  1.00  0.00    -0.214 NA
HETATM    6  C12 UNL     1      22.388   2.744  51.727  1.00  0.00     0.139 A 
HETATM    7  C13 UNL     1      23.196   3.554  51.098  1.00  0.00     0.142 A 
HETATM    8  N3  UNL     1      24.631   3.490  51.220  1.00  0.00    -0.338 N 
HETATM    9  N4  UNL     1      25.114   0.696  53.432  1.00  0.00    -0.342 N 
HETATM   10  H17 UNL     1      24.613   0.176  54.175  1.00  0.00     0.167 HD
ENDROOT
BRANCH   1  11
HETATM   11  C7  UNL     1      27.362  -0.212  52.927  1.00  0.00    -0.004 A 
HETATM   12  C2  UNL     1      28.625  -0.251  53.442  1.00  0.00    -0.050 A 
HETATM   13  C1  UNL     1      29.201   1.061  53.827  1.00  0.00     0.049 C 
HETATM   14  C3  UNL     1      29.404  -1.348  53.596  1.00  0.00     0.007 A 
HETATM   15  C4  UNL     1      28.931  -2.581  53.209  1.00  0.00     0.001 A 
HETATM   16  C5  UNL     1      27.674  -2.645  52.678  1.00  0.00     0.001 A 
HETATM   17  C6  UNL     1      26.934  -1.493  52.549  1.00  0.00     0.014 A 
ENDBRANCH   1  11
BRANCH   8  18
HETATM   18  C14 UNL     1      25.396   4.352  50.396  1.00  0.00     0.036 A 
HETATM   19  C15 UNL     1      26.412   3.920  49.570  1.00  0.00     0.030 A 
HETATM   20  C16 UNL     1      27.171   4.723  48.744  1.00  0.00     0.004 A 
HETATM   21  C17 UNL     1      26.905   6.078  48.730  1.00  0.00     0.019 A 
HETATM   22  C18 UNL     1      25.903   6.590  49.529  1.00  0.00     0.013 A 
HETATM   23 BR1  UNL     1      25.551   8.461  49.496  1.00  0.00    -0.051 Br
HETATM   24  C19 UNL     1      25.192   5.715  50.326  1.00  0.00     0.048 A 
ENDBRANCH   8  18
BRANCH   6  25
HETATM   25  N2  UNL     1      20.972   2.745  51.642  1.00  0.00    -0.383 N 
HETATM   26  H10 UNL     1      20.352   3.307  52.286  1.00  0.00     0.157 HD
HETATM   27  H11 UNL     1      20.540   2.141  50.888  1.00  0.00     0.157 HD
ENDBRANCH   6  25
TORSDOF 3
ENDMDL
MODEL 5
REMARK VINA RESULT:      -8.6      1.499      2.268
REMARK  3 active torsions:
REMARK  status: ('A' for Active; 'I' for Inactive)
REMARK    1  A    between atoms: C7_7  and  C8_8 
REMARK    2  A    between atoms: C12_13  and  N2_14 
REMARK    3  A    between atoms: N3_16  and  C14_17 
ROOT
HETATM    1  C8  UNL     1      25.797   0.444  53.264  1.00  0.00     0.043 C 
HETATM    2  C9  UNL     1      25.321   1.267  52.337  1.00  0.00     0.036 C 
HETATM    3  C10 UNL     1      23.940   1.478  52.751  1.00  0.00     0.184 A 
HETATM    4  C11 UNL     1      23.523   0.259  53.427  1.00  0.00     0.134 A 
HETATM    5  N1  UNL     1      22.305  -0.230  53.322  1.00  0.00    -0.214 NA
HETATM    6  C12 UNL     1      21.323   0.419  52.492  1.00  0.00     0.139 A 
HETATM    7  C13 UNL     1      21.668   1.485  51.824  1.00  0.00     0.142 A 
HETATM    8  N3  UNL     1      22.995   2.047  51.863  1.00  0.00    -0.338 N 
HETATM    9  N4  UNL     1      24.755  -0.228  54.023  1.00  0.00    -0.342 N 
HETATM   10  H17 UNL     1      24.569  -0.899  54.789  1.00  0.00     0.167 HD
ENDROOT
BRANCH   1  11
HETATM   11  C7  UNL     1      27.143  -0.089  53.381  1.00  0.00    -0.004 A 
HETATM   12  C2  UNL     1      27.739  -1.245  52.968  1.00  0.00    -0.050 A 
HETATM   13  C1  UNL     1      26.836  -2.242  52.341  1.00  0.00     0.049 C 
HETATM   14  C3  UNL     1      29.043  -1.581  53.109  1.00  0.00     0.007 A 
HETATM   15  C4  UNL     1      29.909  -0.709  53.728  1.00  0.00     0.001 A 
HETATM   16  C5  UNL     1      29.406   0.478  54.180  1.00  0.00     0.001 A 
HETATM   17  C6  UNL     1      28.072   0.759  54.004  1.00  0.00     0.014 A 
ENDBRANCH   1  11
BRANCH   8  18
HETATM   18  C14 UNL     1      23.268   3.140  51.003  1.00  0.00     0.036 A 
HETATM   19  C15 UNL     1      24.095   3.060  49.902  1.00  0.00     0.030 A 
HETATM   20  C16 UNL     1      24.376   4.094  49.033  1.00  0.00     0.004 A 
HETATM   21  C17 UNL     1      23.789   5.321  49.271  1.00  0.00     0.019 A 
HETATM   22  C18 UNL     1      22.949   5.483  50.353  1.00  0.00     0.013 A 
HETATM   23 BR1  UNL     1      22.149   7.184  50.664  1.00  0.00    -0.051 Br
HETATM   24  C19 UNL     1      22.722   4.395  51.172  1.00  0.00     0.048 A 
ENDBRANCH   8  18
BRANCH   6  25
HETATM   25  N2  UNL     1      20.043  -0.191  52.489  1.00  0.00    -0.383 N 
HETATM   26  H10 UNL     1      19.744  -0.917  53.196  1.00  0.00     0.157 HD
HETATM   27  H11 UNL     1      19.373   0.113  51.729  1.00  0.00     0.157 HD
ENDBRANCH   6  25
TORSDOF 3
ENDMDL
MODEL 6
REMARK VINA RESULT:      -8.3      2.231      6.097
REMARK  3 active torsions:
REMARK  status: ('A' for Active; 'I' for Inactive)
REMARK    1  A    between atoms: C7_7  and  C8_8 
REMARK    2  A    between atoms: C12_13  and  N2_14 
REMARK    3  A    between atoms: N3_16  and  C14_17 
ROOT
HETATM    1  C8  UNL     1      22.236   0.193  52.265  1.00  0.00     0.043 C 
HETATM    2  C9  UNL     1      22.951   1.250  51.899  1.00  0.00     0.036 C 
HETATM    3  C10 UNL     1      24.323   0.834  52.155  1.00  0.00     0.184 A 
HETATM    4  C11 UNL     1      24.268  -0.097  53.272  1.00  0.00     0.134 A 
HETATM    5  N1  UNL     1      25.199  -0.145  54.202  1.00  0.00    -0.214 NA
HETATM    6  C12 UNL     1      26.318   0.761  54.168  1.00  0.00     0.139 A 
HETATM    7  C13 UNL     1      26.380   1.649  53.213  1.00  0.00     0.142 A 
HETATM    8  N3  UNL     1      25.374   1.781  52.190  1.00  0.00    -0.338 N 
HETATM    9  N4  UNL     1      22.971  -0.730  53.113  1.00  0.00    -0.342 N 
HETATM   10  H17 UNL     1      22.918  -1.626  53.629  1.00  0.00     0.167 HD
ENDROOT
BRANCH   1  11
HETATM   11  C7  UNL     1      20.794   0.022  52.202  1.00  0.00    -0.004 A 
HETATM   12  C2  UNL     1      19.854   0.286  51.250  1.00  0.00    -0.050 A 
HETATM   13  C1  UNL     1      20.349   0.982  50.036  1.00  0.00     0.049 C 
HETATM   14  C3  UNL     1      18.529   0.015  51.321  1.00  0.00     0.007 A 
HETATM   15  C4  UNL     1      18.014  -0.587  52.447  1.00  0.00     0.001 A 
HETATM   16  C5  UNL     1      18.879  -0.889  53.460  1.00  0.00     0.001 A 
HETATM   17  C6  UNL     1      20.213  -0.588  53.324  1.00  0.00     0.014 A 
ENDBRANCH   1  11
BRANCH   8  18
HETATM   18  C14 UNL     1      25.505   2.860  51.280  1.00  0.00     0.036 A 
HETATM   19  C15 UNL     1      26.419   2.884  50.247  1.00  0.00     0.030 A 
HETATM   20  C16 UNL     1      26.570   3.907  49.334  1.00  0.00     0.004 A 
HETATM   21  C17 UNL     1      25.746   5.009  49.448  1.00  0.00     0.019 A 
HETATM   22  C18 UNL     1      24.805   5.061  50.457  1.00  0.00     0.013 A 
HETATM   23 BR1  UNL     1      23.677   6.590  50.598  1.00  0.00    -0.051 Br
HETATM   24  C19 UNL     1      24.721   3.993  51.328  1.00  0.00     0.048 A 
ENDBRANCH   8  18
BRANCH   6  25
HETATM   25  N2  UNL     1      27.264   0.585  55.209  1.00  0.00    -0.383 N 
HETATM   26  H10 UNL     1      27.345   1.238  56.035  1.00  0.00     0.157 HD
HETATM   27  H11 UNL     1      27.910  -0.249  55.130  1.00  0.00     0.157 HD
ENDBRANCH   6  25
TORSDOF 3
ENDMDL
MODEL 7
REMARK VINA RESULT:      -8.3      2.728      5.920
REMARK  3 active torsions:
REMARK  status: ('A' for Active; 'I' for Inactive)
REMARK    1  A    between atoms: C7_7  and  C8_8 
REMARK    2  A    between atoms: C12_13  and  N2_14 
REMARK    3  A    between atoms: N3_16  and  C14_17 
ROOT
HETATM    1  C8  UNL     1      25.202   3.189  51.450  1.00  0.00     0.043 C 
HETATM    2  C9  UNL     1      24.325   2.243  51.764  1.00  0.00     0.036 C 
HETATM    3  C10 UNL     1      25.041   1.430  52.738  1.00  0.00     0.184 A 
HETATM    4  C11 UNL     1      26.451   1.520  52.391  1.00  0.00     0.134 A 
HETATM    5  N1  UNL     1      27.278   0.502  52.510  1.00  0.00    -0.214 NA
HETATM    6  C12 UNL     1      26.805  -0.778  52.969  1.00  0.00     0.139 A 
HETATM    7  C13 UNL     1      25.536  -0.920  53.240  1.00  0.00     0.142 A 
HETATM    8  N3  UNL     1      24.572   0.141  53.091  1.00  0.00    -0.338 N 
HETATM    9  N4  UNL     1      26.567   2.849  51.818  1.00  0.00    -0.342 N 
HETATM   10  H17 UNL     1      27.548   3.180  51.818  1.00  0.00     0.167 HD
ENDROOT
BRANCH   1  11
HETATM   11  C7  UNL     1      25.026   4.307  50.539  1.00  0.00    -0.004 A 
HETATM   12  C2  UNL     1      25.730   4.767  49.464  1.00  0.00    -0.050 A 
HETATM   13  C1  UNL     1      27.005   4.061  49.184  1.00  0.00     0.049 C 
HETATM   14  C3  UNL     1      25.402   5.812  48.667  1.00  0.00     0.007 A 
HETATM   15  C4  UNL     1      24.253   6.527  48.917  1.00  0.00     0.001 A 
HETATM   16  C5  UNL     1      23.480   6.143  49.976  1.00  0.00     0.001 A 
HETATM   17  C6  UNL     1      23.869   5.073  50.746  1.00  0.00     0.014 A 
ENDBRANCH   1  11
BRANCH   8  18
HETATM   18  C14 UNL     1      23.209  -0.179  53.310  1.00  0.00     0.036 A 
HETATM   19  C15 UNL     1      22.751  -0.865  54.416  1.00  0.00     0.030 A 
HETATM   20  C16 UNL     1      21.434  -1.185  54.673  1.00  0.00     0.004 A 
HETATM   21  C17 UNL     1      20.479  -0.793  53.756  1.00  0.00     0.019 A 
HETATM   22  C18 UNL     1      20.856  -0.102  52.622  1.00  0.00     0.013 A 
HETATM   23 BR1  UNL     1      19.524   0.429  51.369  1.00  0.00    -0.051 Br
HETATM   24  C19 UNL     1      22.197   0.177  52.444  1.00  0.00     0.048 A 
ENDBRANCH   8  18
BRANCH   6  25
HETATM   25  N2  UNL     1      27.801  -1.781  53.081  1.00  0.00    -0.383 N 
HETATM   26  H10 UNL     1      27.917  -2.391  53.935  1.00  0.00     0.157 HD
HETATM   27  H11 UNL     1      28.448  -1.903  52.253  1.00  0.00     0.157 HD
ENDBRANCH   6  25
TORSDOF 3
ENDMDL
MODEL 8
REMARK VINA RESULT:      -8.0      8.203     11.034
REMARK  3 active torsions:
REMARK  status: ('A' for Active; 'I' for Inactive)
REMARK    1  A    between atoms: C7_7  and  C8_8 
REMARK    2  A    between atoms: C12_13  and  N2_14 
REMARK    3  A    between atoms: N3_16  and  C14_17 
ROOT
HETATM    1  C8  UNL     1      27.818   6.544  48.661  1.00  0.00     0.043 C 
HETATM    2  C9  UNL     1      28.850   6.099  47.956  1.00  0.00     0.036 C 
HETATM    3  C10 UNL     1      29.955   6.930  48.415  1.00  0.00     0.184 A 
HETATM    4  C11 UNL     1      29.378   8.211  48.789  1.00  0.00     0.134 A 
HETATM    5  N1  UNL     1      29.994   9.356  48.579  1.00  0.00    -0.214 NA
HETATM    6  C12 UNL     1      31.279   9.390  47.930  1.00  0.00     0.139 A 
HETATM    7  C13 UNL     1      31.811   8.268  47.528  1.00  0.00     0.142 A 
HETATM    8  N3  UNL     1      31.170   6.986  47.690  1.00  0.00    -0.338 N 
HETATM    9  N4  UNL     1      28.047   7.854  49.248  1.00  0.00    -0.342 N 
HETATM   10  H17 UNL     1      27.634   8.599  49.837  1.00  0.00     0.167 HD
ENDROOT
BRANCH   1  11
HETATM   11  C7  UNL     1      26.447   6.063  48.644  1.00  0.00    -0.004 A 
HETATM   12  C2  UNL     1      25.843   4.921  49.082  1.00  0.00    -0.050 A 
HETATM   13  C1  UNL     1      26.755   3.878  49.615  1.00  0.00     0.049 C 
HETATM   14  C3  UNL     1      24.519   4.636  49.042  1.00  0.00     0.007 A 
HETATM   15  C4  UNL     1      23.640   5.553  48.513  1.00  0.00     0.001 A 
HETATM   16  C5  UNL     1      24.150   6.730  48.045  1.00  0.00     0.001 A 
HETATM   17  C6  UNL     1      25.504   6.958  48.116  1.00  0.00     0.014 A 
ENDBRANCH   1  11
BRANCH   8  18
HETATM   18  C14 UNL     1      31.804   5.861  47.107  1.00  0.00     0.036 A 
HETATM   19  C15 UNL     1      31.951   4.648  47.748  1.00  0.00     0.030 A 
HETATM   20  C16 UNL     1      32.550   3.526  47.213  1.00  0.00     0.004 A 
HETATM   21  C17 UNL     1      33.049   3.605  45.928  1.00  0.00     0.019 A 
HETATM   22  C18 UNL     1      32.941   4.784  45.220  1.00  0.00     0.013 A 
HETATM   23 BR1  UNL     1      33.637   4.874  43.449  1.00  0.00    -0.051 Br
HETATM   24  C19 UNL     1      32.328   5.859  45.832  1.00  0.00     0.048 A 
ENDBRANCH   8  18
BRANCH   6  25
HETATM   25  N2  UNL     1      31.848  10.681  47.791  1.00  0.00    -0.383 N 
HETATM   26  H10 UNL     1      32.450  10.965  46.971  1.00  0.00     0.157 HD
HETATM   27  H11 UNL     1      31.643  11.376  48.561  1.00  0.00     0.157 HD
ENDBRANCH   6  25
TORSDOF 3
ENDMDL
MODEL 9
REMARK VINA RESULT:      -7.9      2.614      6.401
REMARK  3 active torsions:
REMARK  status: ('A' for Active; 'I' for Inactive)
REMARK    1  A    between atoms: C7_7  and  C8_8 
REMARK    2  A    between atoms: C12_13  and  N2_14 
REMARK    3  A    between atoms: N3_16  and  C14_17 
ROOT
HETATM    1  C8  UNL     1      24.280   3.354  51.092  1.00  0.00     0.043 C 
HETATM    2  C9  UNL     1      23.662   2.284  51.575  1.00  0.00     0.036 C 
HETATM    3  C10 UNL     1      24.606   1.765  52.557  1.00  0.00     0.184 A 
HETATM    4  C11 UNL     1      25.933   2.121  52.079  1.00  0.00     0.134 A 
HETATM    5  N1  UNL     1      26.975   1.328  52.224  1.00  0.00    -0.214 NA
HETATM    6  C12 UNL     1      26.835   0.038  52.848  1.00  0.00     0.139 A 
HETATM    7  C13 UNL     1      25.652  -0.345  53.244  1.00  0.00     0.142 A 
HETATM    8  N3  UNL     1      24.465   0.456  53.077  1.00  0.00    -0.338 N 
HETATM    9  N4  UNL     1      25.707   3.367  51.368  1.00  0.00    -0.342 N 
HETATM   10  H17 UNL     1      26.585   3.901  51.247  1.00  0.00     0.167 HD
ENDROOT
BRANCH   1  11
HETATM   11  C7  UNL     1      23.796   4.293  50.093  1.00  0.00    -0.004 A 
HETATM   12  C2  UNL     1      23.768   5.655  50.015  1.00  0.00    -0.050 A 
HETATM   13  C1  UNL     1      24.238   6.376  51.225  1.00  0.00     0.049 C 
HETATM   14  C3  UNL     1      23.324   6.398  48.974  1.00  0.00     0.007 A 
HETATM   15  C4  UNL     1      22.835   5.775  47.849  1.00  0.00     0.001 A 
HETATM   16  C5  UNL     1      22.820   4.409  47.832  1.00  0.00     0.001 A 
HETATM   17  C6  UNL     1      23.286   3.713  48.922  1.00  0.00     0.014 A 
ENDBRANCH   1  11
BRANCH   8  18
HETATM   18  C14 UNL     1      23.227  -0.126  53.448  1.00  0.00     0.036 A 
HETATM   19  C15 UNL     1      23.080  -1.015  54.492  1.00  0.00     0.030 A 
HETATM   20  C16 UNL     1      21.894  -1.593  54.893  1.00  0.00     0.004 A 
HETATM   21  C17 UNL     1      20.744  -1.266  54.201  1.00  0.00     0.019 A 
HETATM   22  C18 UNL     1      20.807  -0.384  53.141  1.00  0.00     0.013 A 
HETATM   23 BR1  UNL     1      19.211   0.054  52.199  1.00  0.00    -0.051 Br
HETATM   24  C19 UNL     1      22.036   0.149  52.808  1.00  0.00     0.048 A 
ENDBRANCH   8  18
BRANCH   6  25
HETATM   25  N2  UNL     1      28.038  -0.703  52.969  1.00  0.00    -0.383 N 
HETATM   26  H10 UNL     1      28.949  -0.409  52.523  1.00  0.00     0.157 HD
HETATM   27  H11 UNL     1      27.993  -1.592  53.540  1.00  0.00     0.157 HD
ENDBRANCH   6  25
TORSDOF 3
ENDMDL
