MODEL 1
REMARK VINA RESULT:      -7.0      0.000      0.000
REMARK  3 active torsions:
REMARK  status: ('A' for Active; 'I' for Inactive)
REMARK    1  A    between atoms: C2_2  and  O1_3 
REMARK    2  A    between atoms: C2_2  and  C6_7 
REMARK    3  A    between atoms: O1_3  and  C3_4 
ROOT
HETATM    1  C6  UNL     1      23.190   1.174  52.514  1.00  0.00     0.063 C 
HETATM    2  N1  UNL     1      23.367   2.426  52.422  1.00  0.00    -0.272 NA
HETATM    3  C7  UNL     1      24.270   3.139  53.271  1.00  0.00     0.270 C 
HETATM    4  N2  UNL     1      24.114   4.597  52.985  1.00  0.00    -0.373 N 
HETATM    5  C8  UNL     1      23.627   4.444  51.606  1.00  0.00     0.040 A 
HETATM    6  C9  UNL     1      24.085   4.080  50.391  1.00  0.00     0.029 A 
HETATM    7  C10 UNL     1      23.162   4.075  49.226  1.00  0.00     0.019 A 
HETATM    8  C11 UNL     1      22.085   4.482  49.875  1.00  0.00     0.019 A 
HETATM    9  I1  UNL     1      20.390   4.647  48.628  1.00  0.00    -0.046 I 
HETATM   10  C12 UNL     1      22.170   4.805  51.295  1.00  0.00     0.213 A 
HETATM   11  O2  UNL     1      21.399   4.211  52.193  1.00  0.00    -0.350 OA
HETATM   12  C13 UNL     1      20.314   3.480  51.975  1.00  0.00     0.345 C 
HETATM   13  O3  UNL     1      20.433   2.296  51.202  1.00  0.00    -0.338 OA
HETATM   14  C14 UNL     1      19.863   1.100  51.668  1.00  0.00     0.134 C 
HETATM   15  C15 UNL     1      20.958   0.321  51.780  1.00  0.00     0.003 C 
HETATM   16  C16 UNL     1      22.240   0.914  51.408  1.00  0.00     0.090 C 
HETATM   17  H12 UNL     1      24.040   5.627  52.884  1.00  0.00     0.161 HD
ENDROOT
BRANCH   1  18
HETATM   18  C2  UNL     1      23.617  -0.013  53.275  1.00  0.00     0.071 C 
HETATM   19  C1  UNL     1      22.876  -0.620  54.185  1.00  0.00     0.073 C 
BRANCH  18  20
HETATM   20  O1  UNL     1      24.897  -0.282  52.807  1.00  0.00    -0.349 OA
BRANCH  20  21
HETATM   21  C3  UNL     1      25.905  -0.859  53.609  1.00  0.00     0.120 C 
HETATM   22  C4  UNL     1      27.000  -1.429  52.731  1.00  0.00     0.040 C 
HETATM   23  C5  UNL     1      26.489   0.302  54.425  1.00  0.00     0.040 C 
ENDBRANCH  20  21
ENDBRANCH  18  20
ENDBRANCH   1  18
TORSDOF 3
ENDMDL
MODEL 2
REMARK VINA RESULT:      -6.9      1.875      2.506
REMARK  3 active torsions:
REMARK  status: ('A' for Active; 'I' for Inactive)
REMARK    1  A    between atoms: C2_2  and  O1_3 
REMARK    2  A    between atoms: C2_2  and  C6_7 
REMARK    3  A    between atoms: O1_3  and  C3_4 
ROOT
HETATM    1  C6  UNL     1      24.182   1.416  52.304  1.00  0.00     0.063 C 
HETATM    2  N1  UNL     1      23.565   2.242  51.565  1.00  0.00    -0.272 NA
HETATM    3  C7  UNL     1      24.156   3.464  51.117  1.00  0.00     0.270 C 
HETATM    4  N2  UNL     1      23.105   4.246  50.400  1.00  0.00    -0.373 N 
HETATM    5  C8  UNL     1      22.282   3.093  50.005  1.00  0.00     0.040 A 
HETATM    6  C9  UNL     1      22.324   2.046  49.157  1.00  0.00     0.029 A 
HETATM    7  C10 UNL     1      21.191   1.085  49.115  1.00  0.00     0.019 A 
HETATM    8  C11 UNL     1      20.450   1.672  50.038  1.00  0.00     0.019 A 
HETATM    9  I1  UNL     1      18.632   0.662  50.397  1.00  0.00    -0.046 I 
HETATM   10  C12 UNL     1      20.904   2.915  50.653  1.00  0.00     0.213 A 
HETATM   11  O2  UNL     1      21.050   3.032  51.964  1.00  0.00    -0.350 OA
HETATM   12  C13 UNL     1      20.594   2.218  52.907  1.00  0.00     0.345 C 
HETATM   13  O3  UNL     1      21.034   0.869  52.916  1.00  0.00    -0.338 OA
HETATM   14  C14 UNL     1      21.488   0.293  54.114  1.00  0.00     0.134 C 
HETATM   15  C15 UNL     1      22.761  -0.010  53.785  1.00  0.00     0.003 C 
HETATM   16  C16 UNL     1      23.197   0.318  52.430  1.00  0.00     0.090 C 
HETATM   17  H12 UNL     1      22.430   4.875  49.926  1.00  0.00     0.161 HD
ENDROOT
BRANCH   1  18
HETATM   18  C2  UNL     1      25.468   1.197  52.990  1.00  0.00     0.071 C 
HETATM   19  C1  UNL     1      25.923   1.950  53.975  1.00  0.00     0.073 C 
BRANCH  18  20
HETATM   20  O1  UNL     1      26.008   0.082  52.363  1.00  0.00    -0.349 OA
BRANCH  20  21
HETATM   21  C3  UNL     1      26.697  -0.934  53.058  1.00  0.00     0.120 C 
HETATM   22  C4  UNL     1      26.682  -2.216  52.249  1.00  0.00     0.040 C 
HETATM   23  C5  UNL     1      28.147  -0.443  53.165  1.00  0.00     0.040 C 
ENDBRANCH  20  21
ENDBRANCH  18  20
ENDBRANCH   1  18
TORSDOF 3
ENDMDL
MODEL 3
REMARK VINA RESULT:      -6.9      1.679      2.517
REMARK  3 active torsions:
REMARK  status: ('A' for Active; 'I' for Inactive)
REMARK    1  A    between atoms: C2_2  and  O1_3 
REMARK    2  A    between atoms: C2_2  and  C6_7 
REMARK    3  A    between atoms: O1_3  and  C3_4 
ROOT
HETATM    1  C6  UNL     1      23.422   2.083  51.936  1.00  0.00     0.063 C 
HETATM    2  N1  UNL     1      23.482   3.350  51.933  1.00  0.00    -0.272 NA
HETATM    3  C7  UNL     1      23.886   4.104  53.078  1.00  0.00     0.270 C 
HETATM    4  N2  UNL     1      23.697   5.552  52.763  1.00  0.00    -0.373 N 
HETATM    5  C8  UNL     1      23.821   5.421  51.304  1.00  0.00     0.040 A 
HETATM    6  C9  UNL     1      24.763   5.167  50.374  1.00  0.00     0.029 A 
HETATM    7  C10 UNL     1      24.390   5.130  48.936  1.00  0.00     0.019 A 
HETATM    8  C11 UNL     1      23.105   5.396  49.098  1.00  0.00     0.019 A 
HETATM    9  I1  UNL     1      22.042   5.457  47.276  1.00  0.00    -0.046 I 
HETATM   10  C12 UNL     1      22.580   5.654  50.435  1.00  0.00     0.213 A 
HETATM   11  O2  UNL     1      21.585   4.942  50.943  1.00  0.00    -0.350 OA
HETATM   12  C13 UNL     1      20.766   4.120  50.301  1.00  0.00     0.345 C 
HETATM   13  O3  UNL     1      21.312   2.994  49.634  1.00  0.00    -0.338 OA
HETATM   14  C14 UNL     1      20.739   1.725  49.823  1.00  0.00     0.134 C 
HETATM   15  C15 UNL     1      21.778   1.053  50.361  1.00  0.00     0.003 C 
HETATM   16  C16 UNL     1      23.028   1.788  50.540  1.00  0.00     0.090 C 
HETATM   17  H12 UNL     1      23.556   6.573  52.648  1.00  0.00     0.161 HD
ENDROOT
BRANCH   1  18
HETATM   18  C2  UNL     1      23.637   0.906  52.797  1.00  0.00     0.071 C 
HETATM   19  C1  UNL     1      24.740   0.180  52.803  1.00  0.00     0.073 C 
BRANCH  18  20
HETATM   20  O1  UNL     1      22.461   0.793  53.527  1.00  0.00    -0.349 OA
BRANCH  20  21
HETATM   21  C3  UNL     1      21.756  -0.422  53.668  1.00  0.00     0.120 C 
HETATM   22  C4  UNL     1      22.086  -1.060  55.002  1.00  0.00     0.040 C 
HETATM   23  C5  UNL     1      20.271  -0.031  53.668  1.00  0.00     0.040 C 
ENDBRANCH  20  21
ENDBRANCH  18  20
ENDBRANCH   1  18
TORSDOF 3
ENDMDL
MODEL 4
REMARK VINA RESULT:      -6.7      2.820      4.392
REMARK  3 active torsions:
REMARK  status: ('A' for Active; 'I' for Inactive)
REMARK    1  A    between atoms: C2_2  and  O1_3 
REMARK    2  A    between atoms: C2_2  and  C6_7 
REMARK    3  A    between atoms: O1_3  and  C3_4 
ROOT
HETATM    1  C6  UNL     1      20.916   1.923  50.738  1.00  0.00     0.063 C 
HETATM    2  N1  UNL     1      21.491   2.914  51.284  1.00  0.00    -0.272 NA
HETATM    3  C7  UNL     1      20.836   3.752  52.238  1.00  0.00     0.270 C 
HETATM    4  N2  UNL     1      21.751   4.890  52.552  1.00  0.00    -0.373 N 
HETATM    5  C8  UNL     1      23.003   4.191  52.225  1.00  0.00     0.040 A 
HETATM    6  C9  UNL     1      23.783   3.205  52.710  1.00  0.00     0.029 A 
HETATM    7  C10 UNL     1      25.023   2.822  51.985  1.00  0.00     0.019 A 
HETATM    8  C11 UNL     1      24.907   3.694  50.999  1.00  0.00     0.019 A 
HETATM    9  I1  UNL     1      26.485   3.569  49.603  1.00  0.00    -0.046 I 
HETATM   10  C12 UNL     1      23.794   4.638  50.990  1.00  0.00     0.213 A 
HETATM   11  O2  UNL     1      22.953   4.716  49.970  1.00  0.00    -0.350 OA
HETATM   12  C13 UNL     1      23.100   4.200  48.757  1.00  0.00     0.345 C 
HETATM   13  O3  UNL     1      23.230   2.794  48.623  1.00  0.00    -0.338 OA
HETATM   14  C14 UNL     1      22.453   2.109  47.673  1.00  0.00     0.134 C 
HETATM   15  C15 UNL     1      21.745   1.282  48.469  1.00  0.00     0.003 C 
HETATM   16  C16 UNL     1      22.002   1.356  49.906  1.00  0.00     0.090 C 
HETATM   17  H12 UNL     1      22.301   5.736  52.796  1.00  0.00     0.161 HD
ENDROOT
BRANCH   1  18
HETATM   18  C2  UNL     1      19.638   1.192  50.697  1.00  0.00     0.071 C 
HETATM   19  C1  UNL     1      18.562   1.611  50.056  1.00  0.00     0.073 C 
BRANCH  18  20
HETATM   20  O1  UNL     1      19.868   0.050  51.453  1.00  0.00    -0.349 OA
BRANCH  20  21
HETATM   21  C3  UNL     1      19.573  -0.035  52.830  1.00  0.00     0.120 C 
HETATM   22  C4  UNL     1      18.452  -1.029  53.058  1.00  0.00     0.040 C 
HETATM   23  C5  UNL     1      20.849  -0.580  53.487  1.00  0.00     0.040 C 
ENDBRANCH  20  21
ENDBRANCH  18  20
ENDBRANCH   1  18
TORSDOF 3
ENDMDL
MODEL 5
REMARK VINA RESULT:      -6.7      2.193      3.705
REMARK  3 active torsions:
REMARK  status: ('A' for Active; 'I' for Inactive)
REMARK    1  A    between atoms: C2_2  and  O1_3 
REMARK    2  A    between atoms: C2_2  and  C6_7 
REMARK    3  A    between atoms: O1_3  and  C3_4 
ROOT
HETATM    1  C6  UNL     1      25.104   1.385  52.080  1.00  0.00     0.063 C 
HETATM    2  N1  UNL     1      23.857   1.502  51.882  1.00  0.00    -0.272 NA
HETATM    3  C7  UNL     1      22.932   0.448  52.157  1.00  0.00     0.270 C 
HETATM    4  N2  UNL     1      21.587   0.879  51.670  1.00  0.00    -0.373 N 
HETATM    5  C8  UNL     1      21.828   2.325  51.776  1.00  0.00     0.040 A 
HETATM    6  C9  UNL     1      21.978   3.273  52.724  1.00  0.00     0.029 A 
HETATM    7  C10 UNL     1      22.224   4.683  52.324  1.00  0.00     0.019 A 
HETATM    8  C11 UNL     1      22.206   4.484  51.018  1.00  0.00     0.019 A 
HETATM    9  I1  UNL     1      22.531   6.253  49.914  1.00  0.00    -0.046 I 
HETATM   10  C12 UNL     1      21.932   3.152  50.489  1.00  0.00     0.213 A 
HETATM   11  O2  UNL     1      22.776   2.537  49.674  1.00  0.00    -0.350 OA
HETATM   12  C13 UNL     1      23.802   3.066  49.021  1.00  0.00     0.345 C 
HETATM   13  O3  UNL     1      24.855   3.657  49.766  1.00  0.00    -0.338 OA
HETATM   14  C14 UNL     1      26.189   3.331  49.467  1.00  0.00     0.134 C 
HETATM   15  C15 UNL     1      26.586   2.786  50.635  1.00  0.00     0.003 C 
HETATM   16  C16 UNL     1      25.603   2.730  51.715  1.00  0.00     0.090 C 
HETATM   17  H12 UNL     1      20.630   1.076  51.321  1.00  0.00     0.161 HD
ENDROOT
BRANCH   1  18
HETATM   18  C2  UNL     1      26.127   0.436  52.554  1.00  0.00     0.071 C 
HETATM   19  C1  UNL     1      26.251  -0.804  52.116  1.00  0.00     0.073 C 
BRANCH  18  20
HETATM   20  O1  UNL     1      26.849   1.151  53.501  1.00  0.00    -0.349 OA
BRANCH  20  21
HETATM   21  C3  UNL     1      28.257   1.100  53.595  1.00  0.00     0.120 C 
HETATM   22  C4  UNL     1      28.815   2.499  53.756  1.00  0.00     0.040 C 
HETATM   23  C5  UNL     1      28.549   0.308  54.877  1.00  0.00     0.040 C 
ENDBRANCH  20  21
ENDBRANCH  18  20
ENDBRANCH   1  18
TORSDOF 3
ENDMDL
MODEL 6
REMARK VINA RESULT:      -6.6      7.634      9.206
REMARK  3 active torsions:
REMARK  status: ('A' for Active; 'I' for Inactive)
REMARK    1  A    between atoms: C2_2  and  O1_3 
REMARK    2  A    between atoms: C2_2  and  C6_7 
REMARK    3  A    between atoms: O1_3  and  C3_4 
ROOT
HETATM    1  C6  UNL     1      30.185   7.045  48.528  1.00  0.00     0.063 C 
HETATM    2  N1  UNL     1      29.678   8.198  48.677  1.00  0.00    -0.272 NA
HETATM    3  C7  UNL     1      30.359   9.257  49.352  1.00  0.00     0.270 C 
HETATM    4  N2  UNL     1      29.416  10.409  49.468  1.00  0.00    -0.373 N 
HETATM    5  C8  UNL     1      28.587  10.063  48.304  1.00  0.00     0.040 A 
HETATM    6  C9  UNL     1      28.667  10.043  46.959  1.00  0.00     0.029 A 
HETATM    7  C10 UNL     1      27.504   9.579  46.158  1.00  0.00     0.019 A 
HETATM    8  C11 UNL     1      26.702   9.320  47.176  1.00  0.00     0.019 A 
HETATM    9  I1  UNL     1      24.818   8.587  46.572  1.00  0.00    -0.046 I 
HETATM   10  C12 UNL     1      27.147   9.592  48.539  1.00  0.00     0.213 A 
HETATM   11  O2  UNL     1      27.170   8.648  49.467  1.00  0.00    -0.350 OA
HETATM   12  C13 UNL     1      26.592   7.455  49.425  1.00  0.00     0.345 C 
HETATM   13  O3  UNL     1      26.973   6.547  48.403  1.00  0.00    -0.338 OA
HETATM   14  C14 UNL     1      27.285   5.218  48.733  1.00  0.00     0.134 C 
HETATM   15  C15 UNL     1      28.570   5.149  48.328  1.00  0.00     0.003 C 
HETATM   16  C16 UNL     1      29.148   6.351  47.732  1.00  0.00     0.090 C 
HETATM   17  H12 UNL     1      28.816  11.240  49.633  1.00  0.00     0.161 HD
ENDROOT
BRANCH   1  18
HETATM   18  C2  UNL     1      31.388   6.251  48.833  1.00  0.00     0.071 C 
HETATM   19  C1  UNL     1      31.815   5.986  50.054  1.00  0.00     0.073 C 
BRANCH  18  20
HETATM   20  O1  UNL     1      31.894   5.899  47.588  1.00  0.00    -0.349 OA
BRANCH  20  21
HETATM   21  C3  UNL     1      32.693   4.755  47.377  1.00  0.00     0.120 C 
HETATM   22  C4  UNL     1      31.860   3.649  46.760  1.00  0.00     0.040 C 
HETATM   23  C5  UNL     1      33.760   5.187  46.361  1.00  0.00     0.040 C 
ENDBRANCH  20  21
ENDBRANCH  18  20
ENDBRANCH   1  18
TORSDOF 3
ENDMDL
MODEL 7
REMARK VINA RESULT:      -6.5     10.161     11.883
REMARK  3 active torsions:
REMARK  status: ('A' for Active; 'I' for Inactive)
REMARK    1  A    between atoms: C2_2  and  O1_3 
REMARK    2  A    between atoms: C2_2  and  C6_7 
REMARK    3  A    between atoms: O1_3  and  C3_4 
ROOT
HETATM    1  C6  UNL     1      33.110   6.829  47.907  1.00  0.00     0.063 C 
HETATM    2  N1  UNL     1      31.910   7.115  48.202  1.00  0.00    -0.272 NA
HETATM    3  C7  UNL     1      31.097   6.270  49.018  1.00  0.00     0.270 C 
HETATM    4  N2  UNL     1      29.715   6.839  49.032  1.00  0.00    -0.373 N 
HETATM    5  C8  UNL     1      30.106   8.229  48.756  1.00  0.00     0.040 A 
HETATM    6  C9  UNL     1      30.721   9.261  49.366  1.00  0.00     0.029 A 
HETATM    7  C10 UNL     1      30.902  10.546  48.640  1.00  0.00     0.019 A 
HETATM    8  C11 UNL     1      30.320  10.175  47.513  1.00  0.00     0.019 A 
HETATM    9  I1  UNL     1      30.308  11.700  46.054  1.00  0.00    -0.046 I 
HETATM   10  C12 UNL     1      29.734   8.843  47.402  1.00  0.00     0.213 A 
HETATM   11  O2  UNL     1      30.100   7.996  46.452  1.00  0.00    -0.350 OA
HETATM   12  C13 UNL     1      30.801   8.259  45.357  1.00  0.00     0.345 C 
HETATM   13  O3  UNL     1      32.117   8.772  45.494  1.00  0.00    -0.338 OA
HETATM   14  C14 UNL     1      33.168   8.199  44.759  1.00  0.00     0.134 C 
HETATM   15  C15 UNL     1      33.968   7.763  45.754  1.00  0.00     0.003 C 
HETATM   16  C16 UNL     1      33.527   8.014  47.124  1.00  0.00     0.090 C 
HETATM   17  H12 UNL     1      28.722   7.136  49.062  1.00  0.00     0.161 HD
ENDROOT
BRANCH   1  18
HETATM   18  C2  UNL     1      34.149   5.803  48.107  1.00  0.00     0.071 C 
HETATM   19  C1  UNL     1      35.253   5.989  48.806  1.00  0.00     0.073 C 
BRANCH  18  20
HETATM   20  O1  UNL     1      33.677   4.694  47.416  1.00  0.00    -0.349 OA
BRANCH  20  21
HETATM   21  C3  UNL     1      34.302   3.430  47.470  1.00  0.00     0.120 C 
HETATM   22  C4  UNL     1      33.256   2.342  47.601  1.00  0.00     0.040 C 
HETATM   23  C5  UNL     1      35.006   3.268  46.116  1.00  0.00     0.040 C 
ENDBRANCH  20  21
ENDBRANCH  18  20
ENDBRANCH   1  18
TORSDOF 3
ENDMDL
MODEL 8
REMARK VINA RESULT:      -6.4      2.331      4.089
REMARK  3 active torsions:
REMARK  status: ('A' for Active; 'I' for Inactive)
REMARK    1  A    between atoms: C2_2  and  O1_3 
REMARK    2  A    between atoms: C2_2  and  C6_7 
REMARK    3  A    between atoms: O1_3  and  C3_4 
ROOT
HETATM    1  C6  UNL     1      23.915   1.332  52.319  1.00  0.00     0.063 C 
HETATM    2  N1  UNL     1      23.236   1.861  51.388  1.00  0.00    -0.272 NA
HETATM    3  C7  UNL     1      22.137   1.194  50.764  1.00  0.00     0.270 C 
HETATM    4  N2  UNL     1      21.673   2.043  49.625  1.00  0.00    -0.373 N 
HETATM    5  C8  UNL     1      22.152   3.323  50.167  1.00  0.00     0.040 A 
HETATM    6  C9  UNL     1      21.860   4.191  51.156  1.00  0.00     0.029 A 
HETATM    7  C10 UNL     1      22.678   5.419  51.325  1.00  0.00     0.019 A 
HETATM    8  C11 UNL     1      23.506   5.199  50.318  1.00  0.00     0.019 A 
HETATM    9  I1  UNL     1      24.956   6.717  50.100  1.00  0.00    -0.046 I 
HETATM   10  C12 UNL     1      23.324   4.025  49.471  1.00  0.00     0.213 A 
HETATM   11  O2  UNL     1      24.289   3.135  49.295  1.00  0.00    -0.350 OA
HETATM   12  C13 UNL     1      25.574   3.262  49.599  1.00  0.00     0.345 C 
HETATM   13  O3  UNL     1      25.938   3.481  50.952  1.00  0.00    -0.338 OA
HETATM   14  C14 UNL     1      26.960   2.712  51.533  1.00  0.00     0.134 C 
HETATM   15  C15 UNL     1      26.285   2.099  52.527  1.00  0.00     0.003 C 
HETATM   16  C16 UNL     1      24.865   2.415  52.663  1.00  0.00     0.090 C 
HETATM   17  H12 UNL     1      21.314   2.543  48.790  1.00  0.00     0.161 HD
ENDROOT
BRANCH   1  18
HETATM   18  C2  UNL     1      24.031   0.105  53.128  1.00  0.00     0.071 C 
HETATM   19  C1  UNL     1      24.988  -0.793  52.985  1.00  0.00     0.073 C 
BRANCH  18  20
HETATM   20  O1  UNL     1      22.949   0.162  53.998  1.00  0.00    -0.349 OA
BRANCH  20  21
HETATM   21  C3  UNL     1      21.737  -0.521  53.765  1.00  0.00     0.120 C 
HETATM   22  C4  UNL     1      21.653  -1.744  54.657  1.00  0.00     0.040 C 
HETATM   23  C5  UNL     1      20.632   0.460  54.178  1.00  0.00     0.040 C 
ENDBRANCH  20  21
ENDBRANCH  18  20
ENDBRANCH   1  18
TORSDOF 3
ENDMDL
MODEL 9
REMARK VINA RESULT:      -6.4      1.800      3.595
REMARK  3 active torsions:
REMARK  status: ('A' for Active; 'I' for Inactive)
REMARK    1  A    between atoms: C2_2  and  O1_3 
REMARK    2  A    between atoms: C2_2  and  C6_7 
REMARK    3  A    between atoms: O1_3  and  C3_4 
ROOT
HETATM    1  C6  UNL     1      24.355   1.590  52.549  1.00  0.00     0.063 C 
HETATM    2  N1  UNL     1      23.242   0.983  52.487  1.00  0.00    -0.272 NA
HETATM    3  C7  UNL     1      23.036  -0.306  53.070  1.00  0.00     0.270 C 
HETATM    4  N2  UNL     1      21.672  -0.772  52.679  1.00  0.00    -0.373 N 
HETATM    5  C8  UNL     1      21.091   0.564  52.480  1.00  0.00     0.040 A 
HETATM    6  C9  UNL     1      20.705   1.633  53.205  1.00  0.00     0.029 A 
HETATM    7  C10 UNL     1      20.148   2.827  52.518  1.00  0.00     0.019 A 
HETATM    8  C11 UNL     1      20.238   2.359  51.285  1.00  0.00     0.019 A 
HETATM    9  I1  UNL     1      19.552   3.730  49.835  1.00  0.00    -0.046 I 
HETATM   10  C12 UNL     1      20.729   1.004  51.057  1.00  0.00     0.213 A 
HETATM   11  O2  UNL     1      21.770   0.762  50.275  1.00  0.00    -0.350 OA
HETATM   12  C13 UNL     1      22.346   1.588  49.411  1.00  0.00     0.345 C 
HETATM   13  O3  UNL     1      22.911   2.796  49.895  1.00  0.00    -0.338 OA
HETATM   14  C14 UNL     1      24.208   3.165  49.501  1.00  0.00     0.134 C 
HETATM   15  C15 UNL     1      24.839   3.192  50.693  1.00  0.00     0.003 C 
HETATM   16  C16 UNL     1      24.045   2.872  51.876  1.00  0.00     0.090 C 
HETATM   17  H12 UNL     1      20.760  -1.194  52.421  1.00  0.00     0.161 HD
ENDROOT
BRANCH   1  18
HETATM   18  C2  UNL     1      25.729   1.459  53.064  1.00  0.00     0.071 C 
HETATM   19  C1  UNL     1      26.269   2.268  53.956  1.00  0.00     0.073 C 
BRANCH  18  20
HETATM   20  O1  UNL     1      26.241   0.349  52.403  1.00  0.00    -0.349 OA
BRANCH  20  21
HETATM   21  C3  UNL     1      26.790  -0.762  53.078  1.00  0.00     0.120 C 
HETATM   22  C4  UNL     1      26.626  -2.011  52.235  1.00  0.00     0.040 C 
HETATM   23  C5  UNL     1      28.289  -0.457  53.209  1.00  0.00     0.040 C 
ENDBRANCH  20  21
ENDBRANCH  18  20
ENDBRANCH   1  18
TORSDOF 3
ENDMDL
