MODEL 1
REMARK VINA RESULT:      -6.9      0.000      0.000
REMARK  3 active torsions:
REMARK  status: ('A' for Active; 'I' for Inactive)
REMARK    1  A    between atoms: O1_2  and  C2_3 
REMARK    2  A    between atoms: N3_10  and  C7_11 
REMARK    3  A    between atoms: C13_18  and  O2_19 
ROOT
HETATM    1  C2  UNL     1      23.927   0.533  52.968  1.00  0.00     0.131 C 
HETATM    2  C3  UNL     1      25.067   0.656  53.600  1.00  0.00     0.079 C 
HETATM    3  C4  UNL     1      25.978   0.029  54.535  1.00  0.00     0.099 C 
HETATM    4  N1  UNL     1      26.983   0.894  54.612  1.00  0.00    -0.258 NA
HETATM    5  C5  UNL     1      26.855   2.089  53.800  1.00  0.00     0.227 C 
HETATM    6  N2  UNL     1      26.862   1.473  52.670  1.00  0.00    -0.264 NA
HETATM    7  C6  UNL     1      26.757   2.072  51.384  1.00  0.00     0.270 C 
HETATM    8  N3  UNL     1      25.602   2.861  51.199  1.00  0.00    -0.382 N 
HETATM    9  C12 UNL     1      24.502   2.835  52.033  1.00  0.00     0.154 C 
HETATM   10  C13 UNL     1      23.604   1.652  52.107  1.00  0.00     0.176 C 
ENDROOT
BRANCH   8  11
HETATM   11  C7  UNL     1      25.529   3.398  49.903  1.00  0.00     0.128 A 
HETATM   12  C8  UNL     1      24.718   4.639  49.790  1.00  0.00     0.003 A 
HETATM   13  C9  UNL     1      25.422   5.629  49.263  1.00  0.00     0.017 A 
HETATM   14  C10 UNL     1      26.768   5.144  48.975  1.00  0.00     0.009 A 
HETATM   15 BR1  UNL     1      28.177   6.173  48.210  1.00  0.00    -0.051 Br
HETATM   16  C11 UNL     1      26.835   3.865  49.340  1.00  0.00     0.021 A 
ENDBRANCH   8  11
BRANCH  10  17
HETATM   17  O2  UNL     1      23.080   1.317  50.853  1.00  0.00    -0.386 OA
HETATM   18  C14 UNL     1      22.031   2.112  50.447  1.00  0.00     0.202 C 
ENDBRANCH  10  17
BRANCH   1  19
HETATM   19  O1  UNL     1      22.800  -0.338  52.788  1.00  0.00    -0.378 OA
HETATM   20  C1  UNL     1      22.229  -0.937  53.948  1.00  0.00     0.202 C 
ENDBRANCH   1  19
TORSDOF 3
ENDMDL
MODEL 2
REMARK VINA RESULT:      -6.8      3.061      4.546
REMARK  3 active torsions:
REMARK  status: ('A' for Active; 'I' for Inactive)
REMARK    1  A    between atoms: O1_2  and  C2_3 
REMARK    2  A    between atoms: N3_10  and  C7_11 
REMARK    3  A    between atoms: C13_18  and  O2_19 
ROOT
HETATM    1  C2  UNL     1      21.294   0.308  52.047  1.00  0.00     0.131 C 
HETATM    2  C3  UNL     1      21.347  -0.391  53.153  1.00  0.00     0.079 C 
HETATM    3  C4  UNL     1      20.701  -1.427  53.932  1.00  0.00     0.099 C 
HETATM    4  N1  UNL     1      21.488  -1.547  54.995  1.00  0.00    -0.258 NA
HETATM    5  C5  UNL     1      22.645  -0.673  55.030  1.00  0.00     0.227 C 
HETATM    6  N2  UNL     1      23.206  -1.169  53.983  1.00  0.00    -0.264 NA
HETATM    7  C6  UNL     1      24.441  -0.751  53.412  1.00  0.00     0.270 C 
HETATM    8  N3  UNL     1      24.492   0.616  53.065  1.00  0.00    -0.382 N 
HETATM    9  C12 UNL     1      23.385   1.435  52.976  1.00  0.00     0.154 C 
HETATM   10  C13 UNL     1      22.370   1.267  51.901  1.00  0.00     0.176 C 
ENDROOT
BRANCH   8  11
HETATM   11  C7  UNL     1      25.716   0.966  52.472  1.00  0.00     0.128 A 
HETATM   12  C8  UNL     1      26.353   2.185  53.038  1.00  0.00     0.003 A 
HETATM   13  C9  UNL     1      27.581   1.933  53.466  1.00  0.00     0.017 A 
HETATM   14  C10 UNL     1      27.881   0.525  53.226  1.00  0.00     0.009 A 
HETATM   15 BR1  UNL     1      29.517  -0.349  53.658  1.00  0.00    -0.051 Br
HETATM   16  C11 UNL     1      26.814  -0.034  52.657  1.00  0.00     0.021 A 
ENDBRANCH   8  11
BRANCH  10  17
HETATM   17  O2  UNL     1      22.944   1.341  50.627  1.00  0.00    -0.386 OA
HETATM   18  C14 UNL     1      23.273   2.617  50.227  1.00  0.00     0.202 C 
ENDBRANCH  10  17
BRANCH   1  19
HETATM   19  O1  UNL     1      20.533   0.506  50.846  1.00  0.00    -0.378 OA
HETATM   20  C1  UNL     1      19.173   0.911  50.979  1.00  0.00     0.202 C 
ENDBRANCH   1  19
TORSDOF 3
ENDMDL
MODEL 3
REMARK VINA RESULT:      -6.4      3.452      6.020
REMARK  3 active torsions:
REMARK  status: ('A' for Active; 'I' for Inactive)
REMARK    1  A    between atoms: O1_2  and  C2_3 
REMARK    2  A    between atoms: N3_10  and  C7_11 
REMARK    3  A    between atoms: C13_18  and  O2_19 
ROOT
HETATM    1  C2  UNL     1      26.351   2.305  51.896  1.00  0.00     0.131 C 
HETATM    2  C3  UNL     1      25.770   3.165  51.097  1.00  0.00     0.079 C 
HETATM    3  C4  UNL     1      25.978   4.103  50.013  1.00  0.00     0.099 C 
HETATM    4  N1  UNL     1      24.757   4.570  49.774  1.00  0.00    -0.258 NA
HETATM    5  C5  UNL     1      23.698   4.034  50.607  1.00  0.00     0.227 C 
HETATM    6  N2  UNL     1      23.816   2.821  50.195  1.00  0.00    -0.264 NA
HETATM    7  C6  UNL     1      23.046   1.706  50.628  1.00  0.00     0.270 C 
HETATM    8  N3  UNL     1      23.088   1.471  52.019  1.00  0.00    -0.382 N 
HETATM    9  C12 UNL     1      24.011   2.039  52.874  1.00  0.00     0.154 C 
HETATM   10  C13 UNL     1      25.450   1.667  52.833  1.00  0.00     0.176 C 
ENDROOT
BRANCH   8  11
HETATM   11  C7  UNL     1      22.343   0.339  52.387  1.00  0.00     0.128 A 
HETATM   12  C8  UNL     1      21.835   0.358  53.784  1.00  0.00     0.003 A 
HETATM   13  C9  UNL     1      20.520   0.209  53.822  1.00  0.00     0.017 A 
HETATM   14  C10 UNL     1      20.025   0.076  52.455  1.00  0.00     0.009 A 
HETATM   15 BR1  UNL     1      18.203  -0.160  51.954  1.00  0.00    -0.051 Br
HETATM   16  C11 UNL     1      21.067   0.150  51.628  1.00  0.00     0.021 A 
ENDBRANCH   8  11
BRANCH  10  17
HETATM   17  O2  UNL     1      25.636   0.290  53.008  1.00  0.00    -0.386 OA
HETATM   18  C14 UNL     1      25.553  -0.131  54.316  1.00  0.00     0.202 C 
ENDBRANCH  10  17
BRANCH   1  19
HETATM   19  O1  UNL     1      27.616   1.713  52.225  1.00  0.00    -0.378 OA
HETATM   20  C1  UNL     1      28.373   2.301  53.279  1.00  0.00     0.202 C 
ENDBRANCH   1  19
TORSDOF 3
ENDMDL
MODEL 4
REMARK VINA RESULT:      -6.3      2.923      5.415
REMARK  3 active torsions:
REMARK  status: ('A' for Active; 'I' for Inactive)
REMARK    1  A    between atoms: O1_2  and  C2_3 
REMARK    2  A    between atoms: N3_10  and  C7_11 
REMARK    3  A    between atoms: C13_18  and  O2_19 
ROOT
HETATM    1  C2  UNL     1      23.148   1.948  50.991  1.00  0.00     0.131 C 
HETATM    2  C3  UNL     1      22.041   1.467  51.500  1.00  0.00     0.079 C 
HETATM    3  C4  UNL     1      20.644   1.185  51.246  1.00  0.00     0.099 C 
HETATM    4  N1  UNL     1      20.230   0.637  52.384  1.00  0.00    -0.258 NA
HETATM    5  C5  UNL     1      21.228   0.510  53.427  1.00  0.00     0.227 C 
HETATM    6  N2  UNL     1      21.987  -0.301  52.775  1.00  0.00    -0.264 NA
HETATM    7  C6  UNL     1      23.214  -0.857  53.231  1.00  0.00     0.270 C 
HETATM    8  N3  UNL     1      24.183   0.097  53.609  1.00  0.00    -0.382 N 
HETATM    9  C12 UNL     1      24.115   1.439  53.295  1.00  0.00     0.154 C 
HETATM   10  C13 UNL     1      24.276   1.926  51.898  1.00  0.00     0.176 C 
ENDROOT
BRANCH   8  11
HETATM   11  C7  UNL     1      25.387  -0.503  54.015  1.00  0.00     0.128 A 
HETATM   12  C8  UNL     1      26.157  -1.151  52.921  1.00  0.00     0.003 A 
HETATM   13  C9  UNL     1      27.389  -0.668  52.846  1.00  0.00     0.017 A 
HETATM   14  C10 UNL     1      27.557   0.346  53.882  1.00  0.00     0.009 A 
HETATM   15 BR1  UNL     1      29.145   1.348  54.205  1.00  0.00    -0.051 Br
HETATM   16  C11 UNL     1      26.411   0.445  54.555  1.00  0.00     0.021 A 
ENDBRANCH   8  11
BRANCH  10  17
HETATM   17  O2  UNL     1      25.492   1.513  51.341  1.00  0.00    -0.386 OA
HETATM   18  C14 UNL     1      26.458   2.493  51.301  1.00  0.00     0.202 C 
ENDBRANCH  10  17
BRANCH   1  19
HETATM   19  O1  UNL     1      23.711   2.527  49.804  1.00  0.00    -0.378 OA
HETATM   20  C1  UNL     1      22.950   3.519  49.121  1.00  0.00     0.202 C 
ENDBRANCH   1  19
TORSDOF 3
ENDMDL
MODEL 5
REMARK VINA RESULT:      -6.2      2.420      3.630
REMARK  3 active torsions:
REMARK  status: ('A' for Active; 'I' for Inactive)
REMARK    1  A    between atoms: O1_2  and  C2_3 
REMARK    2  A    between atoms: N3_10  and  C7_11 
REMARK    3  A    between atoms: C13_18  and  O2_19 
ROOT
HETATM    1  C2  UNL     1      24.726  -0.464  54.153  1.00  0.00     0.131 C 
HETATM    2  C3  UNL     1      23.483  -0.461  53.739  1.00  0.00     0.079 C 
HETATM    3  C4  UNL     1      22.130  -0.873  54.048  1.00  0.00     0.099 C 
HETATM    4  N1  UNL     1      21.426  -0.411  53.022  1.00  0.00    -0.258 NA
HETATM    5  C5  UNL     1      22.178   0.300  52.006  1.00  0.00     0.227 C 
HETATM    6  N2  UNL     1      22.553   1.260  52.777  1.00  0.00    -0.264 NA
HETATM    7  C6  UNL     1      23.369   2.366  52.409  1.00  0.00     0.270 C 
HETATM    8  N3  UNL     1      24.624   2.013  51.870  1.00  0.00    -0.382 N 
HETATM    9  C12 UNL     1      25.179   0.752  51.957  1.00  0.00     0.154 C 
HETATM   10  C13 UNL     1      25.651   0.192  53.252  1.00  0.00     0.176 C 
ENDROOT
BRANCH   8  11
HETATM   11  C7  UNL     1      25.403   3.140  51.559  1.00  0.00     0.128 A 
HETATM   12  C8  UNL     1      26.445   2.907  50.525  1.00  0.00     0.003 A 
HETATM   13  C9  UNL     1      26.315   3.750  49.511  1.00  0.00     0.017 A 
HETATM   14  C10 UNL     1      25.175   4.623  49.772  1.00  0.00     0.009 A 
HETATM   15 BR1  UNL     1      24.558   6.012  48.624  1.00  0.00    -0.051 Br
HETATM   16  C11 UNL     1      24.648   4.277  50.946  1.00  0.00     0.021 A 
ENDBRANCH   8  11
BRANCH  10  17
HETATM   17  O2  UNL     1      26.602   1.019  53.860  1.00  0.00    -0.386 OA
HETATM   18  C14 UNL     1      27.867   0.915  53.327  1.00  0.00     0.202 C 
ENDBRANCH  10  17
BRANCH   1  19
HETATM   19  O1  UNL     1      25.581  -0.895  55.222  1.00  0.00    -0.378 OA
HETATM   20  C1  UNL     1      25.012  -1.017  56.522  1.00  0.00     0.202 C 
ENDBRANCH   1  19
TORSDOF 3
ENDMDL
MODEL 6
REMARK VINA RESULT:      -6.0      2.185      3.623
REMARK  3 active torsions:
REMARK  status: ('A' for Active; 'I' for Inactive)
REMARK    1  A    between atoms: O1_2  and  C2_3 
REMARK    2  A    between atoms: N3_10  and  C7_11 
REMARK    3  A    between atoms: C13_18  and  O2_19 
ROOT
HETATM    1  C2  UNL     1      22.781   0.466  53.138  1.00  0.00     0.131 C 
HETATM    2  C3  UNL     1      21.705   1.115  52.768  1.00  0.00     0.079 C 
HETATM    3  C4  UNL     1      20.299   1.330  53.039  1.00  0.00     0.099 C 
HETATM    4  N1  UNL     1      19.946   2.233  52.131  1.00  0.00    -0.258 NA
HETATM    5  C5  UNL     1      20.996   2.676  51.236  1.00  0.00     0.227 C 
HETATM    6  N2  UNL     1      21.728   3.206  52.153  1.00  0.00    -0.264 NA
HETATM    7  C6  UNL     1      22.980   3.853  51.962  1.00  0.00     0.270 C 
HETATM    8  N3  UNL     1      23.960   3.056  51.332  1.00  0.00    -0.382 N 
HETATM    9  C12 UNL     1      23.866   1.687  51.180  1.00  0.00     0.154 C 
HETATM   10  C13 UNL     1      23.953   0.762  52.341  1.00  0.00     0.176 C 
ENDROOT
BRANCH   8  11
HETATM   11  C7  UNL     1      25.187   3.728  51.203  1.00  0.00     0.128 A 
HETATM   12  C8  UNL     1      26.168   3.060  50.309  1.00  0.00     0.003 A 
HETATM   13  C9  UNL     1      26.570   3.871  49.341  1.00  0.00     0.017 A 
HETATM   14  C10 UNL     1      25.894   5.155  49.497  1.00  0.00     0.009 A 
HETATM   15 BR1  UNL     1      26.119   6.671  48.365  1.00  0.00    -0.051 Br
HETATM   16  C11 UNL     1      25.100   5.078  50.564  1.00  0.00     0.021 A 
ENDBRANCH   8  11
BRANCH  10  17
HETATM   17  O2  UNL     1      25.143   0.937  53.057  1.00  0.00    -0.386 OA
HETATM   18  C14 UNL     1      26.206   0.206  52.577  1.00  0.00     0.202 C 
ENDBRANCH  10  17
BRANCH   1  19
HETATM   19  O1  UNL     1      23.280  -0.486  54.089  1.00  0.00    -0.378 OA
HETATM   20  C1  UNL     1      22.339  -1.129  54.944  1.00  0.00     0.202 C 
ENDBRANCH   1  19
TORSDOF 3
ENDMDL
MODEL 7
REMARK VINA RESULT:      -5.9      3.507      5.002
REMARK  3 active torsions:
REMARK  status: ('A' for Active; 'I' for Inactive)
REMARK    1  A    between atoms: O1_2  and  C2_3 
REMARK    2  A    between atoms: N3_10  and  C7_11 
REMARK    3  A    between atoms: C13_18  and  O2_19 
ROOT
HETATM    1  C2  UNL     1      23.981   0.294  53.298  1.00  0.00     0.131 C 
HETATM    2  C3  UNL     1      23.338  -0.546  54.070  1.00  0.00     0.079 C 
HETATM    3  C4  UNL     1      23.426  -1.370  55.257  1.00  0.00     0.099 C 
HETATM    4  N1  UNL     1      22.220  -1.921  55.338  1.00  0.00    -0.258 NA
HETATM    5  C5  UNL     1      21.282  -1.551  54.297  1.00  0.00     0.227 C 
HETATM    6  N2  UNL     1      21.239  -0.302  54.607  1.00  0.00    -0.264 NA
HETATM    7  C6  UNL     1      20.474   0.702  53.951  1.00  0.00     0.270 C 
HETATM    8  N3  UNL     1      20.734   0.826  52.569  1.00  0.00    -0.382 N 
HETATM    9  C12 UNL     1      21.827   0.273  51.933  1.00  0.00     0.154 C 
HETATM   10  C13 UNL     1      23.208   0.772  52.170  1.00  0.00     0.176 C 
ENDROOT
BRANCH   8  11
HETATM   11  C7  UNL     1      19.982   1.855  51.979  1.00  0.00     0.128 A 
HETATM   12  C8  UNL     1      20.340   3.225  52.433  1.00  0.00     0.003 A 
HETATM   13  C9  UNL     1      20.662   4.004  51.412  1.00  0.00     0.017 A 
HETATM   14  C10 UNL     1      20.551   3.229  50.180  1.00  0.00     0.009 A 
HETATM   15 BR1  UNL     1      20.904   3.881  48.425  1.00  0.00    -0.051 Br
HETATM   16  C11 UNL     1      20.161   1.996  50.499  1.00  0.00     0.021 A 
ENDBRANCH   8  11
BRANCH  10  17
HETATM   17  O2  UNL     1      23.320   2.141  51.899  1.00  0.00    -0.386 OA
HETATM   18  C14 UNL     1      23.910   2.432  50.689  1.00  0.00     0.202 C 
ENDBRANCH  10  17
BRANCH   1  19
HETATM   19  O1  UNL     1      25.237   0.966  53.124  1.00  0.00    -0.378 OA
HETATM   20  C1  UNL     1      26.323   0.219  52.582  1.00  0.00     0.202 C 
ENDBRANCH   1  19
TORSDOF 3
ENDMDL
MODEL 8
REMARK VINA RESULT:      -5.9      3.777      6.587
REMARK  3 active torsions:
REMARK  status: ('A' for Active; 'I' for Inactive)
REMARK    1  A    between atoms: O1_2  and  C2_3 
REMARK    2  A    between atoms: N3_10  and  C7_11 
REMARK    3  A    between atoms: C13_18  and  O2_19 
ROOT
HETATM    1  C2  UNL     1      25.014   3.546  51.134  1.00  0.00     0.131 C 
HETATM    2  C3  UNL     1      24.019   4.391  51.028  1.00  0.00     0.079 C 
HETATM    3  C4  UNL     1      23.560   5.607  50.390  1.00  0.00     0.099 C 
HETATM    4  N1  UNL     1      22.329   5.757  50.866  1.00  0.00    -0.258 NA
HETATM    5  C5  UNL     1      21.879   4.739  51.795  1.00  0.00     0.227 C 
HETATM    6  N2  UNL     1      21.932   3.768  50.951  1.00  0.00    -0.264 NA
HETATM    7  C6  UNL     1      21.611   2.407  51.212  1.00  0.00     0.270 C 
HETATM    8  N3  UNL     1      22.348   1.824  52.265  1.00  0.00    -0.382 N 
HETATM    9  C12 UNL     1      23.490   2.375  52.810  1.00  0.00     0.154 C 
HETATM   10  C13 UNL     1      24.765   2.449  52.046  1.00  0.00     0.176 C 
ENDROOT
BRANCH   8  11
HETATM   11  C7  UNL     1      22.019   0.472  52.456  1.00  0.00     0.128 A 
HETATM   12  C8  UNL     1      22.076   0.013  53.869  1.00  0.00     0.003 A 
HETATM   13  C9  UNL     1      20.922  -0.512  54.253  1.00  0.00     0.017 A 
HETATM   14  C10 UNL     1      19.987  -0.454  53.134  1.00  0.00     0.009 A 
HETATM   15 BR1  UNL     1      18.188  -1.079  53.160  1.00  0.00    -0.051 Br
HETATM   16  C11 UNL     1      20.611   0.110  52.101  1.00  0.00     0.021 A 
ENDBRANCH   8  11
BRANCH  10  17
HETATM   17  O2  UNL     1      25.180   1.188  51.602  1.00  0.00    -0.386 OA
HETATM   18  C14 UNL     1      25.762   0.409  52.576  1.00  0.00     0.202 C 
ENDBRANCH  10  17
BRANCH   1  19
HETATM   19  O1  UNL     1      26.343   3.270  50.667  1.00  0.00    -0.378 OA
HETATM   20  C1  UNL     1      26.757   3.869  49.443  1.00  0.00     0.202 C 
ENDBRANCH   1  19
TORSDOF 3
ENDMDL
MODEL 9
REMARK VINA RESULT:      -5.8      3.091      4.973
REMARK  3 active torsions:
REMARK  status: ('A' for Active; 'I' for Inactive)
REMARK    1  A    between atoms: O1_2  and  C2_3 
REMARK    2  A    between atoms: N3_10  and  C7_11 
REMARK    3  A    between atoms: C13_18  and  O2_19 
ROOT
HETATM    1  C2  UNL     1      21.088   1.683  52.554  1.00  0.00     0.131 C 
HETATM    2  C3  UNL     1      20.904   2.815  51.921  1.00  0.00     0.079 C 
HETATM    3  C4  UNL     1      19.979   3.904  51.685  1.00  0.00     0.099 C 
HETATM    4  N1  UNL     1      20.651   4.705  50.866  1.00  0.00    -0.258 NA
HETATM    5  C5  UNL     1      21.985   4.267  50.502  1.00  0.00     0.227 C 
HETATM    6  N2  UNL     1      22.464   4.321  51.696  1.00  0.00    -0.264 NA
HETATM    7  C6  UNL     1      23.793   3.996  52.085  1.00  0.00     0.270 C 
HETATM    8  N3  UNL     1      24.200   2.689  51.743  1.00  0.00    -0.382 N 
HETATM    9  C12 UNL     1      23.337   1.685  51.352  1.00  0.00     0.154 C 
HETATM   10  C13 UNL     1      22.374   1.067  52.302  1.00  0.00     0.176 C 
ENDROOT
BRANCH   8  11
HETATM   11  C7  UNL     1      25.505   2.408  52.182  1.00  0.00     0.128 A 
HETATM   12  C8  UNL     1      25.659   2.333  53.659  1.00  0.00     0.003 A 
HETATM   13  C9  UNL     1      26.174   1.171  54.031  1.00  0.00     0.017 A 
HETATM   14  C10 UNL     1      26.412   0.361  52.841  1.00  0.00     0.009 A 
HETATM   15 BR1  UNL     1      27.144  -1.398  52.824  1.00  0.00    -0.051 Br
HETATM   16  C11 UNL     1      26.029   1.067  51.777  1.00  0.00     0.021 A 
ENDBRANCH   8  11
BRANCH  10  17
HETATM   17  O2  UNL     1      23.019   0.535  53.424  1.00  0.00    -0.386 OA
HETATM   18  C14 UNL     1      23.174  -0.833  53.393  1.00  0.00     0.202 C 
ENDBRANCH  10  17
BRANCH   1  19
HETATM   19  O1  UNL     1      20.468   0.757  53.458  1.00  0.00    -0.378 OA
HETATM   20  C1  UNL     1      19.524  -0.166  52.922  1.00  0.00     0.202 C 
ENDBRANCH   1  19
TORSDOF 3
ENDMDL
