MODEL 1
REMARK VINA RESULT:      -8.6      0.000      0.000
REMARK  4 active torsions:
REMARK  status: ('A' for Active; 'I' for Inactive)
REMARK    1  A    between atoms: C2_2  and  C3_3 
REMARK    2  A    between atoms: C7_7  and  N1_8 
REMARK    3  A    between atoms: C12_14  and  N3_15 
REMARK       I    between atoms: N3_15  and  C13_16 
REMARK    4  A    between atoms: C13_16  and  C14_18 
ROOT
HETATM    1  C3  UNL     1      26.905  -1.877  52.693  1.00  0.00     0.035 C 
HETATM    2  C4  UNL     1      26.373  -1.001  53.526  1.00  0.00     0.151 A 
HETATM    3  C5  UNL     1      26.468  -0.166  54.779  1.00  0.00     0.347 A 
HETATM    4  C6  UNL     1      26.057   0.903  53.833  1.00  0.00     0.179 A 
HETATM    5  C7  UNL     1      26.248   2.090  53.328  1.00  0.00     0.078 C 
HETATM    6  C9  UNL     1      25.378   2.579  52.296  1.00  0.00     0.141 C 
HETATM    7  N2  UNL     1      24.446   1.733  51.933  1.00  0.00    -0.296 NA
HETATM    8  C10 UNL     1      23.491   2.111  50.896  1.00  0.00     0.177 C 
HETATM    9  C11 UNL     1      22.247   1.314  51.202  1.00  0.00     0.020 C 
HETATM   10  C12 UNL     1      21.889   0.348  52.070  1.00  0.00     0.017 C 
HETATM   11  C17 UNL     1      23.154   0.069  52.781  1.00  0.00     0.081 C 
HETATM   12  C18 UNL     1      23.772  -0.652  53.741  1.00  0.00     0.246 C 
HETATM   13  N4  UNL     1      25.159  -0.207  53.722  1.00  0.00     0.007 N 
ENDROOT
BRANCH  10  14
HETATM   14  N3  UNL     1      20.497  -0.013  51.873  1.00  0.00    -0.327 N 
HETATM   15  C13 UNL     1      19.615  -0.276  52.930  1.00  0.00     0.245 C 
HETATM   16  O1  UNL     1      20.240  -0.142  54.005  1.00  0.00    -0.268 OA
HETATM   17  H15 UNL     1      20.220  -0.054  50.875  1.00  0.00     0.169 HD
BRANCH  15  18
HETATM   18  C14 UNL     1      18.219  -0.642  52.790  1.00  0.00     0.070 C 
HETATM   19  C15 UNL     1      17.499  -1.713  53.067  1.00  0.00    -0.026 C 
HETATM   20  C16 UNL     1      17.506  -3.065  53.606  1.00  0.00     0.036 C 
ENDBRANCH  15  18
ENDBRANCH  10  14
BRANCH   5  21
HETATM   21  N1  UNL     1      27.368   2.743  53.909  1.00  0.00    -0.391 N 
HETATM   22  C8  UNL     1      28.775   2.487  53.682  1.00  0.00     0.146 C 
HETATM   23  H7  UNL     1      27.198   3.511  54.593  1.00  0.00     0.159 HD
ENDBRANCH   5  21
BRANCH   1  24
HETATM   24  C2  UNL     1      28.234  -2.391  52.982  1.00  0.00    -0.008 C 
HETATM   25  C1  UNL     1      29.182  -1.487  53.180  1.00  0.00     0.011 C 
ENDBRANCH   1  24
TORSDOF 4
ENDMDL
MODEL 2
REMARK VINA RESULT:      -7.4      2.768      7.462
REMARK  4 active torsions:
REMARK  status: ('A' for Active; 'I' for Inactive)
REMARK    1  A    between atoms: C2_2  and  C3_3 
REMARK    2  A    between atoms: C7_7  and  N1_8 
REMARK    3  A    between atoms: C12_14  and  N3_15 
REMARK       I    between atoms: N3_15  and  C13_16 
REMARK    4  A    between atoms: C13_16  and  C14_18 
ROOT
HETATM    1  C3  UNL     1      22.563   2.462  48.301  1.00  0.00     0.035 C 
HETATM    2  C4  UNL     1      22.556   3.135  49.437  1.00  0.00     0.151 A 
HETATM    3  C5  UNL     1      22.206   4.379  50.216  1.00  0.00     0.347 A 
HETATM    4  C6  UNL     1      21.613   3.373  51.132  1.00  0.00     0.179 A 
HETATM    5  C7  UNL     1      20.596   2.951  51.831  1.00  0.00     0.078 C 
HETATM    6  C9  UNL     1      20.696   1.732  52.583  1.00  0.00     0.141 C 
HETATM    7  N2  UNL     1      21.851   1.124  52.468  1.00  0.00    -0.296 NA
HETATM    8  C10 UNL     1      22.085  -0.124  53.187  1.00  0.00     0.177 C 
HETATM    9  C11 UNL     1      23.576  -0.169  53.416  1.00  0.00     0.020 C 
HETATM   10  C12 UNL     1      24.648   0.560  53.049  1.00  0.00     0.017 C 
HETATM   11  C17 UNL     1      24.055   1.578  52.156  1.00  0.00     0.081 C 
HETATM   12  C18 UNL     1      24.273   2.657  51.375  1.00  0.00     0.246 C 
HETATM   13  N4  UNL     1      22.967   3.013  50.837  1.00  0.00     0.007 N 
ENDROOT
BRANCH  10  14
HETATM   14  N3  UNL     1      25.857  -0.003  53.619  1.00  0.00    -0.327 N 
HETATM   15  C13 UNL     1      26.796   0.756  54.332  1.00  0.00     0.245 C 
HETATM   16  O1  UNL     1      26.396   1.940  54.368  1.00  0.00    -0.268 OA
HETATM   17  H15 UNL     1      25.957  -1.021  53.450  1.00  0.00     0.169 HD
BRANCH  15  18
HETATM   18  C14 UNL     1      28.019   0.245  54.920  1.00  0.00     0.070 C 
HETATM   19  C15 UNL     1      29.108  -0.341  54.456  1.00  0.00    -0.026 C 
HETATM   20  C16 UNL     1      29.803  -0.833  53.275  1.00  0.00     0.036 C 
ENDBRANCH  15  18
ENDBRANCH  10  14
BRANCH   5  21
HETATM   21  N1  UNL     1      19.475   3.817  51.716  1.00  0.00    -0.391 N 
HETATM   22  C8  UNL     1      18.580   3.984  50.590  1.00  0.00     0.146 C 
HETATM   23  H7  UNL     1      19.232   4.429  52.525  1.00  0.00     0.159 HD
ENDBRANCH   5  21
BRANCH   1  24
HETATM   24  C2  UNL     1      21.988   3.086  47.121  1.00  0.00    -0.008 C 
HETATM   25  C1  UNL     1      20.671   3.240  47.122  1.00  0.00     0.011 C 
ENDBRANCH   1  24
TORSDOF 4
ENDMDL
MODEL 3
REMARK VINA RESULT:      -7.3      4.333      7.828
REMARK  4 active torsions:
REMARK  status: ('A' for Active; 'I' for Inactive)
REMARK    1  A    between atoms: C2_2  and  C3_3 
REMARK    2  A    between atoms: C7_7  and  N1_8 
REMARK    3  A    between atoms: C12_14  and  N3_15 
REMARK       I    between atoms: N3_15  and  C13_16 
REMARK    4  A    between atoms: C13_16  and  C14_18 
ROOT
HETATM    1  C3  UNL     1      22.602   3.252  48.184  1.00  0.00     0.035 C 
HETATM    2  C4  UNL     1      23.457   4.125  48.686  1.00  0.00     0.151 A 
HETATM    3  C5  UNL     1      24.021   5.524  48.729  1.00  0.00     0.347 A 
HETATM    4  C6  UNL     1      23.792   5.335  50.183  1.00  0.00     0.179 A 
HETATM    5  C7  UNL     1      23.294   5.770  51.307  1.00  0.00     0.078 C 
HETATM    6  C9  UNL     1      23.430   4.987  52.504  1.00  0.00     0.141 C 
HETATM    7  N2  UNL     1      24.053   3.848  52.332  1.00  0.00    -0.296 NA
HETATM    8  C10 UNL     1      24.263   2.960  53.471  1.00  0.00     0.177 C 
HETATM    9  C11 UNL     1      25.511   2.182  53.135  1.00  0.00     0.020 C 
HETATM   10  C12 UNL     1      26.335   2.058  52.076  1.00  0.00     0.017 C 
HETATM   11  C17 UNL     1      25.683   2.909  51.059  1.00  0.00     0.081 C 
HETATM   12  C18 UNL     1      25.729   3.399  49.802  1.00  0.00     0.246 C 
HETATM   13  N4  UNL     1      24.538   4.227  49.668  1.00  0.00     0.007 N 
ENDROOT
BRANCH  10  14
HETATM   14  N3  UNL     1      27.408   1.130  52.381  1.00  0.00    -0.327 N 
HETATM   15  C13 UNL     1      28.423   1.407  53.308  1.00  0.00     0.245 C 
HETATM   16  O1  UNL     1      28.220   2.545  53.783  1.00  0.00    -0.268 OA
HETATM   17  H15 UNL     1      27.349   0.242  51.849  1.00  0.00     0.169 HD
BRANCH  15  18
HETATM   18  C14 UNL     1      29.517   0.517  53.649  1.00  0.00     0.070 C 
HETATM   19  C15 UNL     1      29.713  -0.787  53.599  1.00  0.00    -0.026 C 
HETATM   20  C16 UNL     1      29.142  -2.080  53.250  1.00  0.00     0.036 C 
ENDBRANCH  15  18
ENDBRANCH  10  14
BRANCH   5  21
HETATM   21  N1  UNL     1      22.643   7.024  51.153  1.00  0.00    -0.391 N 
HETATM   22  C8  UNL     1      21.342   7.296  50.578  1.00  0.00     0.146 C 
HETATM   23  H7  UNL     1      23.131   7.884  51.483  1.00  0.00     0.159 HD
ENDBRANCH   5  21
BRANCH   1  24
HETATM   24  C2  UNL     1      21.677   3.698  47.156  1.00  0.00    -0.008 C 
HETATM   25  C1  UNL     1      22.100   3.596  45.904  1.00  0.00     0.011 C 
ENDBRANCH   1  24
TORSDOF 4
ENDMDL
MODEL 4
REMARK VINA RESULT:      -7.3      1.702      2.542
REMARK  4 active torsions:
REMARK  status: ('A' for Active; 'I' for Inactive)
REMARK    1  A    between atoms: C2_2  and  C3_3 
REMARK    2  A    between atoms: C7_7  and  N1_8 
REMARK    3  A    between atoms: C12_14  and  N3_15 
REMARK       I    between atoms: N3_15  and  C13_16 
REMARK    4  A    between atoms: C13_16  and  C14_18 
ROOT
HETATM    1  C3  UNL     1      25.890  -0.058  52.625  1.00  0.00     0.035 C 
HETATM    2  C4  UNL     1      25.244   1.084  52.780  1.00  0.00     0.151 A 
HETATM    3  C5  UNL     1      25.225   2.522  53.236  1.00  0.00     0.347 A 
HETATM    4  C6  UNL     1      24.671   2.716  51.872  1.00  0.00     0.179 A 
HETATM    5  C7  UNL     1      24.698   3.341  50.728  1.00  0.00     0.078 C 
HETATM    6  C9  UNL     1      23.768   2.984  49.693  1.00  0.00     0.141 C 
HETATM    7  N2  UNL     1      22.959   2.004  50.012  1.00  0.00    -0.296 NA
HETATM    8  C10 UNL     1      21.961   1.548  49.050  1.00  0.00     0.177 C 
HETATM    9  C11 UNL     1      20.838   0.990  49.888  1.00  0.00     0.020 C 
HETATM   10  C12 UNL     1      20.615   0.745  51.195  1.00  0.00     0.017 C 
HETATM   11  C17 UNL     1      21.908   1.107  51.814  1.00  0.00     0.081 C 
HETATM   12  C18 UNL     1      22.620   1.212  52.956  1.00  0.00     0.246 C 
HETATM   13  N4  UNL     1      23.933   1.692  52.548  1.00  0.00     0.007 N 
ENDROOT
BRANCH  10  14
HETATM   14  N3  UNL     1      19.286   0.195  51.383  1.00  0.00    -0.327 N 
HETATM   15  C13 UNL     1      18.880  -0.445  52.563  1.00  0.00     0.245 C 
HETATM   16  O1  UNL     1      19.842  -0.441  53.362  1.00  0.00    -0.268 OA
HETATM   17  H15 UNL     1      18.667   0.324  50.563  1.00  0.00     0.169 HD
BRANCH  15  18
HETATM   18  C14 UNL     1      17.568  -1.013  52.804  1.00  0.00     0.070 C 
HETATM   19  C15 UNL     1      17.114  -2.187  53.200  1.00  0.00    -0.026 C 
HETATM   20  C16 UNL     1      17.463  -3.537  53.617  1.00  0.00     0.036 C 
ENDBRANCH  15  18
ENDBRANCH  10  14
BRANCH   5  21
HETATM   21  N1  UNL     1      25.719   4.328  50.682  1.00  0.00    -0.391 N 
HETATM   22  C8  UNL     1      26.080   5.197  49.582  1.00  0.00     0.146 C 
HETATM   23  H7  UNL     1      26.307   4.476  51.530  1.00  0.00     0.159 HD
ENDBRANCH   5  21
BRANCH   1  24
HETATM   24  C2  UNL     1      27.276  -0.135  53.054  1.00  0.00    -0.008 C 
HETATM   25  C1  UNL     1      27.494  -0.020  54.356  1.00  0.00     0.011 C 
ENDBRANCH   1  24
TORSDOF 4
ENDMDL
MODEL 5
REMARK VINA RESULT:      -7.0      4.048      6.408
REMARK  4 active torsions:
REMARK  status: ('A' for Active; 'I' for Inactive)
REMARK    1  A    between atoms: C2_2  and  C3_3 
REMARK    2  A    between atoms: C7_7  and  N1_8 
REMARK    3  A    between atoms: C12_14  and  N3_15 
REMARK       I    between atoms: N3_15  and  C13_16 
REMARK    4  A    between atoms: C13_16  and  C14_18 
ROOT
HETATM    1  C3  UNL     1      26.977   4.993  48.819  1.00  0.00     0.035 C 
HETATM    2  C4  UNL     1      25.825   5.498  49.221  1.00  0.00     0.151 A 
HETATM    3  C5  UNL     1      24.908   6.684  49.393  1.00  0.00     0.347 A 
HETATM    4  C6  UNL     1      23.952   5.761  48.731  1.00  0.00     0.179 A 
HETATM    5  C7  UNL     1      23.075   5.536  47.792  1.00  0.00     0.078 C 
HETATM    6  C9  UNL     1      22.446   4.249  47.690  1.00  0.00     0.141 C 
HETATM    7  N2  UNL     1      22.852   3.381  48.583  1.00  0.00    -0.296 NA
HETATM    8  C10 UNL     1      22.286   2.036  48.592  1.00  0.00     0.177 C 
HETATM    9  C11 UNL     1      22.396   1.576  50.025  1.00  0.00     0.020 C 
HETATM   10  C12 UNL     1      22.941   2.041  51.166  1.00  0.00     0.017 C 
HETATM   11  C17 UNL     1      23.612   3.280  50.721  1.00  0.00     0.081 C 
HETATM   12  C18 UNL     1      24.349   4.354  51.077  1.00  0.00     0.246 C 
HETATM   13  N4  UNL     1      24.561   5.101  49.846  1.00  0.00     0.007 N 
ENDROOT
BRANCH  10  14
HETATM   14  N3  UNL     1      22.691   1.116  52.255  1.00  0.00    -0.327 N 
HETATM   15  C13 UNL     1      23.704   0.383  52.890  1.00  0.00     0.245 C 
HETATM   16  O1  UNL     1      24.794   0.677  52.353  1.00  0.00    -0.268 OA
HETATM   17  H15 UNL     1      21.691   1.052  52.520  1.00  0.00     0.169 HD
BRANCH  15  18
HETATM   18  C14 UNL     1      23.509  -0.553  53.979  1.00  0.00     0.070 C 
HETATM   19  C15 UNL     1      22.483  -1.231  54.459  1.00  0.00    -0.026 C 
HETATM   20  C16 UNL     1      21.064  -1.526  54.326  1.00  0.00     0.036 C 
ENDBRANCH  15  18
ENDBRANCH  10  14
BRANCH   5  21
HETATM   21  N1  UNL     1      22.882   6.672  46.960  1.00  0.00    -0.391 N 
HETATM   22  C8  UNL     1      22.046   7.830  47.198  1.00  0.00     0.146 C 
HETATM   23  H7  UNL     1      23.390   6.715  46.050  1.00  0.00     0.159 HD
ENDBRANCH   5  21
BRANCH   1  24
HETATM   24  C2  UNL     1      27.957   5.886  48.224  1.00  0.00    -0.008 C 
HETATM   25  C1  UNL     1      29.210   5.455  48.209  1.00  0.00     0.011 C 
ENDBRANCH   1  24
TORSDOF 4
ENDMDL
MODEL 6
REMARK VINA RESULT:      -6.4      2.576      3.377
REMARK  4 active torsions:
REMARK  status: ('A' for Active; 'I' for Inactive)
REMARK    1  A    between atoms: C2_2  and  C3_3 
REMARK    2  A    between atoms: C7_7  and  N1_8 
REMARK    3  A    between atoms: C12_14  and  N3_15 
REMARK       I    between atoms: N3_15  and  C13_16 
REMARK    4  A    between atoms: C13_16  and  C14_18 
ROOT
HETATM    1  C3  UNL     1      24.906  -0.089  52.845  1.00  0.00     0.035 C 
HETATM    2  C4  UNL     1      24.565   1.187  52.820  1.00  0.00     0.151 A 
HETATM    3  C5  UNL     1      24.869   2.627  53.153  1.00  0.00     0.347 A 
HETATM    4  C6  UNL     1      24.539   2.798  51.716  1.00  0.00     0.179 A 
HETATM    5  C7  UNL     1      24.852   3.265  50.539  1.00  0.00     0.078 C 
HETATM    6  C9  UNL     1      23.982   3.036  49.420  1.00  0.00     0.141 C 
HETATM    7  N2  UNL     1      22.917   2.328  49.704  1.00  0.00    -0.296 NA
HETATM    8  C10 UNL     1      21.947   2.029  48.655  1.00  0.00     0.177 C 
HETATM    9  C11 UNL     1      20.633   1.863  49.376  1.00  0.00     0.020 C 
HETATM   10  C12 UNL     1      20.211   1.827  50.655  1.00  0.00     0.017 C 
HETATM   11  C17 UNL     1      21.477   1.925  51.413  1.00  0.00     0.081 C 
HETATM   12  C18 UNL     1      22.061   1.978  52.629  1.00  0.00     0.246 C 
HETATM   13  N4  UNL     1      23.490   2.071  52.365  1.00  0.00     0.007 N 
ENDROOT
BRANCH  10  14
HETATM   14  N3  UNL     1      18.773   1.647  50.706  1.00  0.00    -0.327 N 
HETATM   15  C13 UNL     1      17.919   2.483  51.440  1.00  0.00     0.245 C 
HETATM   16  O1  UNL     1      18.615   3.356  52.002  1.00  0.00    -0.268 OA
HETATM   17  H15 UNL     1      18.438   0.843  50.145  1.00  0.00     0.169 HD
BRANCH  15  18
HETATM   18  C14 UNL     1      16.478   2.348  51.526  1.00  0.00     0.070 C 
HETATM   19  C15 UNL     1      15.605   1.408  51.211  1.00  0.00    -0.026 C 
HETATM   20  C16 UNL     1      15.415   0.074  50.660  1.00  0.00     0.036 C 
ENDBRANCH  15  18
ENDBRANCH  10  14
BRANCH   5  21
HETATM   21  N1  UNL     1      26.093   3.958  50.554  1.00  0.00    -0.391 N 
HETATM   22  C8  UNL     1      26.945   4.299  49.434  1.00  0.00     0.146 C 
HETATM   23  H7  UNL     1      26.474   4.279  51.469  1.00  0.00     0.159 HD
ENDBRANCH   5  21
BRANCH   1  24
HETATM   24  C2  UNL     1      26.169  -0.458  53.463  1.00  0.00    -0.008 C 
HETATM   25  C1  UNL     1      26.994  -1.183  52.721  1.00  0.00     0.011 C 
ENDBRANCH   1  24
TORSDOF 4
ENDMDL
MODEL 7
REMARK VINA RESULT:      -6.4      7.019      9.141
REMARK  4 active torsions:
REMARK  status: ('A' for Active; 'I' for Inactive)
REMARK    1  A    between atoms: C2_2  and  C3_3 
REMARK    2  A    between atoms: C7_7  and  N1_8 
REMARK    3  A    between atoms: C12_14  and  N3_15 
REMARK       I    between atoms: N3_15  and  C13_16 
REMARK    4  A    between atoms: C13_16  and  C14_18 
ROOT
HETATM    1  C3  UNL     1      28.653   8.118  45.689  1.00  0.00     0.035 C 
HETATM    2  C4  UNL     1      29.019   7.716  46.893  1.00  0.00     0.151 A 
HETATM    3  C5  UNL     1      30.093   7.523  47.935  1.00  0.00     0.347 A 
HETATM    4  C6  UNL     1      29.091   8.222  48.779  1.00  0.00     0.179 A 
HETATM    5  C7  UNL     1      28.800   9.177  49.617  1.00  0.00     0.078 C 
HETATM    6  C9  UNL     1      27.456   9.323  50.102  1.00  0.00     0.141 C 
HETATM    7  N2  UNL     1      26.611   8.450  49.611  1.00  0.00    -0.296 NA
HETATM    8  C10 UNL     1      25.213   8.485  50.027  1.00  0.00     0.177 C 
HETATM    9  C11 UNL     1      24.727   7.064  49.882  1.00  0.00     0.020 C 
HETATM   10  C12 UNL     1      25.214   5.903  49.401  1.00  0.00     0.017 C 
HETATM   11  C17 UNL     1      26.532   6.306  48.865  1.00  0.00     0.081 C 
HETATM   12  C18 UNL     1      27.668   5.910  48.253  1.00  0.00     0.246 C 
HETATM   13  N4  UNL     1      28.469   7.118  48.111  1.00  0.00     0.007 N 
ENDROOT
BRANCH  10  14
HETATM   14  N3  UNL     1      24.237   4.844  49.560  1.00  0.00    -0.327 N 
HETATM   15  C13 UNL     1      24.493   3.661  50.269  1.00  0.00     0.245 C 
HETATM   16  O1  UNL     1      25.664   3.713  50.706  1.00  0.00    -0.268 OA
HETATM   17  H15 UNL     1      23.330   5.047  49.100  1.00  0.00     0.169 HD
BRANCH  15  18
HETATM   18  C14 UNL     1      23.555   2.572  50.457  1.00  0.00     0.070 C 
HETATM   19  C15 UNL     1      22.677   1.950  49.692  1.00  0.00    -0.026 C 
HETATM   20  C16 UNL     1      22.080   1.863  48.367  1.00  0.00     0.036 C 
ENDBRANCH  15  18
ENDBRANCH  10  14
BRANCH   5  21
HETATM   21  N1  UNL     1      29.931   9.981  49.924  1.00  0.00    -0.391 N 
HETATM   22  C8  UNL     1      30.582  10.971  49.092  1.00  0.00     0.146 C 
HETATM   23  H7  UNL     1      30.380   9.874  50.859  1.00  0.00     0.159 HD
ENDBRANCH   5  21
BRANCH   1  24
HETATM   24  C2  UNL     1      29.665   8.675  44.807  1.00  0.00    -0.008 C 
HETATM   25  C1  UNL     1      30.118   9.880  45.122  1.00  0.00     0.011 C 
ENDBRANCH   1  24
TORSDOF 4
ENDMDL
MODEL 8
REMARK VINA RESULT:      -6.4      4.511      5.932
REMARK  4 active torsions:
REMARK  status: ('A' for Active; 'I' for Inactive)
REMARK    1  A    between atoms: C2_2  and  C3_3 
REMARK    2  A    between atoms: C7_7  and  N1_8 
REMARK    3  A    between atoms: C12_14  and  N3_15 
REMARK       I    between atoms: N3_15  and  C13_16 
REMARK    4  A    between atoms: C13_16  and  C14_18 
ROOT
HETATM    1  C3  UNL     1      23.601   2.399  51.092  1.00  0.00     0.035 C 
HETATM    2  C4  UNL     1      23.063   3.354  51.829  1.00  0.00     0.151 A 
HETATM    3  C5  UNL     1      23.213   4.467  52.837  1.00  0.00     0.347 A 
HETATM    4  C6  UNL     1      22.429   5.202  51.812  1.00  0.00     0.179 A 
HETATM    5  C7  UNL     1      22.281   6.250  51.050  1.00  0.00     0.078 C 
HETATM    6  C9  UNL     1      21.156   6.338  50.161  1.00  0.00     0.141 C 
HETATM    7  N2  UNL     1      20.365   5.294  50.191  1.00  0.00    -0.296 NA
HETATM    8  C10 UNL     1      19.181   5.260  49.339  1.00  0.00     0.177 C 
HETATM    9  C11 UNL     1      18.201   4.374  50.067  1.00  0.00     0.020 C 
HETATM   10  C12 UNL     1      18.210   3.598  51.168  1.00  0.00     0.017 C 
HETATM   11  C17 UNL     1      19.613   3.698  51.622  1.00  0.00     0.081 C 
HETATM   12  C18 UNL     1      20.529   3.332  52.543  1.00  0.00     0.246 C 
HETATM   13  N4  UNL     1      21.770   3.971  52.128  1.00  0.00     0.007 N 
ENDROOT
BRANCH  10  14
HETATM   14  N3  UNL     1      16.909   2.986  51.363  1.00  0.00    -0.327 N 
HETATM   15  C13 UNL     1      15.933   3.512  52.222  1.00  0.00     0.245 C 
HETATM   16  O1  UNL     1      16.394   4.548  52.749  1.00  0.00    -0.268 OA
HETATM   17  H15 UNL     1      16.770   2.126  50.802  1.00  0.00     0.169 HD
BRANCH  15  18
HETATM   18  C14 UNL     1      14.620   2.942  52.454  1.00  0.00     0.070 C 
HETATM   19  C15 UNL     1      13.523   3.339  53.072  1.00  0.00    -0.026 C 
HETATM   20  C16 UNL     1      12.886   4.402  53.835  1.00  0.00     0.036 C 
ENDBRANCH  15  18
ENDBRANCH  10  14
BRANCH   5  21
HETATM   21  N1  UNL     1      23.332   7.190  51.225  1.00  0.00    -0.391 N 
HETATM   22  C8  UNL     1      24.695   7.114  50.740  1.00  0.00     0.146 C 
HETATM   23  H7  UNL     1      23.139   8.060  51.765  1.00  0.00     0.159 HD
ENDBRANCH   5  21
BRANCH   1  24
HETATM   24  C2  UNL     1      25.036   2.184  51.174  1.00  0.00    -0.008 C 
HETATM   25  C1  UNL     1      25.796   3.032  50.496  1.00  0.00     0.011 C 
ENDBRANCH   1  24
TORSDOF 4
ENDMDL
MODEL 9
REMARK VINA RESULT:      -6.3      5.224      9.266
REMARK  4 active torsions:
REMARK  status: ('A' for Active; 'I' for Inactive)
REMARK    1  A    between atoms: C2_2  and  C3_3 
REMARK    2  A    between atoms: C7_7  and  N1_8 
REMARK    3  A    between atoms: C12_14  and  N3_15 
REMARK       I    between atoms: N3_15  and  C13_16 
REMARK    4  A    between atoms: C13_16  and  C14_18 
ROOT
HETATM    1  C3  UNL     1      23.657   2.270  52.215  1.00  0.00     0.035 C 
HETATM    2  C4  UNL     1      23.676   2.640  50.947  1.00  0.00     0.151 A 
HETATM    3  C5  UNL     1      23.417   2.332  49.493  1.00  0.00     0.347 A 
HETATM    4  C6  UNL     1      22.707   3.633  49.571  1.00  0.00     0.179 A 
HETATM    5  C7  UNL     1      21.635   4.343  49.353  1.00  0.00     0.078 C 
HETATM    6  C9  UNL     1      21.601   5.728  49.731  1.00  0.00     0.141 C 
HETATM    7  N2  UNL     1      22.698   6.156  50.304  1.00  0.00    -0.296 NA
HETATM    8  C10 UNL     1      22.795   7.548  50.731  1.00  0.00     0.177 C 
HETATM    9  C11 UNL     1      24.268   7.871  50.675  1.00  0.00     0.020 C 
HETATM   10  C12 UNL     1      25.413   7.199  50.444  1.00  0.00     0.017 C 
HETATM   11  C17 UNL     1      24.942   5.806  50.288  1.00  0.00     0.081 C 
HETATM   12  C18 UNL     1      25.282   4.522  50.047  1.00  0.00     0.246 C 
HETATM   13  N4  UNL     1      24.031   3.778  50.097  1.00  0.00     0.007 N 
ENDROOT
BRANCH  10  14
HETATM   14  N3  UNL     1      26.548   8.099  50.520  1.00  0.00    -0.327 N 
HETATM   15  C13 UNL     1      27.352   8.415  49.415  1.00  0.00     0.245 C 
HETATM   16  O1  UNL     1      26.913   7.797  48.421  1.00  0.00    -0.268 OA
HETATM   17  H15 UNL     1      26.703   8.488  51.468  1.00  0.00     0.169 HD
BRANCH  15  18
HETATM   18  C14 UNL     1      28.497   9.305  49.435  1.00  0.00     0.070 C 
HETATM   19  C15 UNL     1      29.803   9.154  49.322  1.00  0.00    -0.026 C 
HETATM   20  C16 UNL     1      30.896   8.211  49.133  1.00  0.00     0.036 C 
ENDBRANCH  15  18
ENDBRANCH  10  14
BRANCH   5  21
HETATM   21  N1  UNL     1      20.602   3.575  48.751  1.00  0.00    -0.391 N 
HETATM   22  C8  UNL     1      19.697   2.636  49.380  1.00  0.00     0.146 C 
HETATM   23  H7  UNL     1      20.442   3.672  47.725  1.00  0.00     0.159 HD
ENDBRANCH   5  21
BRANCH   1  24
HETATM   24  C2  UNL     1      23.177   0.938  52.542  1.00  0.00    -0.008 C 
HETATM   25  C1  UNL     1      21.862   0.772  52.542  1.00  0.00     0.011 C 
ENDBRANCH   1  24
TORSDOF 4
ENDMDL
