MODEL 1
REMARK VINA RESULT:      -9.2      0.000      0.000
REMARK  6 active torsions:
REMARK  status: ('A' for Active; 'I' for Inactive)
REMARK       I    between atoms: N1_2  and  C2_3 
REMARK    1  A    between atoms: C2_3  and  C3_5 
REMARK    2  A    between atoms: C3_5  and  O2_6 
REMARK    3  A    between atoms: O2_6  and  C4_7 
REMARK    4  A    between atoms: C8_11  and  N2_12 
REMARK    5  A    between atoms: N2_12  and  C9_13 
REMARK    6  A    between atoms: C12_18  and  N4_19 
ROOT
HETATM    1  C9  UNL     1      21.316   1.405  50.588  1.00  0.00     0.728 A 
HETATM    2  N3  UNL     1      21.033   0.938  49.378  1.00  0.00    -0.072 NA
HETATM    3  C10 UNL     1      21.528   1.377  48.214  1.00  0.00     0.182 A 
HETATM    4  C11 UNL     1      22.423   2.420  48.274  1.00  0.00     0.180 A 
HETATM    5  F1  UNL     1      22.940   2.888  47.137  1.00  0.00    -0.200 F 
HETATM    6  C12 UNL     1      22.757   2.944  49.479  1.00  0.00     0.185 A 
HETATM    7  N6  UNL     1      22.194   2.419  50.574  1.00  0.00    -0.042 NA
ENDROOT
BRANCH   1   8
HETATM    8  N2  UNL     1      20.807   0.958  51.828  1.00  0.00    -0.188 N 
HETATM    9  H10 UNL     1      19.808   1.234  52.066  1.00  0.00     0.184 HD
BRANCH   8  10
HETATM   10  C8  UNL     1      21.463   0.179  52.808  1.00  0.00     0.052 A 
HETATM   11  C7  UNL     1      20.750  -0.689  53.617  1.00  0.00     0.030 A 
HETATM   12  C6  UNL     1      21.334  -1.469  54.586  1.00  0.00     0.005 A 
HETATM   13  C5  UNL     1      22.691  -1.424  54.805  1.00  0.00     0.037 A 
HETATM   14  C4  UNL     1      23.430  -0.586  54.035  1.00  0.00     0.071 A 
HETATM   15  C20 UNL     1      22.815   0.183  53.072  1.00  0.00     0.066 A 
BRANCH  14  16
HETATM   16  O2  UNL     1      24.783  -0.496  54.205  1.00  0.00    -0.342 OA
BRANCH  16  17
HETATM   17  C3  UNL     1      25.754  -0.236  53.245  1.00  0.00     0.278 C 
BRANCH  17  18
HETATM   18  C2  UNL     1      27.106  -0.357  53.903  1.00  0.00     0.241 C 
HETATM   19  N1  UNL     1      28.149  -0.828  53.034  1.00  0.00    -0.364 N 
HETATM   20  C1  UNL     1      29.484  -0.979  53.572  1.00  0.00     0.149 C 
HETATM   21  H4  UNL     1      27.987  -1.072  52.014  1.00  0.00     0.161 HD
HETATM   22  O1  UNL     1      27.619  -0.158  55.047  1.00  0.00    -0.271 OA
ENDBRANCH  17  18
ENDBRANCH  16  17
ENDBRANCH  14  16
ENDBRANCH   8  10
ENDBRANCH   1   8
BRANCH   6  23
HETATM   23  N4  UNL     1      23.677   4.025  49.617  1.00  0.00    -0.357 N 
HETATM   24  C13 UNL     1      23.176   5.405  49.717  1.00  0.00     0.154 C 
HETATM   25  C14 UNL     1      23.974   6.284  48.790  1.00  0.00     0.027 C 
HETATM   26  C15 UNL     1      25.278   6.084  48.900  1.00  0.00     0.075 C 
HETATM   27  O3  UNL     1      26.095   6.853  48.082  1.00  0.00    -0.278 OA
HETATM   28  C18 UNL     1      25.834   5.097  49.842  1.00  0.00     0.159 C 
HETATM   29  C16 UNL     1      27.508   6.805  48.128  1.00  0.00     0.442 C 
HETATM   30  F2  UNL     1      27.992   7.000  46.827  1.00  0.00    -0.165 F 
HETATM   31  F3  UNL     1      28.038   7.797  48.917  1.00  0.00    -0.165 F 
HETATM   32  C17 UNL     1      28.010   5.469  48.553  1.00  0.00     0.321 C 
HETATM   33  O4  UNL     1      28.982   4.801  48.150  1.00  0.00    -0.264 OA
HETATM   34  N5  UNL     1      27.232   4.871  49.596  1.00  0.00    -0.342 N 
HETATM   35  H15 UNL     1      27.598   4.193  50.310  1.00  0.00     0.163 HD
HETATM   36  C19 UNL     1      25.108   3.788  49.663  1.00  0.00     0.156 C 
ENDBRANCH   6  23
TORSDOF 6
ENDMDL
MODEL 2
REMARK VINA RESULT:      -9.2      3.372      5.687
REMARK  6 active torsions:
REMARK  status: ('A' for Active; 'I' for Inactive)
REMARK       I    between atoms: N1_2  and  C2_3 
REMARK    1  A    between atoms: C2_3  and  C3_5 
REMARK    2  A    between atoms: C3_5  and  O2_6 
REMARK    3  A    between atoms: O2_6  and  C4_7 
REMARK    4  A    between atoms: C8_11  and  N2_12 
REMARK    5  A    between atoms: N2_12  and  C9_13 
REMARK    6  A    between atoms: C12_18  and  N4_19 
ROOT
HETATM    1  C9  UNL     1      21.284   3.428  50.564  1.00  0.00     0.728 A 
HETATM    2  N3  UNL     1      21.013   4.698  50.845  1.00  0.00    -0.072 NA
HETATM    3  C10 UNL     1      21.834   5.582  51.423  1.00  0.00     0.182 A 
HETATM    4  C11 UNL     1      23.090   5.135  51.762  1.00  0.00     0.180 A 
HETATM    5  F1  UNL     1      23.941   5.985  52.340  1.00  0.00    -0.200 F 
HETATM    6  C12 UNL     1      23.433   3.849  51.502  1.00  0.00     0.185 A 
HETATM    7  N6  UNL     1      22.523   3.059  50.919  1.00  0.00    -0.042 NA
ENDROOT
BRANCH   1   8
HETATM    8  N2  UNL     1      20.435   2.477  49.955  1.00  0.00    -0.188 N 
HETATM    9  H10 UNL     1      20.367   2.502  48.893  1.00  0.00     0.184 HD
BRANCH   8  10
HETATM   10  C8  UNL     1      19.651   1.483  50.582  1.00  0.00     0.052 A 
HETATM   11  C7  UNL     1      18.459   1.061  50.019  1.00  0.00     0.030 A 
HETATM   12  C6  UNL     1      17.657   0.099  50.585  1.00  0.00     0.005 A 
HETATM   13  C5  UNL     1      18.009  -0.507  51.769  1.00  0.00     0.037 A 
HETATM   14  C4  UNL     1      19.170  -0.123  52.356  1.00  0.00     0.071 A 
HETATM   15  C20 UNL     1      19.952   0.843  51.764  1.00  0.00     0.066 A 
BRANCH  14  16
HETATM   16  O2  UNL     1      19.574  -0.688  53.533  1.00  0.00    -0.342 OA
BRANCH  16  17
HETATM   17  C3  UNL     1      20.301  -0.103  54.563  1.00  0.00     0.278 C 
BRANCH  17  18
HETATM   18  C2  UNL     1      21.667  -0.740  54.591  1.00  0.00     0.241 C 
HETATM   19  N1  UNL     1      22.544  -0.311  53.535  1.00  0.00    -0.364 N 
HETATM   20  C1  UNL     1      23.880  -0.866  53.476  1.00  0.00     0.149 C 
HETATM   21  H4  UNL     1      22.259   0.395  52.796  1.00  0.00     0.161 HD
HETATM   22  O1  UNL     1      22.302  -1.579  55.300  1.00  0.00    -0.271 OA
ENDBRANCH  17  18
ENDBRANCH  16  17
ENDBRANCH  14  16
ENDBRANCH   8  10
ENDBRANCH   1   8
BRANCH   6  23
HETATM   23  N4  UNL     1      24.716   3.317  51.825  1.00  0.00    -0.357 N 
HETATM   24  C13 UNL     1      25.781   3.305  50.809  1.00  0.00     0.154 C 
HETATM   25  C14 UNL     1      26.434   1.948  50.800  1.00  0.00     0.027 C 
HETATM   26  C15 UNL     1      26.728   1.519  52.017  1.00  0.00     0.075 C 
HETATM   27  O3  UNL     1      27.335   0.274  52.107  1.00  0.00    -0.278 OA
HETATM   28  C18 UNL     1      26.428   2.322  53.215  1.00  0.00     0.159 C 
HETATM   29  C16 UNL     1      27.771  -0.294  53.327  1.00  0.00     0.442 C 
HETATM   30  F2  UNL     1      27.586  -1.681  53.252  1.00  0.00    -0.165 F 
HETATM   31  F3  UNL     1      29.105  -0.069  53.560  1.00  0.00    -0.165 F 
HETATM   32  C17 UNL     1      26.949   0.164  54.483  1.00  0.00     0.321 C 
HETATM   33  O4  UNL     1      26.532  -0.458  55.479  1.00  0.00    -0.264 OA
HETATM   34  N5  UNL     1      26.591   1.548  54.416  1.00  0.00    -0.342 N 
HETATM   35  H15 UNL     1      26.405   2.165  55.246  1.00  0.00     0.163 HD
HETATM   36  C19 UNL     1      24.995   2.785  53.146  1.00  0.00     0.156 C 
ENDBRANCH   6  23
TORSDOF 6
ENDMDL
MODEL 3
REMARK VINA RESULT:      -9.2      3.389      7.084
REMARK  6 active torsions:
REMARK  status: ('A' for Active; 'I' for Inactive)
REMARK       I    between atoms: N1_2  and  C2_3 
REMARK    1  A    between atoms: C2_3  and  C3_5 
REMARK    2  A    between atoms: C3_5  and  O2_6 
REMARK    3  A    between atoms: O2_6  and  C4_7 
REMARK    4  A    between atoms: C8_11  and  N2_12 
REMARK    5  A    between atoms: N2_12  and  C9_13 
REMARK    6  A    between atoms: C12_18  and  N4_19 
ROOT
HETATM    1  C9  UNL     1      21.077   2.814  51.890  1.00  0.00     0.728 A 
HETATM    2  N3  UNL     1      20.098   2.348  52.657  1.00  0.00    -0.072 NA
HETATM    3  C10 UNL     1      20.177   1.337  53.530  1.00  0.00     0.182 A 
HETATM    4  C11 UNL     1      21.397   0.712  53.648  1.00  0.00     0.180 A 
HETATM    5  F1  UNL     1      21.519  -0.301  54.507  1.00  0.00    -0.200 F 
HETATM    6  C12 UNL     1      22.440   1.138  52.893  1.00  0.00     0.185 A 
HETATM    7  N6  UNL     1      22.236   2.160  52.055  1.00  0.00    -0.042 NA
ENDROOT
BRANCH   1   8
HETATM    8  N2  UNL     1      21.017   3.879  50.962  1.00  0.00    -0.188 N 
HETATM    9  H10 UNL     1      20.188   3.890  50.296  1.00  0.00     0.184 HD
BRANCH   8  10
HETATM   10  C8  UNL     1      21.929   4.946  50.804  1.00  0.00     0.052 A 
HETATM   11  C7  UNL     1      21.496   6.260  50.854  1.00  0.00     0.030 A 
HETATM   12  C6  UNL     1      22.337   7.337  50.705  1.00  0.00     0.005 A 
HETATM   13  C5  UNL     1      23.684   7.156  50.493  1.00  0.00     0.037 A 
HETATM   14  C4  UNL     1      24.151   5.884  50.437  1.00  0.00     0.071 A 
HETATM   15  C20 UNL     1      23.283   4.826  50.589  1.00  0.00     0.066 A 
BRANCH  14  16
HETATM   16  O2  UNL     1      25.480   5.640  50.229  1.00  0.00    -0.342 OA
BRANCH  16  17
HETATM   17  C3  UNL     1      26.060   4.640  49.458  1.00  0.00     0.278 C 
BRANCH  17  18
HETATM   18  C2  UNL     1      27.359   5.169  48.904  1.00  0.00     0.241 C 
HETATM   19  N1  UNL     1      27.468   6.603  48.915  1.00  0.00    -0.364 N 
HETATM   20  C1  UNL     1      28.678   7.209  48.404  1.00  0.00     0.149 C 
HETATM   21  H4  UNL     1      26.702   7.239  49.282  1.00  0.00     0.161 HD
HETATM   22  O1  UNL     1      28.431   4.706  48.409  1.00  0.00    -0.271 OA
ENDBRANCH  17  18
ENDBRANCH  16  17
ENDBRANCH  14  16
ENDBRANCH   8  10
ENDBRANCH   1   8
BRANCH   6  23
HETATM   23  N4  UNL     1      23.732   0.537  52.963  1.00  0.00    -0.357 N 
HETATM   24  C13 UNL     1      23.889  -0.795  53.568  1.00  0.00     0.154 C 
HETATM   25  C14 UNL     1      25.056  -0.766  54.519  1.00  0.00     0.027 C 
HETATM   26  C15 UNL     1      26.125  -0.190  53.993  1.00  0.00     0.075 C 
HETATM   27  O3  UNL     1      27.253  -0.118  54.798  1.00  0.00    -0.278 OA
HETATM   28  C18 UNL     1      26.119   0.347  52.621  1.00  0.00     0.159 C 
HETATM   29  C16 UNL     1      28.492   0.405  54.360  1.00  0.00     0.442 C 
HETATM   30  F2  UNL     1      29.101   1.048  55.446  1.00  0.00    -0.165 F 
HETATM   31  F3  UNL     1      29.350  -0.576  53.929  1.00  0.00    -0.165 F 
HETATM   32  C17 UNL     1      28.318   1.451  53.313  1.00  0.00     0.321 C 
HETATM   33  O4  UNL     1      28.919   2.528  53.134  1.00  0.00    -0.264 OA
HETATM   34  N5  UNL     1      27.286   1.148  52.369  1.00  0.00    -0.342 N 
HETATM   35  H15 UNL     1      27.263   1.479  51.372  1.00  0.00     0.163 HD
HETATM   36  C19 UNL     1      24.903   1.219  52.443  1.00  0.00     0.156 C 
ENDBRANCH   6  23
TORSDOF 6
ENDMDL
MODEL 4
REMARK VINA RESULT:      -8.9      3.305      7.563
REMARK  6 active torsions:
REMARK  status: ('A' for Active; 'I' for Inactive)
REMARK       I    between atoms: N1_2  and  C2_3 
REMARK    1  A    between atoms: C2_3  and  C3_5 
REMARK    2  A    between atoms: C3_5  and  O2_6 
REMARK    3  A    between atoms: O2_6  and  C4_7 
REMARK    4  A    between atoms: C8_11  and  N2_12 
REMARK    5  A    between atoms: N2_12  and  C9_13 
REMARK    6  A    between atoms: C12_18  and  N4_19 
ROOT
HETATM    1  C9  UNL     1      22.808   2.882  50.053  1.00  0.00     0.728 A 
HETATM    2  N3  UNL     1      21.574   2.678  50.499  1.00  0.00    -0.072 NA
HETATM    3  C10 UNL     1      21.228   2.106  51.659  1.00  0.00     0.182 A 
HETATM    4  C11 UNL     1      22.252   1.685  52.475  1.00  0.00     0.180 A 
HETATM    5  F1  UNL     1      21.950   1.110  53.640  1.00  0.00    -0.200 F 
HETATM    6  C12 UNL     1      23.536   1.864  52.079  1.00  0.00     0.185 A 
HETATM    7  N6  UNL     1      23.757   2.449  50.896  1.00  0.00    -0.042 NA
ENDROOT
BRANCH   1   8
HETATM    8  N2  UNL     1      23.198   3.483  48.834  1.00  0.00    -0.188 N 
HETATM    9  H10 UNL     1      23.062   2.908  47.949  1.00  0.00     0.184 HD
BRANCH   8  10
HETATM   10  C8  UNL     1      23.755   4.767  48.636  1.00  0.00     0.052 A 
HETATM   11  C7  UNL     1      22.976   5.809  48.163  1.00  0.00     0.030 A 
HETATM   12  C6  UNL     1      23.464   7.077  47.951  1.00  0.00     0.005 A 
HETATM   13  C5  UNL     1      24.781   7.379  48.205  1.00  0.00     0.037 A 
HETATM   14  C4  UNL     1      25.580   6.385  48.669  1.00  0.00     0.071 A 
HETATM   15  C20 UNL     1      25.063   5.126  48.872  1.00  0.00     0.066 A 
BRANCH  14  16
HETATM   16  O2  UNL     1      26.898   6.623  48.940  1.00  0.00    -0.342 OA
BRANCH  16  17
HETATM   17  C3  UNL     1      27.906   6.984  48.054  1.00  0.00     0.278 C 
BRANCH  17  18
HETATM   18  C2  UNL     1      29.109   6.120  48.336  1.00  0.00     0.241 C 
HETATM   19  N1  UNL     1      30.179   6.795  49.018  1.00  0.00    -0.364 N 
HETATM   20  C1  UNL     1      31.379   6.050  49.334  1.00  0.00     0.149 C 
HETATM   21  H4  UNL     1      30.131   7.817  49.303  1.00  0.00     0.161 HD
HETATM   22  O1  UNL     1      29.475   4.920  48.141  1.00  0.00    -0.271 OA
ENDBRANCH  17  18
ENDBRANCH  16  17
ENDBRANCH  14  16
ENDBRANCH   8  10
ENDBRANCH   1   8
BRANCH   6  23
HETATM   23  N4  UNL     1      24.648   1.453  52.873  1.00  0.00    -0.357 N 
HETATM   24  C13 UNL     1      25.437   2.457  53.604  1.00  0.00     0.154 C 
HETATM   25  C14 UNL     1      26.902   2.189  53.376  1.00  0.00     0.027 C 
HETATM   26  C15 UNL     1      27.214   0.913  53.537  1.00  0.00     0.075 C 
HETATM   27  O3  UNL     1      28.546   0.570  53.347  1.00  0.00    -0.278 OA
HETATM   28  C18 UNL     1      26.200  -0.093  53.899  1.00  0.00     0.159 C 
HETATM   29  C16 UNL     1      29.050  -0.736  53.547  1.00  0.00     0.442 C 
HETATM   30  F2  UNL     1      30.068  -0.958  52.609  1.00  0.00    -0.165 F 
HETATM   31  F3  UNL     1      29.599  -0.899  54.795  1.00  0.00    -0.165 F 
HETATM   32  C17 UNL     1      28.020  -1.780  53.284  1.00  0.00     0.321 C 
HETATM   33  O4  UNL     1      28.114  -2.891  52.725  1.00  0.00    -0.264 OA
HETATM   34  N5  UNL     1      26.716  -1.428  53.757  1.00  0.00    -0.342 N 
HETATM   35  H15 UNL     1      25.978  -2.112  54.061  1.00  0.00     0.163 HD
HETATM   36  C19 UNL     1      25.016   0.053  52.978  1.00  0.00     0.156 C 
ENDBRANCH   6  23
TORSDOF 6
ENDMDL
MODEL 5
REMARK VINA RESULT:      -8.9      3.780      8.727
REMARK  6 active torsions:
REMARK  status: ('A' for Active; 'I' for Inactive)
REMARK       I    between atoms: N1_2  and  C2_3 
REMARK    1  A    between atoms: C2_3  and  C3_5 
REMARK    2  A    between atoms: C3_5  and  O2_6 
REMARK    3  A    between atoms: O2_6  and  C4_7 
REMARK    4  A    between atoms: C8_11  and  N2_12 
REMARK    5  A    between atoms: N2_12  and  C9_13 
REMARK    6  A    between atoms: C12_18  and  N4_19 
ROOT
HETATM    1  C9  UNL     1      25.871   6.294  49.190  1.00  0.00     0.728 A 
HETATM    2  N3  UNL     1      24.980   7.078  49.785  1.00  0.00    -0.072 NA
HETATM    3  C10 UNL     1      24.111   6.722  50.738  1.00  0.00     0.182 A 
HETATM    4  C11 UNL     1      24.140   5.409  51.147  1.00  0.00     0.180 A 
HETATM    5  F1  UNL     1      23.290   5.013  52.096  1.00  0.00    -0.200 F 
HETATM    6  C12 UNL     1      25.027   4.554  50.581  1.00  0.00     0.185 A 
HETATM    7  N6  UNL     1      25.846   5.029  49.635  1.00  0.00    -0.042 NA
ENDROOT
BRANCH   1   8
HETATM    8  N2  UNL     1      26.798   6.646  48.183  1.00  0.00    -0.188 N 
HETATM    9  H10 UNL     1      26.410   6.803  47.205  1.00  0.00     0.184 HD
BRANCH   8  10
HETATM   10  C8  UNL     1      28.195   6.820  48.308  1.00  0.00     0.052 A 
HETATM   11  C7  UNL     1      28.742   8.086  48.437  1.00  0.00     0.030 A 
HETATM   12  C6  UNL     1      30.091   8.314  48.561  1.00  0.00     0.005 A 
HETATM   13  C5  UNL     1      30.987   7.271  48.564  1.00  0.00     0.037 A 
HETATM   14  C4  UNL     1      30.494   6.013  48.440  1.00  0.00     0.071 A 
HETATM   15  C20 UNL     1      29.137   5.816  48.317  1.00  0.00     0.066 A 
BRANCH  14  16
HETATM   16  O2  UNL     1      31.333   4.934  48.435  1.00  0.00    -0.342 OA
BRANCH  16  17
HETATM   17  C3  UNL     1      32.028   4.390  47.362  1.00  0.00     0.278 C 
BRANCH  17  18
HETATM   18  C2  UNL     1      33.477   4.788  47.492  1.00  0.00     0.241 C 
HETATM   19  N1  UNL     1      33.898   5.067  48.838  1.00  0.00    -0.364 N 
HETATM   20  C1  UNL     1      35.272   5.459  49.067  1.00  0.00     0.149 C 
HETATM   21  H4  UNL     1      33.247   4.999  49.674  1.00  0.00     0.161 HD
HETATM   22  O1  UNL     1      34.480   4.959  46.733  1.00  0.00    -0.271 OA
ENDBRANCH  17  18
ENDBRANCH  16  17
ENDBRANCH  14  16
ENDBRANCH   8  10
ENDBRANCH   1   8
BRANCH   6  23
HETATM   23  N4  UNL     1      25.114   3.180  50.955  1.00  0.00    -0.357 N 
HETATM   24  C13 UNL     1      23.954   2.295  50.764  1.00  0.00     0.154 C 
HETATM   25  C14 UNL     1      23.740   1.489  52.018  1.00  0.00     0.027 C 
HETATM   26  C15 UNL     1      24.862   0.958  52.477  1.00  0.00     0.075 C 
HETATM   27  O3  UNL     1      24.763   0.196  53.633  1.00  0.00    -0.278 OA
HETATM   28  C18 UNL     1      26.152   1.163  51.795  1.00  0.00     0.159 C 
HETATM   29  C16 UNL     1      25.855  -0.492  54.210  1.00  0.00     0.442 C 
HETATM   30  F2  UNL     1      25.698  -0.469  55.602  1.00  0.00    -0.165 F 
HETATM   31  F3  UNL     1      25.906  -1.808  53.823  1.00  0.00    -0.165 F 
HETATM   32  C17 UNL     1      27.153   0.188  53.936  1.00  0.00     0.321 C 
HETATM   33  O4  UNL     1      28.147   0.365  54.666  1.00  0.00    -0.264 OA
HETATM   34  N5  UNL     1      27.250   0.720  52.610  1.00  0.00    -0.342 N 
HETATM   35  H15 UNL     1      28.145   0.847  52.074  1.00  0.00     0.163 HD
HETATM   36  C19 UNL     1      26.332   2.635  51.523  1.00  0.00     0.156 C 
ENDBRANCH   6  23
TORSDOF 6
ENDMDL
MODEL 6
REMARK VINA RESULT:      -8.8      3.841      8.841
REMARK  6 active torsions:
REMARK  status: ('A' for Active; 'I' for Inactive)
REMARK       I    between atoms: N1_2  and  C2_3 
REMARK    1  A    between atoms: C2_3  and  C3_5 
REMARK    2  A    between atoms: C3_5  and  O2_6 
REMARK    3  A    between atoms: O2_6  and  C4_7 
REMARK    4  A    between atoms: C8_11  and  N2_12 
REMARK    5  A    between atoms: N2_12  and  C9_13 
REMARK    6  A    between atoms: C12_18  and  N4_19 
ROOT
HETATM    1  C9  UNL     1      26.368   2.685  50.792  1.00  0.00     0.728 A 
HETATM    2  N3  UNL     1      27.344   2.582  51.686  1.00  0.00    -0.072 NA
HETATM    3  C10 UNL     1      27.240   2.110  52.934  1.00  0.00     0.182 A 
HETATM    4  C11 UNL     1      25.995   1.687  53.337  1.00  0.00     0.180 A 
HETATM    5  F1  UNL     1      25.847   1.209  54.574  1.00  0.00    -0.200 F 
HETATM    6  C12 UNL     1      24.953   1.764  52.472  1.00  0.00     0.185 A 
HETATM    7  N6  UNL     1      25.183   2.256  51.249  1.00  0.00    -0.042 NA
ENDROOT
BRANCH   1   8
HETATM    8  N2  UNL     1      26.454   3.179  49.471  1.00  0.00    -0.188 N 
HETATM    9  H10 UNL     1      26.221   2.499  48.687  1.00  0.00     0.184 HD
BRANCH   8  10
HETATM   10  C8  UNL     1      26.814   4.479  49.050  1.00  0.00     0.052 A 
HETATM   11  C7  UNL     1      25.885   5.506  49.049  1.00  0.00     0.030 A 
HETATM   12  C6  UNL     1      26.179   6.788  48.650  1.00  0.00     0.005 A 
HETATM   13  C5  UNL     1      27.442   7.121  48.220  1.00  0.00     0.037 A 
HETATM   14  C4  UNL     1      28.384   6.145  48.204  1.00  0.00     0.071 A 
HETATM   15  C20 UNL     1      28.058   4.870  48.610  1.00  0.00     0.066 A 
BRANCH  14  16
HETATM   16  O2  UNL     1      29.657   6.414  47.787  1.00  0.00    -0.342 OA
BRANCH  16  17
HETATM   17  C3  UNL     1      30.688   7.011  48.503  1.00  0.00     0.278 C 
BRANCH  17  18
HETATM   18  C2  UNL     1      31.816   6.017  48.615  1.00  0.00     0.241 C 
HETATM   19  N1  UNL     1      33.127   6.608  48.645  1.00  0.00    -0.364 N 
HETATM   20  C1  UNL     1      34.277   5.737  48.750  1.00  0.00     0.149 C 
HETATM   21  H4  UNL     1      33.291   7.655  48.594  1.00  0.00     0.161 HD
HETATM   22  O1  UNL     1      31.961   4.759  48.692  1.00  0.00    -0.271 OA
ENDBRANCH  17  18
ENDBRANCH  16  17
ENDBRANCH  14  16
ENDBRANCH   8  10
ENDBRANCH   1   8
BRANCH   6  23
HETATM   23  N4  UNL     1      23.635   1.344  52.821  1.00  0.00    -0.357 N 
HETATM   24  C13 UNL     1      23.425   0.017  53.422  1.00  0.00     0.154 C 
HETATM   25  C14 UNL     1      22.274  -0.660  52.724  1.00  0.00     0.027 C 
HETATM   26  C15 UNL     1      21.226   0.136  52.586  1.00  0.00     0.075 C 
HETATM   27  O3  UNL     1      20.115  -0.403  51.953  1.00  0.00    -0.278 OA
HETATM   28  C18 UNL     1      21.237   1.524  53.080  1.00  0.00     0.159 C 
HETATM   29  C16 UNL     1      18.896   0.295  51.789  1.00  0.00     0.442 C 
HETATM   30  F2  UNL     1      18.334  -0.092  50.565  1.00  0.00    -0.165 F 
HETATM   31  F3  UNL     1      17.986  -0.006  52.773  1.00  0.00    -0.165 F 
HETATM   32  C17 UNL     1      19.102   1.767  51.694  1.00  0.00     0.321 C 
HETATM   33  O4  UNL     1      18.551   2.620  50.972  1.00  0.00    -0.264 OA
HETATM   34  N5  UNL     1      20.105   2.262  52.588  1.00  0.00    -0.342 N 
HETATM   35  H15 UNL     1      20.129   3.231  52.993  1.00  0.00     0.163 HD
HETATM   36  C19 UNL     1      22.490   2.206  52.594  1.00  0.00     0.156 C 
ENDBRANCH   6  23
TORSDOF 6
ENDMDL
MODEL 7
REMARK VINA RESULT:      -8.8      3.035      4.493
REMARK  6 active torsions:
REMARK  status: ('A' for Active; 'I' for Inactive)
REMARK       I    between atoms: N1_2  and  C2_3 
REMARK    1  A    between atoms: C2_3  and  C3_5 
REMARK    2  A    between atoms: C3_5  and  O2_6 
REMARK    3  A    between atoms: O2_6  and  C4_7 
REMARK    4  A    between atoms: C8_11  and  N2_12 
REMARK    5  A    between atoms: N2_12  and  C9_13 
REMARK    6  A    between atoms: C12_18  and  N4_19 
ROOT
HETATM    1  C9  UNL     1      25.399   4.491  50.504  1.00  0.00     0.728 A 
HETATM    2  N3  UNL     1      26.266   3.696  49.888  1.00  0.00    -0.072 NA
HETATM    3  C10 UNL     1      27.189   4.061  48.990  1.00  0.00     0.182 A 
HETATM    4  C11 UNL     1      27.250   5.397  48.670  1.00  0.00     0.180 A 
HETATM    5  F1  UNL     1      28.156   5.804  47.779  1.00  0.00    -0.200 F 
HETATM    6  C12 UNL     1      26.393   6.265  49.263  1.00  0.00     0.185 A 
HETATM    7  N6  UNL     1      25.513   5.779  50.146  1.00  0.00    -0.042 NA
ENDROOT
BRANCH   1   8
HETATM    8  N2  UNL     1      24.417   4.129  51.454  1.00  0.00    -0.188 N 
HETATM    9  H10 UNL     1      23.793   4.908  51.822  1.00  0.00     0.184 HD
BRANCH   8  10
HETATM   10  C8  UNL     1      24.153   2.847  51.987  1.00  0.00     0.052 A 
HETATM   11  C7  UNL     1      22.881   2.304  51.927  1.00  0.00     0.030 A 
HETATM   12  C6  UNL     1      22.567   1.064  52.429  1.00  0.00     0.005 A 
HETATM   13  C5  UNL     1      23.525   0.283  53.031  1.00  0.00     0.037 A 
HETATM   14  C4  UNL     1      24.786   0.777  53.112  1.00  0.00     0.071 A 
HETATM   15  C20 UNL     1      25.069   2.023  52.600  1.00  0.00     0.066 A 
BRANCH  14  16
HETATM   16  O2  UNL     1      25.782   0.048  53.700  1.00  0.00    -0.342 OA
BRANCH  16  17
HETATM   17  C3  UNL     1      26.382   0.252  54.936  1.00  0.00     0.278 C 
BRANCH  17  18
HETATM   18  C2  UNL     1      27.876   0.276  54.733  1.00  0.00     0.241 C 
HETATM   19  N1  UNL     1      28.390  -0.835  53.979  1.00  0.00    -0.364 N 
HETATM   20  C1  UNL     1      29.814  -0.903  53.729  1.00  0.00     0.149 C 
HETATM   21  H4  UNL     1      27.774  -1.609  53.595  1.00  0.00     0.161 HD
HETATM   22  O1  UNL     1      28.858   1.017  55.043  1.00  0.00    -0.271 OA
ENDBRANCH  17  18
ENDBRANCH  16  17
ENDBRANCH  14  16
ENDBRANCH   8  10
ENDBRANCH   1   8
BRANCH   6  23
HETATM   23  N4  UNL     1      26.398   7.663  48.980  1.00  0.00    -0.357 N 
HETATM   24  C13 UNL     1      25.407   8.225  48.048  1.00  0.00     0.154 C 
HETATM   25  C14 UNL     1      26.110   9.140  47.079  1.00  0.00     0.027 C 
HETATM   26  C15 UNL     1      26.943   9.974  47.682  1.00  0.00     0.075 C 
HETATM   27  O3  UNL     1      27.637  10.857  46.867  1.00  0.00    -0.278 OA
HETATM   28  C18 UNL     1      27.124   9.965  49.144  1.00  0.00     0.159 C 
HETATM   29  C16 UNL     1      28.511  11.852  47.363  1.00  0.00     0.442 C 
HETATM   30  F2  UNL     1      29.562  12.004  46.448  1.00  0.00    -0.165 F 
HETATM   31  F3  UNL     1      27.895  13.073  47.487  1.00  0.00    -0.165 F 
HETATM   32  C17 UNL     1      29.146  11.449  48.649  1.00  0.00     0.321 C 
HETATM   33  O4  UNL     1      30.309  11.613  49.067  1.00  0.00    -0.264 OA
HETATM   34  N5  UNL     1      28.256  10.761  49.535  1.00  0.00    -0.342 N 
HETATM   35  H15 UNL     1      28.328  10.760  50.583  1.00  0.00     0.163 HD
HETATM   36  C19 UNL     1      27.368   8.548  49.598  1.00  0.00     0.156 C 
ENDBRANCH   6  23
TORSDOF 6
ENDMDL
MODEL 8
REMARK VINA RESULT:      -8.5      4.562      7.291
REMARK  6 active torsions:
REMARK  status: ('A' for Active; 'I' for Inactive)
REMARK       I    between atoms: N1_2  and  C2_3 
REMARK    1  A    between atoms: C2_3  and  C3_5 
REMARK    2  A    between atoms: C3_5  and  O2_6 
REMARK    3  A    between atoms: O2_6  and  C4_7 
REMARK    4  A    between atoms: C8_11  and  N2_12 
REMARK    5  A    between atoms: N2_12  and  C9_13 
REMARK    6  A    between atoms: C12_18  and  N4_19 
ROOT
HETATM    1  C9  UNL     1      21.091   2.856  50.959  1.00  0.00     0.728 A 
HETATM    2  N3  UNL     1      20.746   4.134  51.063  1.00  0.00    -0.072 NA
HETATM    3  C10 UNL     1      21.534   5.147  51.443  1.00  0.00     0.182 A 
HETATM    4  C11 UNL     1      22.837   4.837  51.759  1.00  0.00     0.180 A 
HETATM    5  F1  UNL     1      23.656   5.817  52.142  1.00  0.00    -0.200 F 
HETATM    6  C12 UNL     1      23.255   3.550  51.674  1.00  0.00     0.185 A 
HETATM    7  N6  UNL     1      22.372   2.624  51.282  1.00  0.00    -0.042 NA
ENDROOT
BRANCH   1   8
HETATM    8  N2  UNL     1      20.278   1.771  50.561  1.00  0.00    -0.188 N 
HETATM    9  H10 UNL     1      20.131   1.638  49.516  1.00  0.00     0.184 HD
BRANCH   8  10
HETATM   10  C8  UNL     1      19.624   0.826  51.384  1.00  0.00     0.052 A 
HETATM   11  C7  UNL     1      20.202   0.399  52.568  1.00  0.00     0.030 A 
HETATM   12  C6  UNL     1      19.613  -0.518  53.406  1.00  0.00     0.005 A 
HETATM   13  C5  UNL     1      18.391  -1.070  53.101  1.00  0.00     0.037 A 
HETATM   14  C4  UNL     1      17.789  -0.681  51.948  1.00  0.00     0.071 A 
HETATM   15  C20 UNL     1      18.405   0.240  51.130  1.00  0.00     0.066 A 
BRANCH  14  16
HETATM   16  O2  UNL     1      16.575  -1.194  51.590  1.00  0.00    -0.342 OA
BRANCH  16  17
HETATM   17  C3  UNL     1      15.413  -1.263  52.350  1.00  0.00     0.278 C 
BRANCH  17  18
HETATM   18  C2  UNL     1      14.956  -2.699  52.378  1.00  0.00     0.241 C 
HETATM   19  N1  UNL     1      15.670  -3.531  53.308  1.00  0.00    -0.364 N 
HETATM   20  C1  UNL     1      15.306  -4.928  53.409  1.00  0.00     0.149 C 
HETATM   21  H4  UNL     1      16.454  -3.169  53.926  1.00  0.00     0.161 HD
HETATM   22  O1  UNL     1      14.091  -3.426  51.799  1.00  0.00    -0.271 OA
ENDBRANCH  17  18
ENDBRANCH  16  17
ENDBRANCH  14  16
ENDBRANCH   8  10
ENDBRANCH   1   8
BRANCH   6  23
HETATM   23  N4  UNL     1      24.590   3.155  51.986  1.00  0.00    -0.357 N 
HETATM   24  C13 UNL     1      25.649   3.292  50.973  1.00  0.00     0.154 C 
HETATM   25  C14 UNL     1      26.450   2.018  50.926  1.00  0.00     0.027 C 
HETATM   26  C15 UNL     1      26.790   1.588  52.131  1.00  0.00     0.075 C 
HETATM   27  O3  UNL     1      27.532   0.416  52.187  1.00  0.00    -0.278 OA
HETATM   28  C18 UNL     1      26.401   2.316  53.351  1.00  0.00     0.159 C 
HETATM   29  C16 UNL     1      28.028  -0.136  53.390  1.00  0.00     0.442 C 
HETATM   30  F2  UNL     1      28.000  -1.532  53.274  1.00  0.00    -0.165 F 
HETATM   31  F3  UNL     1      29.329   0.230  53.635  1.00  0.00    -0.165 F 
HETATM   32  C17 UNL     1      27.160   0.193  54.556  1.00  0.00     0.321 C 
HETATM   33  O4  UNL     1      26.815  -0.501  55.533  1.00  0.00    -0.264 OA
HETATM   34  N5  UNL     1      26.650   1.530  54.530  1.00  0.00    -0.342 N 
HETATM   35  H15 UNL     1      26.396   2.097  55.377  1.00  0.00     0.163 HD
HETATM   36  C19 UNL     1      24.926   2.618  53.291  1.00  0.00     0.156 C 
ENDBRANCH   6  23
TORSDOF 6
ENDMDL
MODEL 9
REMARK VINA RESULT:      -8.5      5.432      8.375
REMARK  6 active torsions:
REMARK  status: ('A' for Active; 'I' for Inactive)
REMARK       I    between atoms: N1_2  and  C2_3 
REMARK    1  A    between atoms: C2_3  and  C3_5 
REMARK    2  A    between atoms: C3_5  and  O2_6 
REMARK    3  A    between atoms: O2_6  and  C4_7 
REMARK    4  A    between atoms: C8_11  and  N2_12 
REMARK    5  A    between atoms: N2_12  and  C9_13 
REMARK    6  A    between atoms: C12_18  and  N4_19 
ROOT
HETATM    1  C9  UNL     1      20.299   2.099  51.330  1.00  0.00     0.728 A 
HETATM    2  N3  UNL     1      20.382   3.382  51.665  1.00  0.00    -0.072 NA
HETATM    3  C10 UNL     1      21.432   3.999  52.219  1.00  0.00     0.182 A 
HETATM    4  C11 UNL     1      22.544   3.228  52.470  1.00  0.00     0.180 A 
HETATM    5  F1  UNL     1      23.614   3.803  53.022  1.00  0.00    -0.200 F 
HETATM    6  C12 UNL     1      22.527   1.910  52.152  1.00  0.00     0.185 A 
HETATM    7  N6  UNL     1      21.416   1.408  51.602  1.00  0.00    -0.042 NA
ENDROOT
BRANCH   1   8
HETATM    8  N2  UNL     1      19.203   1.427  50.745  1.00  0.00    -0.188 N 
HETATM    9  H10 UNL     1      19.173   1.390  49.682  1.00  0.00     0.184 HD
BRANCH   8  10
HETATM   10  C8  UNL     1      18.124   0.790  51.398  1.00  0.00     0.052 A 
HETATM   11  C7  UNL     1      18.289  -0.451  51.990  1.00  0.00     0.030 A 
HETATM   12  C6  UNL     1      17.276  -1.118  52.637  1.00  0.00     0.005 A 
HETATM   13  C5  UNL     1      16.018  -0.571  52.730  1.00  0.00     0.037 A 
HETATM   14  C4  UNL     1      15.811   0.644  52.163  1.00  0.00     0.071 A 
HETATM   15  C20 UNL     1      16.846   1.287  51.521  1.00  0.00     0.066 A 
BRANCH  14  16
HETATM   16  O2  UNL     1      14.583   1.239  52.222  1.00  0.00    -0.342 OA
BRANCH  16  17
HETATM   17  C3  UNL     1      14.281   2.558  52.538  1.00  0.00     0.278 C 
BRANCH  17  18
HETATM   18  C2  UNL     1      13.029   2.563  53.378  1.00  0.00     0.241 C 
HETATM   19  N1  UNL     1      12.928   1.465  54.300  1.00  0.00    -0.364 N 
HETATM   20  C1  UNL     1      11.761   1.380  55.152  1.00  0.00     0.149 C 
HETATM   21  H4  UNL     1      13.670   0.711  54.386  1.00  0.00     0.161 HD
HETATM   22  O1  UNL     1      11.991   3.280  53.520  1.00  0.00    -0.271 OA
ENDBRANCH  17  18
ENDBRANCH  16  17
ENDBRANCH  14  16
ENDBRANCH   8  10
ENDBRANCH   1   8
BRANCH   6  23
HETATM   23  N4  UNL     1      23.642   1.051  52.384  1.00  0.00    -0.357 N 
HETATM   24  C13 UNL     1      23.438  -0.257  53.028  1.00  0.00     0.154 C 
HETATM   25  C14 UNL     1      24.471  -0.437  54.109  1.00  0.00     0.027 C 
HETATM   26  C15 UNL     1      25.692  -0.126  53.700  1.00  0.00     0.075 C 
HETATM   27  O3  UNL     1      26.712  -0.262  54.631  1.00  0.00    -0.278 OA
HETATM   28  C18 UNL     1      25.953   0.340  52.327  1.00  0.00     0.159 C 
HETATM   29  C16 UNL     1      28.075  -0.035  54.331  1.00  0.00     0.442 C 
HETATM   30  F2  UNL     1      28.686   0.509  55.469  1.00  0.00    -0.165 F 
HETATM   31  F3  UNL     1      28.742  -1.195  54.022  1.00  0.00    -0.165 F 
HETATM   32  C17 UNL     1      28.250   0.977  53.252  1.00  0.00     0.321 C 
HETATM   33  O4  UNL     1      29.087   1.892  53.125  1.00  0.00    -0.264 OA
HETATM   34  N5  UNL     1      27.287   0.861  52.199  1.00  0.00    -0.342 N 
HETATM   35  H15 UNL     1      27.447   1.146  51.200  1.00  0.00     0.163 HD
HETATM   36  C19 UNL     1      24.983   1.443  51.992  1.00  0.00     0.156 C 
ENDBRANCH   6  23
TORSDOF 6
ENDMDL
