MODEL 1
REMARK VINA RESULT:      -7.6      0.000      0.000
REMARK  1 active torsions:
REMARK  status: ('A' for Active; 'I' for Inactive)
REMARK    1  A    between atoms: C9_14  and  N5_15 
ROOT
HETATM    1  C1  UNL     1      20.317   4.323  51.205  1.00  0.00     0.050 C 
HETATM    2  C2  UNL     1      20.833   2.883  51.047  1.00  0.00     0.274 C 
HETATM    3  N1  UNL     1      21.915   2.651  51.992  1.00  0.00     0.095 N 
HETATM    4  C3  UNL     1      23.016   3.569  51.753  1.00  0.00     0.287 C 
HETATM    5  C4  UNL     1      24.100   3.299  52.769  1.00  0.00     0.150 C 
HETATM    6  N2  UNL     1      24.590   1.943  52.691  1.00  0.00    -0.195 NA
HETATM    7  C5  UNL     1      25.374   1.591  53.830  1.00  0.00     0.130 C 
HETATM    8  C6  UNL     1      26.190   0.344  53.666  1.00  0.00     0.043 C 
HETATM    9  C7  UNL     1      25.489  -0.865  54.176  1.00  0.00     0.097 C 
HETATM   10  N3  UNL     1      24.512  -0.612  54.976  1.00  0.00    -0.257 NA
HETATM   11  C8  UNL     1      23.702  -1.575  55.584  1.00  0.00     0.241 C 
HETATM   12  N4  UNL     1      22.488  -1.434  55.173  1.00  0.00    -0.203 NA
HETATM   13  S1  UNL     1      22.082  -0.163  54.015  1.00  0.00     0.029 SA
HETATM   14  C9  UNL     1      20.381  -0.474  53.486  1.00  0.00     0.083 C 
HETATM   15  C10 UNL     1      19.353  -0.129  52.748  1.00  0.00     0.024 C 
HETATM   16  C11 UNL     1      19.945   1.034  52.101  1.00  0.00     0.085 C 
HETATM   17  C12 UNL     1      19.682   2.011  51.210  1.00  0.00     0.113 C 
HETATM   18  F1  UNL     1      18.855   2.657  50.321  1.00  0.00    -0.212 F 
HETATM   19  C13 UNL     1      26.590   0.088  52.233  1.00  0.00     0.039 C 
HETATM   20  C14 UNL     1      26.495   1.468  51.565  1.00  0.00     0.194 C 
HETATM   21  O1  UNL     1      25.132   1.733  51.512  1.00  0.00    -0.303 OA
HETATM   22  H5  UNL     1      22.306   1.705  51.695  1.00  0.00     0.316 HD
ENDROOT
BRANCH  14  23
HETATM   23  N5  UNL     1      20.431  -1.600  54.391  1.00  0.00    -0.393 N 
HETATM   24  H15 UNL     1      21.062  -2.246  54.950  1.00  0.00     0.156 HD
HETATM   25  H16 UNL     1      19.894  -2.321  54.929  1.00  0.00     0.156 HD
ENDBRANCH  14  23
TORSDOF 1
ENDMDL
MODEL 2
REMARK VINA RESULT:      -7.5      2.609      5.390
REMARK  1 active torsions:
REMARK  status: ('A' for Active; 'I' for Inactive)
REMARK    1  A    between atoms: C9_14  and  N5_15 
ROOT
HETATM    1  C1  UNL     1      26.273  -0.468  52.619  1.00  0.00     0.050 C 
HETATM    2  C2  UNL     1      25.165   0.328  53.328  1.00  0.00     0.274 C 
HETATM    3  N1  UNL     1      24.319   0.971  52.333  1.00  0.00     0.095 N 
HETATM    4  C3  UNL     1      25.093   1.883  51.508  1.00  0.00     0.287 C 
HETATM    5  C4  UNL     1      24.175   2.506  50.484  1.00  0.00     0.150 C 
HETATM    6  N2  UNL     1      23.089   3.233  51.101  1.00  0.00    -0.195 NA
HETATM    7  C5  UNL     1      22.060   3.553  50.165  1.00  0.00     0.130 C 
HETATM    8  C6  UNL     1      21.083   4.585  50.641  1.00  0.00     0.043 C 
HETATM    9  C7  UNL     1      19.878   3.979  51.270  1.00  0.00     0.097 C 
HETATM   10  N3  UNL     1      19.699   2.737  50.981  1.00  0.00    -0.257 NA
HETATM   11  C8  UNL     1      18.643   1.949  51.447  1.00  0.00     0.241 C 
HETATM   12  N4  UNL     1      19.112   0.993  52.175  1.00  0.00    -0.203 NA
HETATM   13  S1  UNL     1      20.853   0.848  52.440  1.00  0.00     0.029 SA
HETATM   14  C9  UNL     1      21.075  -0.415  53.715  1.00  0.00     0.083 C 
HETATM   15  C10 UNL     1      21.884  -1.112  54.477  1.00  0.00     0.024 C 
HETATM   16  C11 UNL     1      23.143  -0.542  54.018  1.00  0.00     0.085 C 
HETATM   17  C12 UNL     1      24.477  -0.609  54.201  1.00  0.00     0.113 C 
HETATM   18  F1  UNL     1      25.597  -1.122  54.812  1.00  0.00    -0.212 F 
HETATM   19  C13 UNL     1      21.687   5.559  51.623  1.00  0.00     0.039 C 
HETATM   20  C14 UNL     1      23.196   5.480  51.349  1.00  0.00     0.194 C 
HETATM   21  O1  UNL     1      23.567   4.225  51.818  1.00  0.00    -0.303 OA
HETATM   22  H5  UNL     1      23.700   1.617  52.913  1.00  0.00     0.316 HD
ENDROOT
BRANCH  14  23
HETATM   23  N5  UNL     1      19.633  -0.517  53.698  1.00  0.00    -0.393 N 
HETATM   24  H15 UNL     1      18.803  -1.164  53.556  1.00  0.00     0.156 HD
HETATM   25  H16 UNL     1      18.716  -0.024  53.807  1.00  0.00     0.156 HD
ENDBRANCH  14  23
TORSDOF 1
ENDMDL
MODEL 3
REMARK VINA RESULT:      -7.5      2.802      5.520
REMARK  1 active torsions:
REMARK  status: ('A' for Active; 'I' for Inactive)
REMARK    1  A    between atoms: C9_14  and  N5_15 
ROOT
HETATM    1  C1  UNL     1      20.793   0.232  54.860  1.00  0.00     0.050 C 
HETATM    2  C2  UNL     1      21.578  -0.035  53.566  1.00  0.00     0.274 C 
HETATM    3  N1  UNL     1      22.015   1.231  52.995  1.00  0.00     0.095 N 
HETATM    4  C3  UNL     1      20.876   2.077  52.682  1.00  0.00     0.287 C 
HETATM    5  C4  UNL     1      21.383   3.380  52.113  1.00  0.00     0.150 C 
HETATM    6  N2  UNL     1      22.166   3.180  50.916  1.00  0.00    -0.195 NA
HETATM    7  C5  UNL     1      22.899   4.350  50.554  1.00  0.00     0.130 C 
HETATM    8  C6  UNL     1      23.453   4.334  49.161  1.00  0.00     0.043 C 
HETATM    9  C7  UNL     1      24.853   3.832  49.112  1.00  0.00     0.097 C 
HETATM   10  N3  UNL     1      25.461   3.849  50.247  1.00  0.00    -0.257 NA
HETATM   11  C8  UNL     1      26.777   3.430  50.457  1.00  0.00     0.241 C 
HETATM   12  N4  UNL     1      26.780   2.419  51.259  1.00  0.00    -0.203 NA
HETATM   13  S1  UNL     1      25.260   1.788  51.901  1.00  0.00     0.029 SA
HETATM   14  C9  UNL     1      25.660   0.233  52.733  1.00  0.00     0.083 C 
HETATM   15  C10 UNL     1      25.256  -0.817  53.408  1.00  0.00     0.024 C 
HETATM   16  C11 UNL     1      23.836  -0.496  53.458  1.00  0.00     0.085 C 
HETATM   17  C12 UNL     1      22.652  -0.950  53.916  1.00  0.00     0.113 C 
HETATM   18  F1  UNL     1      21.876  -1.874  54.575  1.00  0.00    -0.212 F 
HETATM   19  C13 UNL     1      22.622   3.510  48.207  1.00  0.00     0.039 C 
HETATM   20  C14 UNL     1      21.238   3.453  48.870  1.00  0.00     0.194 C 
HETATM   21  O1  UNL     1      21.419   2.637  49.981  1.00  0.00    -0.303 OA
HETATM   22  H5  UNL     1      22.395   0.955  52.038  1.00  0.00     0.316 HD
ENDROOT
BRANCH  14  23
HETATM   23  N5  UNL     1      27.023   0.511  52.341  1.00  0.00    -0.393 N 
HETATM   24  H15 UNL     1      27.665   1.177  51.818  1.00  0.00     0.156 HD
HETATM   25  H16 UNL     1      28.025   0.209  52.368  1.00  0.00     0.156 HD
ENDBRANCH  14  23
TORSDOF 1
ENDMDL
MODEL 4
REMARK VINA RESULT:      -7.5      2.973      6.687
REMARK  1 active torsions:
REMARK  status: ('A' for Active; 'I' for Inactive)
REMARK    1  A    between atoms: C9_14  and  N5_15 
ROOT
HETATM    1  C1  UNL     1      25.738  -0.889  54.092  1.00  0.00     0.050 C 
HETATM    2  C2  UNL     1      25.237  -0.355  52.740  1.00  0.00     0.274 C 
HETATM    3  N1  UNL     1      24.048   0.457  52.952  1.00  0.00     0.095 N 
HETATM    4  C3  UNL     1      22.988  -0.325  53.565  1.00  0.00     0.287 C 
HETATM    5  C4  UNL     1      21.790   0.567  53.779  1.00  0.00     0.150 C 
HETATM    6  N2  UNL     1      21.305   1.130  52.541  1.00  0.00    -0.195 NA
HETATM    7  C5  UNL     1      20.388   2.201  52.762  1.00  0.00     0.130 C 
HETATM    8  C6  UNL     1      19.591   2.601  51.557  1.00  0.00     0.043 C 
HETATM    9  C7  UNL     1      20.221   3.721  50.806  1.00  0.00     0.097 C 
HETATM   10  N3  UNL     1      21.096   4.383  51.479  1.00  0.00    -0.257 NA
HETATM   11  C8  UNL     1      21.822   5.475  50.995  1.00  0.00     0.241 C 
HETATM   12  N4  UNL     1      23.077   5.180  50.980  1.00  0.00    -0.203 NA
HETATM   13  S1  UNL     1      23.625   3.591  51.522  1.00  0.00     0.029 SA
HETATM   14  C9  UNL     1      25.376   3.474  51.084  1.00  0.00     0.083 C 
HETATM   15  C10 UNL     1      26.487   2.776  51.070  1.00  0.00     0.024 C 
HETATM   16  C11 UNL     1      25.983   1.574  51.718  1.00  0.00     0.085 C 
HETATM   17  C12 UNL     1      26.355   0.346  52.133  1.00  0.00     0.113 C 
HETATM   18  F1  UNL     1      27.286  -0.654  52.292  1.00  0.00    -0.212 F 
HETATM   19  C13 UNL     1      19.364   1.458  50.597  1.00  0.00     0.039 C 
HETATM   20  C14 UNL     1      19.546   0.201  51.461  1.00  0.00     0.194 C 
HETATM   21  O1  UNL     1      20.907   0.167  51.740  1.00  0.00    -0.303 OA
HETATM   22  H5  UNL     1      23.690   0.638  51.964  1.00  0.00     0.316 HD
ENDROOT
BRANCH  14  23
HETATM   23  N5  UNL     1      25.212   4.811  50.560  1.00  0.00    -0.393 N 
HETATM   24  H15 UNL     1      25.034   5.830  50.802  1.00  0.00     0.156 HD
HETATM   25  H16 UNL     1      25.181   5.426  49.713  1.00  0.00     0.156 HD
ENDBRANCH  14  23
TORSDOF 1
ENDMDL
MODEL 5
REMARK VINA RESULT:      -7.2      2.661      4.906
REMARK  1 active torsions:
REMARK  status: ('A' for Active; 'I' for Inactive)
REMARK    1  A    between atoms: C9_14  and  N5_15 
ROOT
HETATM    1  C1  UNL     1      22.297   3.193  47.711  1.00  0.00     0.050 C 
HETATM    2  C2  UNL     1      22.673   3.419  49.184  1.00  0.00     0.274 C 
HETATM    3  N1  UNL     1      22.642   2.147  49.892  1.00  0.00     0.095 N 
HETATM    4  C3  UNL     1      21.316   1.556  49.836  1.00  0.00     0.287 C 
HETATM    5  C4  UNL     1      21.343   0.235  50.565  1.00  0.00     0.150 C 
HETATM    6  N2  UNL     1      21.734   0.388  51.947  1.00  0.00    -0.195 NA
HETATM    7  C5  UNL     1      22.063  -0.863  52.552  1.00  0.00     0.130 C 
HETATM    8  C6  UNL     1      22.142  -0.832  54.048  1.00  0.00     0.043 C 
HETATM    9  C7  UNL     1      23.527  -0.596  54.539  1.00  0.00     0.097 C 
HETATM   10  N3  UNL     1      24.444  -0.822  53.664  1.00  0.00    -0.257 NA
HETATM   11  C8  UNL     1      25.816  -0.672  53.883  1.00  0.00     0.241 C 
HETATM   12  N4  UNL     1      26.275   0.248  53.105  1.00  0.00    -0.203 NA
HETATM   13  S1  UNL     1      25.195   1.093  51.992  1.00  0.00     0.029 SA
HETATM   14  C9  UNL     1      26.143   2.471  51.303  1.00  0.00     0.083 C 
HETATM   15  C10 UNL     1      26.193   3.516  50.512  1.00  0.00     0.024 C 
HETATM   16  C11 UNL     1      24.827   3.460  50.010  1.00  0.00     0.085 C 
HETATM   17  C12 UNL     1      23.965   4.085  49.183  1.00  0.00     0.113 C 
HETATM   18  F1  UNL     1      23.640   5.078  48.288  1.00  0.00    -0.212 F 
HETATM   19  C13 UNL     1      21.240   0.210  54.663  1.00  0.00     0.039 C 
HETATM   20  C14 UNL     1      20.175   0.467  53.587  1.00  0.00     0.194 C 
HETATM   21  O1  UNL     1      20.858   1.137  52.578  1.00  0.00    -0.303 OA
HETATM   22  H5  UNL     1      22.751   2.428  50.915  1.00  0.00     0.316 HD
ENDROOT
BRANCH  14  23
HETATM   23  N5  UNL     1      27.228   1.979  52.122  1.00  0.00    -0.393 N 
HETATM   24  H15 UNL     1      27.868   2.186  52.943  1.00  0.00     0.156 HD
HETATM   25  H16 UNL     1      27.906   1.203  52.310  1.00  0.00     0.156 HD
ENDBRANCH  14  23
TORSDOF 1
ENDMDL
MODEL 6
REMARK VINA RESULT:      -7.0      2.159      2.640
REMARK  1 active torsions:
REMARK  status: ('A' for Active; 'I' for Inactive)
REMARK    1  A    between atoms: C9_14  and  N5_15 
ROOT
HETATM    1  C1  UNL     1      23.539   4.502  48.641  1.00  0.00     0.050 C 
HETATM    2  C2  UNL     1      23.409   2.985  48.856  1.00  0.00     0.274 C 
HETATM    3  N1  UNL     1      23.690   2.669  50.249  1.00  0.00     0.095 N 
HETATM    4  C3  UNL     1      25.037   3.077  50.611  1.00  0.00     0.287 C 
HETATM    5  C4  UNL     1      25.269   2.746  52.065  1.00  0.00     0.150 C 
HETATM    6  N2  UNL     1      25.116   1.334  52.330  1.00  0.00    -0.195 NA
HETATM    7  C5  UNL     1      25.024   1.058  53.727  1.00  0.00     0.130 C 
HETATM    8  C6  UNL     1      25.209  -0.384  54.093  1.00  0.00     0.043 C 
HETATM    9  C7  UNL     1      23.917  -1.115  54.190  1.00  0.00     0.097 C 
HETATM   10  N3  UNL     1      22.885  -0.354  54.312  1.00  0.00    -0.257 NA
HETATM   11  C8  UNL     1      21.566  -0.802  54.421  1.00  0.00     0.241 C 
HETATM   12  N4  UNL     1      20.888  -0.384  53.406  1.00  0.00    -0.203 NA
HETATM   13  S1  UNL     1      21.666   0.597  52.159  1.00  0.00     0.029 SA
HETATM   14  C9  UNL     1      20.480   0.733  50.799  1.00  0.00     0.083 C 
HETATM   15  C10 UNL     1      20.189   1.188  49.604  1.00  0.00     0.024 C 
HETATM   16  C11 UNL     1      21.443   1.877  49.335  1.00  0.00     0.085 C 
HETATM   17  C12 UNL     1      22.079   2.615  48.402  1.00  0.00     0.113 C 
HETATM   18  F1  UNL     1      22.141   3.237  47.177  1.00  0.00    -0.212 F 
HETATM   19  C13 UNL     1      26.100  -1.126  53.126  1.00  0.00     0.039 C 
HETATM   20  C14 UNL     1      26.926  -0.020  52.453  1.00  0.00     0.194 C 
HETATM   21  O1  UNL     1      26.013   0.654  51.651  1.00  0.00    -0.303 OA
HETATM   22  H5  UNL     1      23.738   1.604  50.258  1.00  0.00     0.316 HD
ENDROOT
BRANCH  14  23
HETATM   23  N5  UNL     1      19.612  -0.066  51.635  1.00  0.00    -0.393 N 
HETATM   24  H15 UNL     1      19.456  -0.464  52.607  1.00  0.00     0.156 HD
HETATM   25  H16 UNL     1      18.736  -0.636  51.700  1.00  0.00     0.156 HD
ENDBRANCH  14  23
TORSDOF 1
ENDMDL
MODEL 7
REMARK VINA RESULT:      -6.9      3.125      5.771
REMARK  1 active torsions:
REMARK  status: ('A' for Active; 'I' for Inactive)
REMARK    1  A    between atoms: C9_14  and  N5_15 
ROOT
HETATM    1  C1  UNL     1      27.155   0.169  52.637  1.00  0.00     0.050 C 
HETATM    2  C2  UNL     1      25.885   0.973  52.963  1.00  0.00     0.274 C 
HETATM    3  N1  UNL     1      25.394   1.613  51.752  1.00  0.00     0.095 N 
HETATM    4  C3  UNL     1      26.390   2.518  51.204  1.00  0.00     0.287 C 
HETATM    5  C4  UNL     1      25.839   3.139  49.943  1.00  0.00     0.150 C 
HETATM    6  N2  UNL     1      24.619   3.872  50.189  1.00  0.00    -0.195 NA
HETATM    7  C5  UNL     1      23.934   4.191  48.978  1.00  0.00     0.130 C 
HETATM    8  C6  UNL     1      22.862   5.228  49.122  1.00  0.00     0.043 C 
HETATM    9  C7  UNL     1      21.519   4.630  49.347  1.00  0.00     0.097 C 
HETATM   10  N3  UNL     1      21.432   3.387  49.023  1.00  0.00    -0.257 NA
HETATM   11  C8  UNL     1      20.279   2.605  49.141  1.00  0.00     0.241 C 
HETATM   12  N4  UNL     1      20.494   1.652  49.982  1.00  0.00    -0.203 NA
HETATM   13  S1  UNL     1      22.066   1.502  50.776  1.00  0.00     0.029 SA
HETATM   14  C9  UNL     1      21.874   0.246  52.063  1.00  0.00     0.083 C 
HETATM   15  C10 UNL     1      22.402  -0.450  53.041  1.00  0.00     0.024 C 
HETATM   16  C11 UNL     1      23.744   0.114  52.994  1.00  0.00     0.085 C 
HETATM   17  C12 UNL     1      24.955   0.043  53.582  1.00  0.00     0.113 C 
HETATM   18  F1  UNL     1      25.828  -0.470  54.514  1.00  0.00    -0.212 F 
HETATM   19  C13 UNL     1      23.136   6.206  50.239  1.00  0.00     0.039 C 
HETATM   20  C14 UNL     1      24.655   6.120  50.448  1.00  0.00     0.194 C 
HETATM   21  O1  UNL     1      24.856   4.866  51.014  1.00  0.00    -0.303 OA
HETATM   22  H5  UNL     1      24.628   2.264  52.107  1.00  0.00     0.316 HD
ENDROOT
BRANCH  14  23
HETATM   23  N5  UNL     1      20.509   0.149  51.598  1.00  0.00    -0.393 N 
HETATM   24  H15 UNL     1      19.834  -0.374  50.966  1.00  0.00     0.156 HD
HETATM   25  H16 UNL     1      19.535   0.532  51.644  1.00  0.00     0.156 HD
ENDBRANCH  14  23
TORSDOF 1
ENDMDL
MODEL 8
REMARK VINA RESULT:      -6.7      3.724      6.850
REMARK  1 active torsions:
REMARK  status: ('A' for Active; 'I' for Inactive)
REMARK    1  A    between atoms: C9_14  and  N5_15 
ROOT
HETATM    1  C1  UNL     1      22.783   2.172  51.288  1.00  0.00     0.050 C 
HETATM    2  C2  UNL     1      21.703   2.033  52.374  1.00  0.00     0.274 C 
HETATM    3  N1  UNL     1      20.400   1.883  51.742  1.00  0.00     0.095 N 
HETATM    4  C3  UNL     1      20.088   3.039  50.920  1.00  0.00     0.287 C 
HETATM    5  C4  UNL     1      18.740   2.824  50.275  1.00  0.00     0.150 C 
HETATM    6  N2  UNL     1      17.694   2.645  51.254  1.00  0.00    -0.195 NA
HETATM    7  C5  UNL     1      16.495   2.137  50.669  1.00  0.00     0.130 C 
HETATM    8  C6  UNL     1      15.279   2.249  51.539  1.00  0.00     0.043 C 
HETATM    9  C7  UNL     1      15.034   1.014  52.333  1.00  0.00     0.097 C 
HETATM   10  N3  UNL     1      15.645  -0.030  51.891  1.00  0.00    -0.257 NA
HETATM   11  C8  UNL     1      15.575  -1.303  52.462  1.00  0.00     0.241 C 
HETATM   12  N4  UNL     1      16.745  -1.650  52.877  1.00  0.00    -0.203 NA
HETATM   13  S1  UNL     1      18.121  -0.560  52.677  1.00  0.00     0.029 SA
HETATM   14  C9  UNL     1      19.485  -1.275  53.624  1.00  0.00     0.083 C 
HETATM   15  C10 UNL     1      20.729  -1.200  54.034  1.00  0.00     0.024 C 
HETATM   16  C11 UNL     1      21.086   0.053  53.382  1.00  0.00     0.085 C 
HETATM   17  C12 UNL     1      22.105   0.920  53.216  1.00  0.00     0.113 C 
HETATM   18  F1  UNL     1      23.398   1.334  53.436  1.00  0.00    -0.212 F 
HETATM   19  C13 UNL     1      15.344   3.417  52.493  1.00  0.00     0.039 C 
HETATM   20  C14 UNL     1      16.357   4.373  51.846  1.00  0.00     0.194 C 
HETATM   21  O1  UNL     1      17.581   3.729  51.988  1.00  0.00    -0.303 OA
HETATM   22  H5  UNL     1      19.718   1.961  52.557  1.00  0.00     0.316 HD
ENDROOT
BRANCH  14  23
HETATM   23  N5  UNL     1      18.552  -2.331  53.946  1.00  0.00    -0.393 N 
HETATM   24  H15 UNL     1      17.989  -2.797  54.716  1.00  0.00     0.156 HD
HETATM   25  H16 UNL     1      17.985  -3.140  53.597  1.00  0.00     0.156 HD
ENDBRANCH  14  23
TORSDOF 1
ENDMDL
MODEL 9
REMARK VINA RESULT:      -6.7      4.708      8.379
REMARK  1 active torsions:
REMARK  status: ('A' for Active; 'I' for Inactive)
REMARK    1  A    between atoms: C9_14  and  N5_15 
ROOT
HETATM    1  C1  UNL     1      25.622   2.235  52.722  1.00  0.00     0.050 C 
HETATM    2  C2  UNL     1      25.196   2.662  51.308  1.00  0.00     0.274 C 
HETATM    3  N1  UNL     1      24.459   3.915  51.384  1.00  0.00     0.095 N 
HETATM    4  C3  UNL     1      23.269   3.768  52.204  1.00  0.00     0.287 C 
HETATM    5  C4  UNL     1      22.555   5.096  52.265  1.00  0.00     0.150 C 
HETATM    6  N2  UNL     1      22.170   5.564  50.954  1.00  0.00    -0.195 NA
HETATM    7  C5  UNL     1      21.783   6.939  50.969  1.00  0.00     0.130 C 
HETATM    8  C6  UNL     1      21.054   7.395  49.741  1.00  0.00     0.043 C 
HETATM    9  C7  UNL     1      21.966   7.995  48.729  1.00  0.00     0.097 C 
HETATM   10  N3  UNL     1      23.112   8.353  49.195  1.00  0.00    -0.257 NA
HETATM   11  C8  UNL     1      24.136   8.938  48.446  1.00  0.00     0.241 C 
HETATM   12  N4  UNL     1      25.161   8.157  48.441  1.00  0.00    -0.203 NA
HETATM   13  S1  UNL     1      25.111   6.615  49.303  1.00  0.00     0.029 SA
HETATM   14  C9  UNL     1      26.601   5.709  48.825  1.00  0.00     0.083 C 
HETATM   15  C10 UNL     1      27.338   4.628  48.920  1.00  0.00     0.024 C 
HETATM   16  C11 UNL     1      26.495   3.884  49.845  1.00  0.00     0.085 C 
HETATM   17  C12 UNL     1      26.408   2.714  50.509  1.00  0.00     0.113 C 
HETATM   18  F1  UNL     1      26.886   1.470  50.848  1.00  0.00    -0.212 F 
HETATM   19  C13 UNL     1      20.273   6.289  49.075  1.00  0.00     0.039 C 
HETATM   20  C14 UNL     1      20.061   5.255  50.191  1.00  0.00     0.194 C 
HETATM   21  O1  UNL     1      21.325   4.718  50.410  1.00  0.00    -0.303 OA
HETATM   22  H5  UNL     1      24.073   4.037  50.397  1.00  0.00     0.316 HD
ENDROOT
BRANCH  14  23
HETATM   23  N5  UNL     1      26.906   6.872  48.021  1.00  0.00    -0.393 N 
HETATM   24  H15 UNL     1      26.880   7.292  47.046  1.00  0.00     0.156 HD
HETATM   25  H16 UNL     1      27.293   7.844  47.992  1.00  0.00     0.156 HD
ENDBRANCH  14  23
TORSDOF 1
ENDMDL
