MODEL 1
REMARK VINA RESULT:      -9.2      0.000      0.000
REMARK  0 active torsions:
REMARK  status: ('A' for Active; 'I' for Inactive)
ROOT
HETATM    1  C1  UNL     1      27.147  -0.108  52.629  1.00  0.00     0.036 C 
HETATM    2  C2  UNL     1      26.043   0.866  52.439  1.00  0.00    -0.022 C 
HETATM    3  C3  UNL     1      24.816   0.594  52.828  1.00  0.00    -0.043 A 
HETATM    4  C4  UNL     1      24.642  -0.723  53.453  1.00  0.00     0.008 A 
HETATM    5  C5  UNL     1      23.515  -1.148  53.959  1.00  0.00     0.003 A 
HETATM    6  C6  UNL     1      22.313  -0.347  53.944  1.00  0.00     0.029 A 
HETATM    7  C7  UNL     1      22.447   0.839  53.378  1.00  0.00     0.055 A 
HETATM    8  N1  UNL     1      21.521   1.818  53.208  1.00  0.00    -0.236 NA
HETATM    9  C8  UNL     1      20.425   1.962  52.548  1.00  0.00     0.131 C 
HETATM   10  N2  UNL     1      19.767   3.232  52.677  1.00  0.00    -0.241 NA
HETATM   11  C9  UNL     1      19.732   3.942  51.550  1.00  0.00     0.029 C 
HETATM   12  C10 UNL     1      18.696   2.898  51.301  1.00  0.00     0.068 C 
HETATM   13  C11 UNL     1      19.304   1.611  51.667  1.00  0.00     0.066 C 
HETATM   14  C12 UNL     1      19.636   0.740  50.498  1.00  0.00     0.039 C 
HETATM   15  C13 UNL     1      20.362   1.358  49.388  1.00  0.00    -0.030 C 
HETATM   16  C14 UNL     1      21.550   1.257  48.722  1.00  0.00    -0.028 C 
HETATM   17  C15 UNL     1      21.717   2.252  47.590  1.00  0.00     0.061 C 
HETATM   18  C16 UNL     1      22.730   3.243  48.146  1.00  0.00     0.150 C 
HETATM   19  C17 UNL     1      22.667   4.547  47.324  1.00  0.00     0.207 C 
HETATM   20  O1  UNL     1      22.665   5.687  48.267  1.00  0.00    -0.352 OA
HETATM   21  C18 UNL     1      21.545   5.469  49.203  1.00  0.00     0.052 A 
HETATM   22  C19 UNL     1      20.338   5.130  48.651  1.00  0.00     0.030 A 
HETATM   23  C20 UNL     1      19.590   4.943  49.783  1.00  0.00    -0.008 A 
HETATM   24  C21 UNL     1      20.429   5.201  50.833  1.00  0.00     0.033 A 
HETATM   25  C22 UNL     1      21.482   5.522  51.735  1.00  0.00     0.022 A 
HETATM   26  C23 UNL     1      21.962   5.620  50.468  1.00  0.00     0.067 A 
HETATM   27  O2  UNL     1      23.871   2.864  48.651  1.00  0.00    -0.374 OA
HETATM   28  C24 UNL     1      24.236   2.857  49.973  1.00  0.00     0.243 C 
HETATM   29  S1  UNL     1      23.288   1.791  50.991  1.00  0.00    -0.127 SA
HETATM   30  C25 UNL     1      23.635   1.526  52.688  1.00  0.00     0.134 A 
ENDROOT
TORSDOF 0
ENDMDL
MODEL 2
REMARK VINA RESULT:      -8.6      2.293      4.441
REMARK  0 active torsions:
REMARK  status: ('A' for Active; 'I' for Inactive)
ROOT
HETATM    1  C1  UNL     1      24.609  -1.255  55.254  1.00  0.00     0.036 C 
HETATM    2  C2  UNL     1      24.210  -0.663  53.953  1.00  0.00    -0.022 C 
HETATM    3  C3  UNL     1      24.852   0.367  53.445  1.00  0.00    -0.043 A 
HETATM    4  C4  UNL     1      25.970   0.863  54.258  1.00  0.00     0.008 A 
HETATM    5  C5  UNL     1      26.764   1.834  53.894  1.00  0.00     0.003 A 
HETATM    6  C6  UNL     1      26.607   2.525  52.635  1.00  0.00     0.029 A 
HETATM    7  C7  UNL     1      25.602   2.100  51.892  1.00  0.00     0.055 A 
HETATM    8  N1  UNL     1      25.193   2.532  50.672  1.00  0.00    -0.236 NA
HETATM    9  C8  UNL     1      24.701   3.617  50.181  1.00  0.00     0.131 C 
HETATM   10  N2  UNL     1      24.407   3.603  48.775  1.00  0.00    -0.241 NA
HETATM   11  C9  UNL     1      23.108   3.701  48.491  1.00  0.00     0.029 C 
HETATM   12  C10 UNL     1      23.454   5.097  48.888  1.00  0.00     0.068 C 
HETATM   13  C11 UNL     1      24.208   5.000  50.144  1.00  0.00     0.066 C 
HETATM   14  C12 UNL     1      23.451   5.459  51.348  1.00  0.00     0.039 C 
HETATM   15  C13 UNL     1      22.092   4.943  51.520  1.00  0.00    -0.030 C 
HETATM   16  C14 UNL     1      21.355   4.191  52.389  1.00  0.00    -0.028 C 
HETATM   17  C15 UNL     1      19.908   4.000  51.977  1.00  0.00     0.061 C 
HETATM   18  C16 UNL     1      19.865   2.545  51.526  1.00  0.00     0.150 C 
HETATM   19  C17 UNL     1      18.610   2.320  50.659  1.00  0.00     0.207 C 
HETATM   20  O1  UNL     1      19.008   1.541  49.466  1.00  0.00    -0.352 OA
HETATM   21  C18 UNL     1      20.108   2.281  48.816  1.00  0.00     0.052 A 
HETATM   22  C19 UNL     1      19.921   3.626  48.634  1.00  0.00     0.030 A 
HETATM   23  C20 UNL     1      21.131   3.974  48.093  1.00  0.00    -0.008 A 
HETATM   24  C21 UNL     1      21.854   2.815  48.016  1.00  0.00     0.033 A 
HETATM   25  C22 UNL     1      22.387   1.495  48.037  1.00  0.00     0.022 A 
HETATM   26  C23 UNL     1      21.130   1.456  48.553  1.00  0.00     0.067 A 
HETATM   27  O2  UNL     1      20.305   1.572  52.274  1.00  0.00    -0.374 OA
HETATM   28  C24 UNL     1      21.450   0.837  52.098  1.00  0.00     0.243 C 
HETATM   29  S1  UNL     1      22.937   1.759  52.204  1.00  0.00    -0.127 SA
HETATM   30  C25 UNL     1      24.528   1.026  52.125  1.00  0.00     0.134 A 
ENDROOT
TORSDOF 0
ENDMDL
MODEL 3
REMARK VINA RESULT:      -8.5      2.284      4.611
REMARK  0 active torsions:
REMARK  status: ('A' for Active; 'I' for Inactive)
ROOT
HETATM    1  C1  UNL     1      17.551  -1.247  52.914  1.00  0.00     0.036 C 
HETATM    2  C2  UNL     1      18.492  -0.573  51.985  1.00  0.00    -0.022 C 
HETATM    3  C3  UNL     1      19.661  -0.130  52.397  1.00  0.00    -0.043 A 
HETATM    4  C4  UNL     1      19.943  -0.359  53.819  1.00  0.00     0.008 A 
HETATM    5  C5  UNL     1      21.072  -0.049  54.399  1.00  0.00     0.003 A 
HETATM    6  C6  UNL     1      22.164   0.565  53.680  1.00  0.00     0.029 A 
HETATM    7  C7  UNL     1      21.927   0.787  52.399  1.00  0.00     0.055 A 
HETATM    8  N1  UNL     1      22.736   1.340  51.460  1.00  0.00    -0.236 NA
HETATM    9  C8  UNL     1      23.272   2.492  51.250  1.00  0.00     0.131 C 
HETATM   10  N2  UNL     1      24.081   2.611  50.069  1.00  0.00    -0.241 NA
HETATM   11  C9  UNL     1      23.586   3.443  49.153  1.00  0.00     0.029 C 
HETATM   12  C10 UNL     1      24.114   4.383  50.183  1.00  0.00     0.068 C 
HETATM   13  C11 UNL     1      23.622   3.899  51.481  1.00  0.00     0.066 C 
HETATM   14  C12 UNL     1      22.552   4.751  52.084  1.00  0.00     0.039 C 
HETATM   15  C13 UNL     1      21.436   5.135  51.219  1.00  0.00    -0.030 C 
HETATM   16  C14 UNL     1      20.083   4.984  51.118  1.00  0.00    -0.028 C 
HETATM   17  C15 UNL     1      19.467   5.665  49.912  1.00  0.00     0.061 C 
HETATM   18  C16 UNL     1      19.122   4.498  48.994  1.00  0.00     0.150 C 
HETATM   19  C17 UNL     1      18.917   5.026  47.559  1.00  0.00     0.207 C 
HETATM   20  O1  UNL     1      19.636   4.127  46.631  1.00  0.00    -0.352 OA
HETATM   21  C18 UNL     1      21.037   4.061  47.092  1.00  0.00     0.052 A 
HETATM   22  C19 UNL     1      21.645   5.254  47.382  1.00  0.00     0.030 A 
HETATM   23  C20 UNL     1      22.861   4.811  47.832  1.00  0.00    -0.008 A 
HETATM   24  C21 UNL     1      22.819   3.447  47.740  1.00  0.00     0.033 A 
HETATM   25  C22 UNL     1      22.530   2.066  47.545  1.00  0.00     0.022 A 
HETATM   26  C23 UNL     1      21.440   2.786  47.172  1.00  0.00     0.067 A 
HETATM   27  O2  UNL     1      18.425   3.475  49.402  1.00  0.00    -0.374 OA
HETATM   28  C24 UNL     1      18.877   2.204  49.650  1.00  0.00     0.243 C 
HETATM   29  S1  UNL     1      20.048   2.082  50.947  1.00  0.00    -0.127 SA
HETATM   30  C25 UNL     1      20.686   0.554  51.524  1.00  0.00     0.134 A 
ENDROOT
TORSDOF 0
ENDMDL
MODEL 4
REMARK VINA RESULT:      -8.4     10.422     12.853
REMARK  0 active torsions:
REMARK  status: ('A' for Active; 'I' for Inactive)
ROOT
HETATM    1  C1  UNL     1      32.365   1.225  47.044  1.00  0.00     0.036 C 
HETATM    2  C2  UNL     1      32.023   2.602  46.611  1.00  0.00    -0.022 C 
HETATM    3  C3  UNL     1      32.934   3.410  46.113  1.00  0.00    -0.043 A 
HETATM    4  C4  UNL     1      34.284   2.839  46.024  1.00  0.00     0.008 A 
HETATM    5  C5  UNL     1      35.307   3.462  45.501  1.00  0.00     0.003 A 
HETATM    6  C6  UNL     1      35.201   4.796  44.957  1.00  0.00     0.029 A 
HETATM    7  C7  UNL     1      33.995   5.330  45.035  1.00  0.00     0.055 A 
HETATM    8  N1  UNL     1      33.569   6.550  44.620  1.00  0.00    -0.236 NA
HETATM    9  C8  UNL     1      33.803   7.778  44.931  1.00  0.00     0.131 C 
HETATM   10  N2  UNL     1      33.079   8.772  44.189  1.00  0.00    -0.241 NA
HETATM   11  C9  UNL     1      32.213   9.472  44.922  1.00  0.00     0.029 C 
HETATM   12  C10 UNL     1      33.523  10.054  45.334  1.00  0.00     0.068 C 
HETATM   13  C11 UNL     1      34.410   8.919  45.628  1.00  0.00     0.066 C 
HETATM   14  C12 UNL     1      34.691   8.725  47.083  1.00  0.00     0.039 C 
HETATM   15  C13 UNL     1      33.545   8.735  47.993  1.00  0.00    -0.030 C 
HETATM   16  C14 UNL     1      32.895   7.919  48.875  1.00  0.00    -0.028 C 
HETATM   17  C15 UNL     1      31.692   8.556  49.544  1.00  0.00     0.061 C 
HETATM   18  C16 UNL     1      30.514   7.864  48.870  1.00  0.00     0.150 C 
HETATM   19  C17 UNL     1      29.239   8.702  49.093  1.00  0.00     0.207 C 
HETATM   20  O1  UNL     1      28.518   8.796  47.805  1.00  0.00    -0.352 OA
HETATM   21  C18 UNL     1      29.471   9.336  46.816  1.00  0.00     0.052 A 
HETATM   22  C19 UNL     1      30.192  10.437  47.194  1.00  0.00     0.030 A 
HETATM   23  C20 UNL     1      30.992  10.601  46.094  1.00  0.00    -0.008 A 
HETATM   24  C21 UNL     1      30.640   9.607  45.224  1.00  0.00     0.033 A 
HETATM   25  C22 UNL     1      30.096   8.504  44.506  1.00  0.00     0.022 A 
HETATM   26  C23 UNL     1      29.465   8.584  45.707  1.00  0.00     0.067 A 
HETATM   27  O2  UNL     1      30.418   6.565  48.798  1.00  0.00    -0.374 OA
HETATM   28  C24 UNL     1      30.584   5.778  47.688  1.00  0.00     0.243 C 
HETATM   29  S1  UNL     1      32.190   5.823  46.988  1.00  0.00    -0.127 SA
HETATM   30  C25 UNL     1      32.676   4.820  45.636  1.00  0.00     0.134 A 
ENDROOT
TORSDOF 0
ENDMDL
MODEL 5
REMARK VINA RESULT:      -8.2      2.507      5.994
REMARK  0 active torsions:
REMARK  status: ('A' for Active; 'I' for Inactive)
ROOT
HETATM    1  C1  UNL     1      21.092   9.825  48.957  1.00  0.00     0.036 C 
HETATM    2  C2  UNL     1      21.108   8.525  49.673  1.00  0.00    -0.022 C 
HETATM    3  C3  UNL     1      22.238   7.965  50.049  1.00  0.00    -0.043 A 
HETATM    4  C4  UNL     1      23.448   8.723  49.708  1.00  0.00     0.008 A 
HETATM    5  C5  UNL     1      24.657   8.363  50.050  1.00  0.00     0.003 A 
HETATM    6  C6  UNL     1      24.916   7.160  50.806  1.00  0.00     0.029 A 
HETATM    7  C7  UNL     1      23.840   6.459  51.116  1.00  0.00     0.055 A 
HETATM    8  N1  UNL     1      23.744   5.297  51.812  1.00  0.00    -0.236 NA
HETATM    9  C8  UNL     1      24.123   4.077  51.649  1.00  0.00     0.131 C 
HETATM   10  N2  UNL     1      23.772   3.157  52.696  1.00  0.00    -0.241 NA
HETATM   11  C9  UNL     1      22.907   2.214  52.322  1.00  0.00     0.029 C 
HETATM   12  C10 UNL     1      24.177   1.750  51.693  1.00  0.00     0.068 C 
HETATM   13  C11 UNL     1      24.756   2.916  51.012  1.00  0.00     0.066 C 
HETATM   14  C12 UNL     1      24.670   2.858  49.521  1.00  0.00     0.039 C 
HETATM   15  C13 UNL     1      23.373   2.512  48.939  1.00  0.00    -0.030 C 
HETATM   16  C14 UNL     1      22.408   3.040  48.130  1.00  0.00    -0.028 C 
HETATM   17  C15 UNL     1      21.223   2.125  47.892  1.00  0.00     0.061 C 
HETATM   18  C16 UNL     1      20.117   2.766  48.720  1.00  0.00     0.150 C 
HETATM   19  C17 UNL     1      18.997   1.733  48.958  1.00  0.00     0.207 C 
HETATM   20  O1  UNL     1      18.607   1.795  50.383  1.00  0.00    -0.352 OA
HETATM   21  C18 UNL     1      19.837   1.596  51.175  1.00  0.00     0.052 A 
HETATM   22  C19 UNL     1      20.644   0.552  50.807  1.00  0.00     0.030 A 
HETATM   23  C20 UNL     1      21.683   0.719  51.685  1.00  0.00    -0.008 A 
HETATM   24  C21 UNL     1      21.357   1.807  52.447  1.00  0.00     0.033 A 
HETATM   25  C22 UNL     1      20.795   2.943  53.096  1.00  0.00     0.022 A 
HETATM   26  C23 UNL     1      19.939   2.542  52.118  1.00  0.00     0.067 A 
HETATM   27  O2  UNL     1      19.806   4.027  48.609  1.00  0.00    -0.374 OA
HETATM   28  C24 UNL     1      20.067   5.033  49.504  1.00  0.00     0.243 C 
HETATM   29  S1  UNL     1      21.769   5.348  49.779  1.00  0.00    -0.127 SA
HETATM   30  C25 UNL     1      22.351   6.655  50.791  1.00  0.00     0.134 A 
ENDROOT
TORSDOF 0
ENDMDL
MODEL 6
REMARK VINA RESULT:      -8.2     10.152     12.119
REMARK  0 active torsions:
REMARK  status: ('A' for Active; 'I' for Inactive)
ROOT
HETATM    1  C1  UNL     1      33.917   4.358  43.137  1.00  0.00     0.036 C 
HETATM    2  C2  UNL     1      33.616   5.554  43.961  1.00  0.00    -0.022 C 
HETATM    3  C3  UNL     1      33.069   5.445  45.152  1.00  0.00    -0.043 A 
HETATM    4  C4  UNL     1      32.793   4.069  45.583  1.00  0.00     0.008 A 
HETATM    5  C5  UNL     1      32.310   3.753  46.755  1.00  0.00     0.003 A 
HETATM    6  C6  UNL     1      31.995   4.750  47.752  1.00  0.00     0.029 A 
HETATM    7  C7  UNL     1      32.229   5.997  47.381  1.00  0.00     0.055 A 
HETATM    8  N1  UNL     1      32.045   7.148  48.076  1.00  0.00    -0.236 NA
HETATM    9  C8  UNL     1      31.043   7.799  48.556  1.00  0.00     0.131 C 
HETATM   10  N2  UNL     1      31.349   9.025  49.239  1.00  0.00    -0.241 NA
HETATM   11  C9  UNL     1      30.883  10.116  48.631  1.00  0.00     0.029 C 
HETATM   12  C10 UNL     1      29.648   9.536  49.234  1.00  0.00     0.068 C 
HETATM   13  C11 UNL     1      29.646   8.107  48.889  1.00  0.00     0.066 C 
HETATM   14  C12 UNL     1      28.628   7.730  47.862  1.00  0.00     0.039 C 
HETATM   15  C13 UNL     1      28.559   8.553  46.654  1.00  0.00    -0.030 C 
HETATM   16  C14 UNL     1      28.722   8.454  45.302  1.00  0.00    -0.028 C 
HETATM   17  C15 UNL     1      28.498   9.751  44.549  1.00  0.00     0.061 C 
HETATM   18  C16 UNL     1      29.907  10.166  44.146  1.00  0.00     0.150 C 
HETATM   19  C17 UNL     1      29.910  11.665  43.783  1.00  0.00     0.207 C 
HETATM   20  O1  UNL     1      31.082  12.294  44.430  1.00  0.00    -0.352 OA
HETATM   21  C18 UNL     1      30.996  11.987  45.871  1.00  0.00     0.052 A 
HETATM   22  C19 UNL     1      29.782  12.193  46.473  1.00  0.00     0.030 A 
HETATM   23  C20 UNL     1      30.053  11.746  47.739  1.00  0.00    -0.008 A 
HETATM   24  C21 UNL     1      31.363  11.354  47.726  1.00  0.00     0.033 A 
HETATM   25  C22 UNL     1      32.723  11.027  47.458  1.00  0.00     0.022 A 
HETATM   26  C23 UNL     1      32.167  11.512  46.316  1.00  0.00     0.067 A 
HETATM   27  O2  UNL     1      30.719   9.359  43.522  1.00  0.00    -0.374 OA
HETATM   28  C24 UNL     1      31.828   8.734  44.032  1.00  0.00     0.243 C 
HETATM   29  S1  UNL     1      31.503   7.604  45.330  1.00  0.00    -0.127 SA
HETATM   30  C25 UNL     1      32.741   6.603  46.065  1.00  0.00     0.134 A 
ENDROOT
TORSDOF 0
ENDMDL
MODEL 7
REMARK VINA RESULT:      -8.0      9.927     12.443
REMARK  0 active torsions:
REMARK  status: ('A' for Active; 'I' for Inactive)
ROOT
HETATM    1  C1  UNL     1      26.817   5.504  49.025  1.00  0.00     0.036 C 
HETATM    2  C2  UNL     1      27.191   6.662  48.176  1.00  0.00    -0.022 C 
HETATM    3  C3  UNL     1      28.411   6.797  47.701  1.00  0.00    -0.043 A 
HETATM    4  C4  UNL     1      29.343   5.726  48.075  1.00  0.00     0.008 A 
HETATM    5  C5  UNL     1      30.576   5.650  47.652  1.00  0.00     0.003 A 
HETATM    6  C6  UNL     1      31.148   6.635  46.764  1.00  0.00     0.029 A 
HETATM    7  C7  UNL     1      30.327   7.613  46.421  1.00  0.00     0.055 A 
HETATM    8  N1  UNL     1      30.553   8.678  45.611  1.00  0.00    -0.236 NA
HETATM    9  C8  UNL     1      31.306   9.723  45.629  1.00  0.00     0.131 C 
HETATM   10  N2  UNL     1      31.190  10.610  44.505  1.00  0.00    -0.241 NA
HETATM   11  C9  UNL     1      30.693  11.809  44.809  1.00  0.00     0.029 C 
HETATM   12  C10 UNL     1      32.085  11.897  45.338  1.00  0.00     0.068 C 
HETATM   13  C11 UNL     1      32.314  10.673  46.117  1.00  0.00     0.066 C 
HETATM   14  C12 UNL     1      32.353  10.887  47.595  1.00  0.00     0.039 C 
HETATM   15  C13 UNL     1      31.273  11.679  48.185  1.00  0.00    -0.030 C 
HETATM   16  C14 UNL     1      30.249  11.559  49.081  1.00  0.00    -0.028 C 
HETATM   17  C15 UNL     1      29.431  12.822  49.265  1.00  0.00     0.061 C 
HETATM   18  C16 UNL     1      28.125  12.497  48.550  1.00  0.00     0.150 C 
HETATM   19  C17 UNL     1      27.373  13.809  48.247  1.00  0.00     0.207 C 
HETATM   20  O1  UNL     1      26.886  13.748  46.851  1.00  0.00    -0.352 OA
HETATM   21  C18 UNL     1      28.058  13.473  45.997  1.00  0.00     0.052 A 
HETATM   22  C19 UNL     1      29.175  14.234  46.222  1.00  0.00     0.030 A 
HETATM   23  C20 UNL     1      30.046  13.667  45.330  1.00  0.00    -0.008 A 
HETATM   24  C21 UNL     1      29.345  12.677  44.699  1.00  0.00     0.033 A 
HETATM   25  C22 UNL     1      28.411  11.727  44.196  1.00  0.00     0.022 A 
HETATM   26  C23 UNL     1      27.794  12.464  45.156  1.00  0.00     0.067 A 
HETATM   27  O2  UNL     1      27.443  11.416  48.806  1.00  0.00    -0.374 OA
HETATM   28  C24 UNL     1      27.312  10.305  48.013  1.00  0.00     0.243 C 
HETATM   29  S1  UNL     1      28.806   9.440  47.710  1.00  0.00    -0.127 SA
HETATM   30  C25 UNL     1      28.878   7.932  46.820  1.00  0.00     0.134 A 
ENDROOT
TORSDOF 0
ENDMDL
MODEL 8
REMARK VINA RESULT:      -8.0      8.095     10.343
REMARK  0 active torsions:
REMARK  status: ('A' for Active; 'I' for Inactive)
ROOT
HETATM    1  C1  UNL     1      25.780   3.458  49.333  1.00  0.00     0.036 C 
HETATM    2  C2  UNL     1      26.593   4.698  49.396  1.00  0.00    -0.022 C 
HETATM    3  C3  UNL     1      26.063   5.877  49.153  1.00  0.00    -0.043 A 
HETATM    4  C4  UNL     1      24.633   5.858  48.824  1.00  0.00     0.008 A 
HETATM    5  C5  UNL     1      23.917   6.930  48.613  1.00  0.00     0.003 A 
HETATM    6  C6  UNL     1      24.481   8.258  48.681  1.00  0.00     0.029 A 
HETATM    7  C7  UNL     1      25.770   8.297  48.968  1.00  0.00     0.055 A 
HETATM    8  N1  UNL     1      26.586   9.373  49.105  1.00  0.00    -0.236 NA
HETATM    9  C8  UNL     1      27.037  10.308  48.342  1.00  0.00     0.131 C 
HETATM   10  N2  UNL     1      27.916  11.263  48.957  1.00  0.00    -0.241 NA
HETATM   11  C9  UNL     1      29.165  11.229  48.494  1.00  0.00     0.029 C 
HETATM   12  C10 UNL     1      28.432  11.908  47.386  1.00  0.00     0.068 C 
HETATM   13  C11 UNL     1      27.233  11.100  47.121  1.00  0.00     0.066 C 
HETATM   14  C12 UNL     1      27.287  10.329  45.841  1.00  0.00     0.039 C 
HETATM   15  C13 UNL     1      28.500   9.556  45.577  1.00  0.00    -0.030 C 
HETATM   16  C14 UNL     1      28.905   8.265  45.386  1.00  0.00    -0.028 C 
HETATM   17  C15 UNL     1      30.393   8.108  45.143  1.00  0.00     0.061 C 
HETATM   18  C16 UNL     1      30.894   7.502  46.448  1.00  0.00     0.150 C 
HETATM   19  C17 UNL     1      32.421   7.702  46.546  1.00  0.00     0.207 C 
HETATM   20  O1  UNL     1      32.738   8.176  47.911  1.00  0.00    -0.352 OA
HETATM   21  C18 UNL     1      31.921   9.383  48.148  1.00  0.00     0.052 A 
HETATM   22  C19 UNL     1      31.919  10.328  47.157  1.00  0.00     0.030 A 
HETATM   23  C20 UNL     1      31.028  11.231  47.676  1.00  0.00    -0.008 A 
HETATM   24  C21 UNL     1      30.638  10.720  48.883  1.00  0.00     0.033 A 
HETATM   25  C22 UNL     1      30.402   9.989  50.083  1.00  0.00     0.022 A 
HETATM   26  C23 UNL     1      31.288   9.291  49.325  1.00  0.00     0.067 A 
HETATM   27  O2  UNL     1      30.357   6.437  46.973  1.00  0.00    -0.374 OA
HETATM   28  C24 UNL     1      29.562   6.368  48.089  1.00  0.00     0.243 C 
HETATM   29  S1  UNL     1      28.039   7.225  47.959  1.00  0.00    -0.127 SA
HETATM   30  C25 UNL     1      26.809   7.190  49.207  1.00  0.00     0.134 A 
ENDROOT
TORSDOF 0
ENDMDL
MODEL 9
REMARK VINA RESULT:      -7.9      3.533      5.471
REMARK  0 active torsions:
REMARK  status: ('A' for Active; 'I' for Inactive)
ROOT
HETATM    1  C1  UNL     1      28.343   8.538  47.407  1.00  0.00     0.036 C 
HETATM    2  C2  UNL     1      27.065   8.162  48.062  1.00  0.00    -0.022 C 
HETATM    3  C3  UNL     1      26.837   6.929  48.460  1.00  0.00    -0.043 A 
HETATM    4  C4  UNL     1      27.931   5.984  48.207  1.00  0.00     0.008 A 
HETATM    5  C5  UNL     1      27.919   4.733  48.585  1.00  0.00     0.003 A 
HETATM    6  C6  UNL     1      26.802   4.155  49.295  1.00  0.00     0.029 A 
HETATM    7  C7  UNL     1      25.802   4.988  49.526  1.00  0.00     0.055 A 
HETATM    8  N1  UNL     1      24.625   4.760  50.162  1.00  0.00    -0.236 NA
HETATM    9  C8  UNL     1      23.579   4.037  49.960  1.00  0.00     0.131 C 
HETATM   10  N2  UNL     1      22.539   4.133  50.947  1.00  0.00    -0.241 NA
HETATM   11  C9  UNL     1      21.408   4.673  50.493  1.00  0.00     0.029 C 
HETATM   12  C10 UNL     1      21.369   3.306  49.899  1.00  0.00     0.068 C 
HETATM   13  C11 UNL     1      22.690   3.074  49.298  1.00  0.00     0.066 C 
HETATM   14  C12 UNL     1      22.693   3.097  47.804  1.00  0.00     0.039 C 
HETATM   15  C13 UNL     1      22.020   4.220  47.151  1.00  0.00    -0.030 C 
HETATM   16  C14 UNL     1      22.290   5.274  46.326  1.00  0.00    -0.028 C 
HETATM   17  C15 UNL     1      21.085   6.133  45.994  1.00  0.00     0.061 C 
HETATM   18  C16 UNL     1      21.330   7.400  46.803  1.00  0.00     0.150 C 
HETATM   19  C17 UNL     1      20.004   8.176  46.943  1.00  0.00     0.207 C 
HETATM   20  O1  UNL     1      19.869   8.607  48.352  1.00  0.00    -0.352 OA
HETATM   21  C18 UNL     1      19.992   7.396  49.187  1.00  0.00     0.052 A 
HETATM   22  C19 UNL     1      19.249   6.309  48.806  1.00  0.00     0.030 A 
HETATM   23  C20 UNL     1      19.661   5.389  49.735  1.00  0.00    -0.008 A 
HETATM   24  C21 UNL     1      20.562   6.040  50.532  1.00  0.00     0.033 A 
HETATM   25  C22 UNL     1      21.447   6.928  51.207  1.00  0.00     0.022 A 
HETATM   26  C23 UNL     1      20.872   7.601  50.176  1.00  0.00     0.067 A 
HETATM   27  O2  UNL     1      22.451   8.063  46.736  1.00  0.00    -0.374 OA
HETATM   28  C24 UNL     1      23.436   8.133  47.687  1.00  0.00     0.243 C 
HETATM   29  S1  UNL     1      24.216   6.606  48.050  1.00  0.00    -0.127 SA
HETATM   30  C25 UNL     1      25.576   6.459  49.146  1.00  0.00     0.134 A 
ENDROOT
TORSDOF 0
ENDMDL
