MODEL 1
REMARK VINA RESULT:      -8.3      0.000      0.000
REMARK  8 active torsions:
REMARK  status: ('A' for Active; 'I' for Inactive)
REMARK    1  A    between atoms: O1_2  and  C2_3 
REMARK    2  A    between atoms: C5_6  and  O2_7 
REMARK    3  A    between atoms: O2_7  and  C6_8 
REMARK    4  A    between atoms: N1_11  and  C9_12 
REMARK    5  A    between atoms: C9_12  and  N2_13 
REMARK    6  A    between atoms: N2_13  and  C10_14 
REMARK    7  A    between atoms: C21_27  and  O3_28 
REMARK    8  A    between atoms: O3_28  and  C22_29 
ROOT
HETATM    1  O2  UNL     1      27.982   6.558  47.831  1.00  0.00    -0.291 OA
ENDROOT
BRANCH   1   2
HETATM    2  C5  UNL     1      29.005   7.362  48.331  1.00  0.00     0.183 A 
HETATM    3  C4  UNL     1      30.275   6.813  48.423  1.00  0.00     0.049 A 
HETATM    4  C3  UNL     1      30.565   5.516  48.044  1.00  0.00     0.057 A 
HETATM    5  C19 UNL     1      31.284   7.631  48.924  1.00  0.00     0.075 A 
HETATM    6  C2  UNL     1      31.860   5.061  48.174  1.00  0.00     0.103 A 
HETATM    7  C21 UNL     1      32.879   5.849  48.667  1.00  0.00     0.114 A 
HETATM    8  C20 UNL     1      32.569   7.155  49.045  1.00  0.00     0.073 A 
HETATM    9  N4  UNL     1      31.011   8.900  49.297  1.00  0.00    -0.241 NA
HETATM   10  C18 UNL     1      29.769   9.423  49.202  1.00  0.00     0.236 A 
HETATM   11  N3  UNL     1      28.790   8.634  48.718  1.00  0.00    -0.217 NA
BRANCH   6  12
HETATM   12  O1  UNL     1      32.231   3.769  47.814  1.00  0.00    -0.353 OA
HETATM   13  C1  UNL     1      32.348   3.470  46.438  1.00  0.00     0.210 C 
ENDBRANCH   6  12
BRANCH   7  14
HETATM   14  O3  UNL     1      34.201   5.422  48.812  1.00  0.00    -0.283 OA
BRANCH  14  15
HETATM   15  C22 UNL     1      35.220   6.338  48.598  1.00  0.00     0.403 C 
HETATM   16  O4  UNL     1      36.192   6.072  49.356  1.00  0.00    -0.276 OA
ENDBRANCH  14  15
ENDBRANCH   7  14
ENDBRANCH   1   2
BRANCH   1  17
HETATM   17  C6  UNL     1      27.092   5.894  48.659  1.00  0.00     0.077 A 
HETATM   18  C7  UNL     1      26.082   6.506  49.247  1.00  0.00     0.030 A 
HETATM   19  C8  UNL     1      25.015   5.967  50.165  1.00  0.00     0.154 A 
HETATM   20  N1  UNL     1      25.177   4.584  50.461  1.00  0.00    -0.362 N 
HETATM   21  C16 UNL     1      26.286   3.952  49.783  1.00  0.00     0.090 A 
HETATM   22  C17 UNL     1      27.183   4.476  48.966  1.00  0.00     0.054 A 
BRANCH  20  23
HETATM   23  C9  UNL     1      24.464   3.716  51.330  1.00  0.00     0.395 C 
BRANCH  23  24
HETATM   24  N2  UNL     1      25.198   2.784  52.109  1.00  0.00     0.105 NA
HETATM   25  H10 UNL     1      26.219   2.966  52.138  1.00  0.00     0.318 HD
BRANCH  24  26
HETATM   26  C10 UNL     1      24.896   1.396  51.925  1.00  0.00     0.222 C 
HETATM   27  C11 UNL     1      23.948   0.956  53.027  1.00  0.00     0.036 C 
HETATM   28  C12 UNL     1      24.258  -0.443  53.531  1.00  0.00     0.002 C 
HETATM   29  C13 UNL     1      25.645  -0.490  54.145  1.00  0.00     0.000 C 
HETATM   30  C14 UNL     1      26.519   0.620  53.575  1.00  0.00     0.002 C 
HETATM   31  C15 UNL     1      26.236   0.650  52.094  1.00  0.00     0.036 C 
ENDBRANCH  24  26
ENDBRANCH  23  24
ENDBRANCH  20  23
ENDBRANCH   1  17
TORSDOF 8
ENDMDL
MODEL 2
REMARK VINA RESULT:      -8.0      3.944      9.776
REMARK  8 active torsions:
REMARK  status: ('A' for Active; 'I' for Inactive)
REMARK    1  A    between atoms: O1_2  and  C2_3 
REMARK    2  A    between atoms: C5_6  and  O2_7 
REMARK    3  A    between atoms: O2_7  and  C6_8 
REMARK    4  A    between atoms: N1_11  and  C9_12 
REMARK    5  A    between atoms: C9_12  and  N2_13 
REMARK    6  A    between atoms: N2_13  and  C10_14 
REMARK    7  A    between atoms: C21_27  and  O3_28 
REMARK    8  A    between atoms: O3_28  and  C22_29 
ROOT
HETATM    1  O2  UNL     1      25.280   3.407  49.925  1.00  0.00    -0.291 OA
ENDROOT
BRANCH   1   2
HETATM    2  C5  UNL     1      25.645   2.594  50.997  1.00  0.00     0.183 A 
HETATM    3  C4  UNL     1      24.664   1.799  51.571  1.00  0.00     0.049 A 
HETATM    4  C3  UNL     1      23.355   1.780  51.129  1.00  0.00     0.057 A 
HETATM    5  C19 UNL     1      25.048   0.994  52.640  1.00  0.00     0.075 A 
HETATM    6  C2  UNL     1      22.453   0.955  51.766  1.00  0.00     0.103 A 
HETATM    7  C21 UNL     1      22.804   0.147  52.827  1.00  0.00     0.114 A 
HETATM    8  C20 UNL     1      24.129   0.179  53.260  1.00  0.00     0.073 A 
HETATM    9  N4  UNL     1      26.324   1.006  53.078  1.00  0.00    -0.241 NA
HETATM   10  C18 UNL     1      27.271   1.785  52.511  1.00  0.00     0.236 A 
HETATM   11  N3  UNL     1      26.903   2.566  51.476  1.00  0.00    -0.217 NA
BRANCH   6  12
HETATM   12  O1  UNL     1      21.118   0.879  51.380  1.00  0.00    -0.353 OA
HETATM   13  C1  UNL     1      20.235   1.882  51.837  1.00  0.00     0.210 C 
ENDBRANCH   6  12
BRANCH   7  14
HETATM   14  O3  UNL     1      21.917  -0.701  53.495  1.00  0.00    -0.283 OA
BRANCH  14  15
HETATM   15  C22 UNL     1      22.031  -0.827  54.871  1.00  0.00     0.403 C 
HETATM   16  O4  UNL     1      22.054  -2.048  55.183  1.00  0.00    -0.276 OA
ENDBRANCH  14  15
ENDBRANCH   7  14
ENDBRANCH   1   2
BRANCH   1  17
HETATM   17  C6  UNL     1      26.032   4.506  49.541  1.00  0.00     0.077 A 
HETATM   18  C7  UNL     1      27.191   4.389  48.923  1.00  0.00     0.030 A 
HETATM   19  C8  UNL     1      28.143   5.446  48.424  1.00  0.00     0.154 A 
HETATM   20  N1  UNL     1      27.714   6.771  48.724  1.00  0.00    -0.362 N 
HETATM   21  C16 UNL     1      26.432   6.851  49.386  1.00  0.00     0.090 A 
HETATM   22  C17 UNL     1      25.627   5.882  49.783  1.00  0.00     0.054 A 
BRANCH  20  23
HETATM   23  C9  UNL     1      28.335   8.031  48.518  1.00  0.00     0.395 C 
BRANCH  23  24
HETATM   24  N2  UNL     1      29.420   8.397  49.357  1.00  0.00     0.105 NA
HETATM   25  H10 UNL     1      29.179   9.101  50.079  1.00  0.00     0.318 HD
BRANCH  24  26
HETATM   26  C10 UNL     1      30.674   8.673  48.722  1.00  0.00     0.222 C 
HETATM   27  C11 UNL     1      30.667   8.040  47.341  1.00  0.00     0.036 C 
HETATM   28  C12 UNL     1      32.013   7.439  46.974  1.00  0.00     0.002 C 
HETATM   29  C13 UNL     1      32.372   6.319  47.932  1.00  0.00     0.000 C 
HETATM   30  C14 UNL     1      31.650   6.501  49.261  1.00  0.00     0.002 C 
HETATM   31  C15 UNL     1      31.743   7.971  49.585  1.00  0.00     0.036 C 
ENDBRANCH  24  26
ENDBRANCH  23  24
ENDBRANCH  20  23
ENDBRANCH   1  17
TORSDOF 8
ENDMDL
MODEL 3
REMARK VINA RESULT:      -7.9      4.073      8.788
REMARK  8 active torsions:
REMARK  status: ('A' for Active; 'I' for Inactive)
REMARK    1  A    between atoms: O1_2  and  C2_3 
REMARK    2  A    between atoms: C5_6  and  O2_7 
REMARK    3  A    between atoms: O2_7  and  C6_8 
REMARK    4  A    between atoms: N1_11  and  C9_12 
REMARK    5  A    between atoms: C9_12  and  N2_13 
REMARK    6  A    between atoms: N2_13  and  C10_14 
REMARK    7  A    between atoms: C21_27  and  O3_28 
REMARK    8  A    between atoms: O3_28  and  C22_29 
ROOT
HETATM    1  O2  UNL     1      23.470   4.030  52.697  1.00  0.00    -0.291 OA
ENDROOT
BRANCH   1   2
HETATM    2  C5  UNL     1      23.292   2.651  52.603  1.00  0.00     0.183 A 
HETATM    3  C4  UNL     1      24.333   1.833  53.019  1.00  0.00     0.049 A 
HETATM    4  C3  UNL     1      25.525   2.324  53.516  1.00  0.00     0.057 A 
HETATM    5  C19 UNL     1      24.136   0.458  52.917  1.00  0.00     0.075 A 
HETATM    6  C2  UNL     1      26.500   1.429  53.903  1.00  0.00     0.103 A 
HETATM    7  C21 UNL     1      26.333   0.063  53.815  1.00  0.00     0.114 A 
HETATM    8  C20 UNL     1      25.124  -0.415  53.310  1.00  0.00     0.073 A 
HETATM    9  N4  UNL     1      22.975  -0.031  52.433  1.00  0.00    -0.241 NA
HETATM   10  C18 UNL     1      21.969   0.777  52.031  1.00  0.00     0.236 A 
HETATM   11  N3  UNL     1      22.155   2.108  52.127  1.00  0.00    -0.217 NA
BRANCH   6  12
HETATM   12  O1  UNL     1      27.725   1.845  54.414  1.00  0.00    -0.353 OA
HETATM   13  C1  UNL     1      28.641   2.457  53.530  1.00  0.00     0.210 C 
ENDBRANCH   6  12
BRANCH   7  14
HETATM   14  O3  UNL     1      27.298  -0.872  54.198  1.00  0.00    -0.283 OA
BRANCH  14  15
HETATM   15  C22 UNL     1      28.160  -1.368  53.231  1.00  0.00     0.403 C 
HETATM   16  O4  UNL     1      27.992  -2.611  53.114  1.00  0.00    -0.276 OA
ENDBRANCH  14  15
ENDBRANCH   7  14
ENDBRANCH   1   2
BRANCH   1  17
HETATM   17  C6  UNL     1      23.899   4.795  51.625  1.00  0.00     0.077 A 
HETATM   18  C7  UNL     1      23.800   6.110  51.610  1.00  0.00     0.030 A 
HETATM   19  C8  UNL     1      24.209   7.108  50.557  1.00  0.00     0.154 A 
HETATM   20  N1  UNL     1      24.743   6.498  49.386  1.00  0.00    -0.362 N 
HETATM   21  C16 UNL     1      24.849   5.059  49.454  1.00  0.00     0.090 A 
HETATM   22  C17 UNL     1      24.490   4.233  50.420  1.00  0.00     0.054 A 
BRANCH  20  23
HETATM   23  C9  UNL     1      25.163   7.049  48.145  1.00  0.00     0.395 C 
BRANCH  23  24
HETATM   24  N2  UNL     1      26.217   7.999  48.148  1.00  0.00     0.105 NA
HETATM   25  H10 UNL     1      26.451   8.376  47.210  1.00  0.00     0.318 HD
BRANCH  24  26
HETATM   26  C10 UNL     1      27.384   7.679  48.915  1.00  0.00     0.222 C 
HETATM   27  C11 UNL     1      28.246   8.925  49.029  1.00  0.00     0.036 C 
HETATM   28  C12 UNL     1      29.729   8.612  48.930  1.00  0.00     0.002 C 
HETATM   29  C13 UNL     1      30.056   8.014  47.575  1.00  0.00     0.000 C 
HETATM   30  C14 UNL     1      28.820   7.364  46.966  1.00  0.00     0.002 C 
HETATM   31  C15 UNL     1      28.147   6.620  48.093  1.00  0.00     0.036 C 
ENDBRANCH  24  26
ENDBRANCH  23  24
ENDBRANCH  20  23
ENDBRANCH   1  17
TORSDOF 8
ENDMDL
MODEL 4
REMARK VINA RESULT:      -7.9      6.840     10.142
REMARK  8 active torsions:
REMARK  status: ('A' for Active; 'I' for Inactive)
REMARK    1  A    between atoms: O1_2  and  C2_3 
REMARK    2  A    between atoms: C5_6  and  O2_7 
REMARK    3  A    between atoms: O2_7  and  C6_8 
REMARK    4  A    between atoms: N1_11  and  C9_12 
REMARK    5  A    between atoms: C9_12  and  N2_13 
REMARK    6  A    between atoms: N2_13  and  C10_14 
REMARK    7  A    between atoms: C21_27  and  O3_28 
REMARK    8  A    between atoms: O3_28  and  C22_29 
ROOT
HETATM    1  O2  UNL     1      21.956   0.286  51.584  1.00  0.00    -0.291 OA
ENDROOT
BRANCH   1   2
HETATM    2  C5  UNL     1      22.600   1.432  52.047  1.00  0.00     0.183 A 
HETATM    3  C4  UNL     1      23.819   1.275  52.690  1.00  0.00     0.049 A 
HETATM    4  C3  UNL     1      24.414   0.044  52.888  1.00  0.00     0.057 A 
HETATM    5  C19 UNL     1      24.447   2.432  53.146  1.00  0.00     0.075 A 
HETATM    6  C2  UNL     1      25.628  -0.008  53.540  1.00  0.00     0.103 A 
HETATM    7  C21 UNL     1      26.273   1.120  54.002  1.00  0.00     0.114 A 
HETATM    8  C20 UNL     1      25.658   2.354  53.793  1.00  0.00     0.073 A 
HETATM    9  N4  UNL     1      23.873   3.639  52.956  1.00  0.00    -0.241 NA
HETATM   10  C18 UNL     1      22.685   3.778  52.328  1.00  0.00     0.236 A 
HETATM   11  N3  UNL     1      22.074   2.661  51.886  1.00  0.00    -0.217 NA
BRANCH   6  12
HETATM   12  O1  UNL     1      26.290  -1.208  53.777  1.00  0.00    -0.353 OA
HETATM   13  C1  UNL     1      26.913  -1.851  52.684  1.00  0.00     0.210 C 
ENDBRANCH   6  12
BRANCH   7  14
HETATM   14  O3  UNL     1      27.503   1.105  54.665  1.00  0.00    -0.283 OA
BRANCH  14  15
HETATM   15  C22 UNL     1      28.647   1.409  53.944  1.00  0.00     0.403 C 
HETATM   16  O4  UNL     1      29.146   2.483  54.376  1.00  0.00    -0.276 OA
ENDBRANCH  14  15
ENDBRANCH   7  14
ENDBRANCH   1   2
BRANCH   1  17
HETATM   17  C6  UNL     1      20.607   0.055  51.804  1.00  0.00     0.077 A 
HETATM   18  C7  UNL     1      20.151  -0.439  52.938  1.00  0.00     0.030 A 
HETATM   19  C8  UNL     1      18.741  -0.752  53.369  1.00  0.00     0.154 A 
HETATM   20  N1  UNL     1      17.776  -0.506  52.350  1.00  0.00    -0.362 N 
HETATM   21  C16 UNL     1      18.320   0.050  51.132  1.00  0.00     0.090 A 
HETATM   22  C17 UNL     1      19.573   0.324  50.817  1.00  0.00     0.054 A 
BRANCH  20  23
HETATM   23  C9  UNL     1      16.376  -0.739  52.303  1.00  0.00     0.395 C 
BRANCH  23  24
HETATM   24  N2  UNL     1      15.529   0.055  53.119  1.00  0.00     0.105 NA
HETATM   25  H10 UNL     1      15.295  -0.376  54.033  1.00  0.00     0.318 HD
BRANCH  24  26
HETATM   26  C10 UNL     1      14.391   0.656  52.490  1.00  0.00     0.222 C 
HETATM   27  C11 UNL     1      14.217   2.060  53.042  1.00  0.00     0.036 C 
HETATM   28  C12 UNL     1      12.756   2.424  53.244  1.00  0.00     0.002 C 
HETATM   29  C13 UNL     1      12.116   1.504  54.266  1.00  0.00     0.000 C 
HETATM   30  C14 UNL     1      12.871   0.183  54.341  1.00  0.00     0.002 C 
HETATM   31  C15 UNL     1      13.179  -0.199  52.915  1.00  0.00     0.036 C 
ENDBRANCH  24  26
ENDBRANCH  23  24
ENDBRANCH  20  23
ENDBRANCH   1  17
TORSDOF 8
ENDMDL
MODEL 5
REMARK VINA RESULT:      -7.7      5.663      9.093
REMARK  8 active torsions:
REMARK  status: ('A' for Active; 'I' for Inactive)
REMARK    1  A    between atoms: O1_2  and  C2_3 
REMARK    2  A    between atoms: C5_6  and  O2_7 
REMARK    3  A    between atoms: O2_7  and  C6_8 
REMARK    4  A    between atoms: N1_11  and  C9_12 
REMARK    5  A    between atoms: C9_12  and  N2_13 
REMARK    6  A    between atoms: N2_13  and  C10_14 
REMARK    7  A    between atoms: C21_27  and  O3_28 
REMARK    8  A    between atoms: O3_28  and  C22_29 
ROOT
HETATM    1  O2  UNL     1      22.243   0.146  51.767  1.00  0.00    -0.291 OA
ENDROOT
BRANCH   1   2
HETATM    2  C5  UNL     1      22.688  -0.350  52.991  1.00  0.00     0.183 A 
HETATM    3  C4  UNL     1      24.014  -0.134  53.335  1.00  0.00     0.049 A 
HETATM    4  C3  UNL     1      24.903   0.544  52.523  1.00  0.00     0.057 A 
HETATM    5  C19 UNL     1      24.439  -0.637  54.562  1.00  0.00     0.075 A 
HETATM    6  C2  UNL     1      26.202   0.706  52.953  1.00  0.00     0.103 A 
HETATM    7  C21 UNL     1      26.652   0.220  54.163  1.00  0.00     0.114 A 
HETATM    8  C20 UNL     1      25.742  -0.462  54.970  1.00  0.00     0.073 A 
HETATM    9  N4  UNL     1      23.578  -1.300  55.362  1.00  0.00    -0.241 NA
HETATM   10  C18 UNL     1      22.289  -1.504  55.016  1.00  0.00     0.236 A 
HETATM   11  N3  UNL     1      21.873  -1.019  53.829  1.00  0.00    -0.217 NA
BRANCH   6  12
HETATM   12  O1  UNL     1      27.156   1.377  52.193  1.00  0.00    -0.353 OA
HETATM   13  C1  UNL     1      26.718   2.422  51.349  1.00  0.00     0.210 C 
ENDBRANCH   6  12
BRANCH   7  14
HETATM   14  O3  UNL     1      27.960   0.366  54.631  1.00  0.00    -0.283 OA
BRANCH  14  15
HETATM   15  C22 UNL     1      28.972  -0.343  54.001  1.00  0.00     0.403 C 
HETATM   16  O4  UNL     1      28.598  -1.531  53.809  1.00  0.00    -0.276 OA
ENDBRANCH  14  15
ENDBRANCH   7  14
ENDBRANCH   1   2
BRANCH   1  17
HETATM   17  C6  UNL     1      21.975   1.490  51.566  1.00  0.00     0.077 A 
HETATM   18  C7  UNL     1      21.209   2.188  52.381  1.00  0.00     0.030 A 
HETATM   19  C8  UNL     1      20.807   3.640  52.340  1.00  0.00     0.154 A 
HETATM   20  N1  UNL     1      21.318   4.330  51.203  1.00  0.00    -0.362 N 
HETATM   21  C16 UNL     1      22.165   3.531  50.348  1.00  0.00     0.090 A 
HETATM   22  C17 UNL     1      22.500   2.257  50.447  1.00  0.00     0.054 A 
BRANCH  20  23
HETATM   23  C9  UNL     1      21.117   5.657  50.738  1.00  0.00     0.395 C 
BRANCH  23  24
HETATM   24  N2  UNL     1      21.893   6.699  51.310  1.00  0.00     0.105 NA
HETATM   25  H10 UNL     1      21.404   7.233  52.053  1.00  0.00     0.318 HD
BRANCH  24  26
HETATM   26  C10 UNL     1      22.611   7.549  50.409  1.00  0.00     0.222 C 
HETATM   27  C11 UNL     1      22.573   6.928  49.023  1.00  0.00     0.036 C 
HETATM   28  C12 UNL     1      23.888   7.093  48.280  1.00  0.00     0.002 C 
HETATM   29  C13 UNL     1      25.006   6.378  49.015  1.00  0.00     0.000 C 
HETATM   30  C14 UNL     1      24.666   6.233  50.493  1.00  0.00     0.002 C 
HETATM   31  C15 UNL     1      24.070   7.554  50.912  1.00  0.00     0.036 C 
ENDBRANCH  24  26
ENDBRANCH  23  24
ENDBRANCH  20  23
ENDBRANCH   1  17
TORSDOF 8
ENDMDL
MODEL 6
REMARK VINA RESULT:      -7.6      3.909      9.680
REMARK  8 active torsions:
REMARK  status: ('A' for Active; 'I' for Inactive)
REMARK    1  A    between atoms: O1_2  and  C2_3 
REMARK    2  A    between atoms: C5_6  and  O2_7 
REMARK    3  A    between atoms: O2_7  and  C6_8 
REMARK    4  A    between atoms: N1_11  and  C9_12 
REMARK    5  A    between atoms: C9_12  and  N2_13 
REMARK    6  A    between atoms: N2_13  and  C10_14 
REMARK    7  A    between atoms: C21_27  and  O3_28 
REMARK    8  A    between atoms: O3_28  and  C22_29 
ROOT
HETATM    1  O2  UNL     1      25.409   3.421  49.714  1.00  0.00    -0.291 OA
ENDROOT
BRANCH   1   2
HETATM    2  C5  UNL     1      24.132   3.068  50.145  1.00  0.00     0.183 A 
HETATM    3  C4  UNL     1      24.028   2.152  51.181  1.00  0.00     0.049 A 
HETATM    4  C3  UNL     1      25.126   1.582  51.797  1.00  0.00     0.057 A 
HETATM    5  C19 UNL     1      22.743   1.811  51.597  1.00  0.00     0.075 A 
HETATM    6  C2  UNL     1      24.918   0.680  52.819  1.00  0.00     0.103 A 
HETATM    7  C21 UNL     1      23.658   0.323  53.253  1.00  0.00     0.114 A 
HETATM    8  C20 UNL     1      22.562   0.908  52.620  1.00  0.00     0.073 A 
HETATM    9  N4  UNL     1      21.665   2.363  51.003  1.00  0.00    -0.241 NA
HETATM   10  C18 UNL     1      21.780   3.254  49.994  1.00  0.00     0.236 A 
HETATM   11  N3  UNL     1      23.021   3.586  49.587  1.00  0.00    -0.217 NA
BRANCH   6  12
HETATM   12  O1  UNL     1      25.971   0.064  53.488  1.00  0.00    -0.353 OA
HETATM   13  C1  UNL     1      26.711  -0.923  52.800  1.00  0.00     0.210 C 
ENDBRANCH   6  12
BRANCH   7  14
HETATM   14  O3  UNL     1      23.411  -0.585  54.284  1.00  0.00    -0.283 OA
BRANCH  14  15
HETATM   15  C22 UNL     1      22.153  -1.162  54.371  1.00  0.00     0.403 C 
HETATM   16  O4  UNL     1      22.136  -1.997  55.315  1.00  0.00    -0.276 OA
ENDBRANCH  14  15
ENDBRANCH   7  14
ENDBRANCH   1   2
BRANCH   1  17
HETATM   17  C6  UNL     1      25.822   4.741  49.628  1.00  0.00     0.077 A 
HETATM   18  C7  UNL     1      26.818   5.121  48.851  1.00  0.00     0.030 A 
HETATM   19  C8  UNL     1      27.405   6.489  48.616  1.00  0.00     0.154 A 
HETATM   20  N1  UNL     1      26.794   7.504  49.407  1.00  0.00    -0.362 N 
HETATM   21  C16 UNL     1      25.698   7.045  50.229  1.00  0.00     0.090 A 
HETATM   22  C17 UNL     1      25.211   5.826  50.379  1.00  0.00     0.054 A 
BRANCH  20  23
HETATM   23  C9  UNL     1      27.089   8.885  49.559  1.00  0.00     0.395 C 
BRANCH  23  24
HETATM   24  N2  UNL     1      28.338   9.253  50.125  1.00  0.00     0.105 NA
HETATM   25  H10 UNL     1      28.277   9.580  51.108  1.00  0.00     0.318 HD
BRANCH  24  26
HETATM   26  C10 UNL     1      29.201  10.071  49.328  1.00  0.00     0.222 C 
HETATM   27  C11 UNL     1      28.810   9.912  47.869  1.00  0.00     0.036 C 
HETATM   28  C12 UNL     1      30.016   9.884  46.947  1.00  0.00     0.002 C 
HETATM   29  C13 UNL     1      30.898   8.691  47.263  1.00  0.00     0.000 C 
HETATM   30  C14 UNL     1      30.687   8.238  48.702  1.00  0.00     0.002 C 
HETATM   31  C15 UNL     1      30.620   9.499  49.527  1.00  0.00     0.036 C 
ENDBRANCH  24  26
ENDBRANCH  23  24
ENDBRANCH  20  23
ENDBRANCH   1  17
TORSDOF 8
ENDMDL
MODEL 7
REMARK VINA RESULT:      -7.5      6.577     10.253
REMARK  8 active torsions:
REMARK  status: ('A' for Active; 'I' for Inactive)
REMARK    1  A    between atoms: O1_2  and  C2_3 
REMARK    2  A    between atoms: C5_6  and  O2_7 
REMARK    3  A    between atoms: O2_7  and  C6_8 
REMARK    4  A    between atoms: N1_11  and  C9_12 
REMARK    5  A    between atoms: C9_12  and  N2_13 
REMARK    6  A    between atoms: N2_13  and  C10_14 
REMARK    7  A    between atoms: C21_27  and  O3_28 
REMARK    8  A    between atoms: O3_28  and  C22_29 
ROOT
HETATM    1  O2  UNL     1      21.963   0.208  51.619  1.00  0.00    -0.291 OA
ENDROOT
BRANCH   1   2
HETATM    2  C5  UNL     1      22.426  -0.301  52.831  1.00  0.00     0.183 A 
HETATM    3  C4  UNL     1      23.751  -0.070  53.168  1.00  0.00     0.049 A 
HETATM    4  C3  UNL     1      24.622   0.637  52.361  1.00  0.00     0.057 A 
HETATM    5  C19 UNL     1      24.194  -0.587  54.382  1.00  0.00     0.075 A 
HETATM    6  C2  UNL     1      25.922   0.814  52.784  1.00  0.00     0.103 A 
HETATM    7  C21 UNL     1      26.389   0.314  53.981  1.00  0.00     0.114 A 
HETATM    8  C20 UNL     1      25.497  -0.397  54.783  1.00  0.00     0.073 A 
HETATM    9  N4  UNL     1      23.351  -1.279  55.177  1.00  0.00    -0.241 NA
HETATM   10  C18 UNL     1      22.062  -1.498  54.837  1.00  0.00     0.236 A 
HETATM   11  N3  UNL     1      21.629  -0.999  53.663  1.00  0.00    -0.217 NA
BRANCH   6  12
HETATM   12  O1  UNL     1      26.857   1.514  52.029  1.00  0.00    -0.353 OA
HETATM   13  C1  UNL     1      26.382   2.418  51.052  1.00  0.00     0.210 C 
ENDBRANCH   6  12
BRANCH   7  14
HETATM   14  O3  UNL     1      27.698   0.474  54.441  1.00  0.00    -0.283 OA
BRANCH  14  15
HETATM   15  C22 UNL     1      28.655  -0.453  54.054  1.00  0.00     0.403 C 
HETATM   16  O4  UNL     1      29.703   0.148  53.694  1.00  0.00    -0.276 OA
ENDBRANCH  14  15
ENDBRANCH   7  14
ENDBRANCH   1   2
BRANCH   1  17
HETATM   17  C6  UNL     1      20.941   1.141  51.550  1.00  0.00     0.077 A 
HETATM   18  C7  UNL     1      21.136   2.422  51.796  1.00  0.00     0.030 A 
HETATM   19  C8  UNL     1      20.170   3.579  51.769  1.00  0.00     0.154 A 
HETATM   20  N1  UNL     1      18.834   3.186  51.471  1.00  0.00    -0.362 N 
HETATM   21  C16 UNL     1      18.671   1.778  51.192  1.00  0.00     0.090 A 
HETATM   22  C17 UNL     1      19.567   0.806  51.212  1.00  0.00     0.054 A 
BRANCH  20  23
HETATM   23  C9  UNL     1      17.622   3.925  51.429  1.00  0.00     0.395 C 
BRANCH  23  24
HETATM   24  N2  UNL     1      16.553   3.523  52.272  1.00  0.00     0.105 NA
HETATM   25  H10 UNL     1      16.341   2.508  52.233  1.00  0.00     0.318 HD
BRANCH  24  26
HETATM   26  C10 UNL     1      15.371   4.330  52.259  1.00  0.00     0.222 C 
HETATM   27  C11 UNL     1      14.788   4.359  53.661  1.00  0.00     0.036 C 
HETATM   28  C12 UNL     1      13.270   4.308  53.657  1.00  0.00     0.002 C 
HETATM   29  C13 UNL     1      12.785   3.009  53.043  1.00  0.00     0.000 C 
HETATM   30  C14 UNL     1      13.840   2.434  52.106  1.00  0.00     0.002 C 
HETATM   31  C15 UNL     1      14.380   3.605  51.324  1.00  0.00     0.036 C 
ENDBRANCH  24  26
ENDBRANCH  23  24
ENDBRANCH  20  23
ENDBRANCH   1  17
TORSDOF 8
ENDMDL
MODEL 8
REMARK VINA RESULT:      -7.4      5.840      8.692
REMARK  8 active torsions:
REMARK  status: ('A' for Active; 'I' for Inactive)
REMARK    1  A    between atoms: O1_2  and  C2_3 
REMARK    2  A    between atoms: C5_6  and  O2_7 
REMARK    3  A    between atoms: O2_7  and  C6_8 
REMARK    4  A    between atoms: N1_11  and  C9_12 
REMARK    5  A    between atoms: C9_12  and  N2_13 
REMARK    6  A    between atoms: N2_13  and  C10_14 
REMARK    7  A    between atoms: C21_27  and  O3_28 
REMARK    8  A    between atoms: O3_28  and  C22_29 
ROOT
HETATM    1  O2  UNL     1      23.111   3.464  52.262  1.00  0.00    -0.291 OA
ENDROOT
BRANCH   1   2
HETATM    2  C5  UNL     1      24.360   3.106  51.758  1.00  0.00     0.183 A 
HETATM    3  C4  UNL     1      24.940   1.939  52.231  1.00  0.00     0.049 A 
HETATM    4  C3  UNL     1      24.337   1.124  53.170  1.00  0.00     0.057 A 
HETATM    5  C19 UNL     1      26.188   1.598  51.715  1.00  0.00     0.075 A 
HETATM    6  C2  UNL     1      24.995  -0.017  53.578  1.00  0.00     0.103 A 
HETATM    7  C21 UNL     1      26.231  -0.379  53.085  1.00  0.00     0.114 A 
HETATM    8  C20 UNL     1      26.825   0.454  52.138  1.00  0.00     0.073 A 
HETATM    9  N4  UNL     1      26.785   2.387  50.797  1.00  0.00    -0.241 NA
HETATM   10  C18 UNL     1      26.209   3.523  50.344  1.00  0.00     0.236 A 
HETATM   11  N3  UNL     1      25.002   3.856  50.841  1.00  0.00    -0.217 NA
BRANCH   6  12
HETATM   12  O1  UNL     1      24.454  -0.887  54.519  1.00  0.00    -0.353 OA
HETATM   13  C1  UNL     1      23.048  -1.003  54.587  1.00  0.00     0.210 C 
ENDBRANCH   6  12
BRANCH   7  14
HETATM   14  O3  UNL     1      26.925  -1.527  53.474  1.00  0.00    -0.283 OA
BRANCH  14  15
HETATM   15  C22 UNL     1      28.273  -1.624  53.162  1.00  0.00     0.403 C 
HETATM   16  O4  UNL     1      28.634  -2.830  53.219  1.00  0.00    -0.276 OA
ENDBRANCH  14  15
ENDBRANCH   7  14
ENDBRANCH   1   2
BRANCH   1  17
HETATM   17  C6  UNL     1      21.961   3.419  51.490  1.00  0.00     0.077 A 
HETATM   18  C7  UNL     1      21.154   4.454  51.365  1.00  0.00     0.030 A 
HETATM   19  C8  UNL     1      19.876   4.605  50.578  1.00  0.00     0.154 A 
HETATM   20  N1  UNL     1      19.484   3.409  49.913  1.00  0.00    -0.362 N 
HETATM   21  C16 UNL     1      20.407   2.308  50.065  1.00  0.00     0.090 A 
HETATM   22  C17 UNL     1      21.531   2.240  50.756  1.00  0.00     0.054 A 
BRANCH  20  23
HETATM   23  C9  UNL     1      18.329   3.091  49.150  1.00  0.00     0.395 C 
BRANCH  23  24
HETATM   24  N2  UNL     1      18.000   1.724  48.956  1.00  0.00     0.105 NA
HETATM   25  H10 UNL     1      18.172   1.379  47.994  1.00  0.00     0.318 HD
BRANCH  24  26
HETATM   26  C10 UNL     1      16.747   1.273  49.483  1.00  0.00     0.222 C 
HETATM   27  C11 UNL     1      16.467   2.020  50.775  1.00  0.00     0.036 C 
HETATM   28  C12 UNL     1      15.830   1.131  51.830  1.00  0.00     0.002 C 
HETATM   29  C13 UNL     1      16.769   0.001  52.209  1.00  0.00     0.000 C 
HETATM   30  C14 UNL     1      17.751  -0.278  51.079  1.00  0.00     0.002 C 
HETATM   31  C15 UNL     1      16.943  -0.223  49.805  1.00  0.00     0.036 C 
ENDBRANCH  24  26
ENDBRANCH  23  24
ENDBRANCH  20  23
ENDBRANCH   1  17
TORSDOF 8
ENDMDL
MODEL 9
REMARK VINA RESULT:      -7.2      5.943      9.044
REMARK  8 active torsions:
REMARK  status: ('A' for Active; 'I' for Inactive)
REMARK    1  A    between atoms: O1_2  and  C2_3 
REMARK    2  A    between atoms: C5_6  and  O2_7 
REMARK    3  A    between atoms: O2_7  and  C6_8 
REMARK    4  A    between atoms: N1_11  and  C9_12 
REMARK    5  A    between atoms: C9_12  and  N2_13 
REMARK    6  A    between atoms: N2_13  and  C10_14 
REMARK    7  A    between atoms: C21_27  and  O3_28 
REMARK    8  A    between atoms: O3_28  and  C22_29 
ROOT
HETATM    1  O2  UNL     1      23.180   2.931  52.749  1.00  0.00    -0.291 OA
ENDROOT
BRANCH   1   2
HETATM    2  C5  UNL     1      24.411   2.787  52.110  1.00  0.00     0.183 A 
HETATM    3  C4  UNL     1      25.291   1.835  52.603  1.00  0.00     0.049 A 
HETATM    4  C3  UNL     1      25.001   1.032  53.690  1.00  0.00     0.057 A 
HETATM    5  C19 UNL     1      26.514   1.707  51.951  1.00  0.00     0.075 A 
HETATM    6  C2  UNL     1      25.943   0.115  54.105  1.00  0.00     0.103 A 
HETATM    7  C21 UNL     1      27.163  -0.035  53.479  1.00  0.00     0.114 A 
HETATM    8  C20 UNL     1      27.438   0.784  52.384  1.00  0.00     0.073 A 
HETATM    9  N4  UNL     1      26.806   2.487  50.889  1.00  0.00    -0.241 NA
HETATM   10  C18 UNL     1      25.940   3.411  50.418  1.00  0.00     0.236 A 
HETATM   11  N3  UNL     1      24.755   3.539  51.046  1.00  0.00    -0.217 NA
BRANCH   6  12
HETATM   12  O1  UNL     1      25.726  -0.729  55.189  1.00  0.00    -0.353 OA
HETATM   13  C1  UNL     1      24.418  -1.220  55.399  1.00  0.00     0.210 C 
ENDBRANCH   6  12
BRANCH   7  14
HETATM   14  O3  UNL     1      28.139  -0.953  53.872  1.00  0.00    -0.283 OA
BRANCH  14  15
HETATM   15  C22 UNL     1      29.393  -0.477  54.223  1.00  0.00     0.403 C 
HETATM   16  O4  UNL     1      30.279  -1.265  53.795  1.00  0.00    -0.276 OA
ENDBRANCH  14  15
ENDBRANCH   7  14
ENDBRANCH   1   2
BRANCH   1  17
HETATM   17  C6  UNL     1      22.001   2.456  52.199  1.00  0.00     0.077 A 
HETATM   18  C7  UNL     1      21.950   1.350  51.483  1.00  0.00     0.030 A 
HETATM   19  C8  UNL     1      20.781   0.673  50.814  1.00  0.00     0.154 A 
HETATM   20  N1  UNL     1      19.560   1.392  50.959  1.00  0.00    -0.362 N 
HETATM   21  C16 UNL     1      19.660   2.587  51.764  1.00  0.00     0.090 A 
HETATM   22  C17 UNL     1      20.718   3.124  52.347  1.00  0.00     0.054 A 
BRANCH  20  23
HETATM   23  C9  UNL     1      18.263   1.163  50.427  1.00  0.00     0.395 C 
BRANCH  23  24
HETATM   24  N2  UNL     1      17.148   1.239  51.303  1.00  0.00     0.105 NA
HETATM   25  H10 UNL     1      16.844   0.322  51.682  1.00  0.00     0.318 HD
BRANCH  24  26
HETATM   26  C10 UNL     1      16.046   2.053  50.888  1.00  0.00     0.222 C 
HETATM   27  C11 UNL     1      16.068   3.344  51.688  1.00  0.00     0.036 C 
HETATM   28  C12 UNL     1      14.675   3.808  52.075  1.00  0.00     0.002 C 
HETATM   29  C13 UNL     1      14.006   2.786  52.974  1.00  0.00     0.000 C 
HETATM   30  C14 UNL     1      14.610   1.405  52.754  1.00  0.00     0.002 C 
HETATM   31  C15 UNL     1      14.777   1.259  51.262  1.00  0.00     0.036 C 
ENDBRANCH  24  26
ENDBRANCH  23  24
ENDBRANCH  20  23
ENDBRANCH   1  17
TORSDOF 8
ENDMDL
