MODEL 1
REMARK VINA RESULT:      -9.0      0.000      0.000
REMARK  3 active torsions:
REMARK  status: ('A' for Active; 'I' for Inactive)
REMARK    1  A    between atoms: C5_5  and  C6_6 
REMARK    2  A    between atoms: C8_8  and  C9_9 
REMARK    3  A    between atoms: C15_17  and  O1_18 
ROOT
HETATM    1  C6  UNL     1      25.893   2.719  51.958  1.00  0.00     0.118 C 
HETATM    2  C7  UNL     1      25.891   2.757  50.465  1.00  0.00     0.050 C 
HETATM    3  C8  UNL     1      25.168   3.907  49.837  1.00  0.00     0.088 C 
HETATM    4  S1  UNL     1      23.899   4.709  50.840  1.00  0.00    -0.066 SA
HETATM    5  C15 UNL     1      22.783   5.359  51.802  1.00  0.00     0.202 A 
HETATM    6  N1  UNL     1      22.798   4.526  52.937  1.00  0.00    -0.195 NA
HETATM    7  C16 UNL     1      23.725   3.795  52.406  1.00  0.00     0.164 A 
HETATM    8  N2  UNL     1      24.582   2.664  52.549  1.00  0.00    -0.361 N 
HETATM    9  H15 UNL     1      24.294   1.784  53.074  1.00  0.00     0.162 HD
ENDROOT
BRANCH   1  10
HETATM   10  C5  UNL     1      26.791   1.643  52.392  1.00  0.00    -0.035 A 
HETATM   11  C4  UNL     1      27.945   2.112  52.977  1.00  0.00     0.010 A 
HETATM   12  C3  UNL     1      28.921   1.230  53.453  1.00  0.00     0.007 A 
HETATM   13  C2  UNL     1      28.754  -0.125  53.348  1.00  0.00    -0.062 A 
HETATM   14  C1  UNL     1      29.795  -1.032  53.857  1.00  0.00     0.048 C 
HETATM   15  C18 UNL     1      27.591  -0.594  52.758  1.00  0.00     0.007 A 
HETATM   16  C17 UNL     1      26.622   0.260  52.285  1.00  0.00     0.010 A 
ENDBRANCH   1  10
BRANCH   3  17
HETATM   17  C9  UNL     1      26.114   4.889  49.214  1.00  0.00    -0.044 A 
HETATM   18  C10 UNL     1      27.410   4.486  48.932  1.00  0.00     0.009 A 
HETATM   19  C11 UNL     1      28.378   5.304  48.355  1.00  0.00     0.019 A 
HETATM   20  C12 UNL     1      28.023   6.599  48.044  1.00  0.00     0.011 A 
HETATM   21 BR1  UNL     1      29.338   7.746  47.249  1.00  0.00    -0.051 Br
HETATM   22  C13 UNL     1      26.740   7.020  48.314  1.00  0.00     0.019 A 
HETATM   23  C14 UNL     1      25.796   6.192  48.887  1.00  0.00     0.009 A 
ENDBRANCH   3  17
BRANCH   5  24
HETATM   24  O1  UNL     1      22.244   6.466  51.157  1.00  0.00    -0.340 OA
HETATM   25  H14 UNL     1      22.473   7.362  51.574  1.00  0.00     0.220 HD
ENDBRANCH   5  24
TORSDOF 3
ENDMDL
MODEL 2
REMARK VINA RESULT:      -8.7      3.775      5.715
REMARK  3 active torsions:
REMARK  status: ('A' for Active; 'I' for Inactive)
REMARK    1  A    between atoms: C5_5  and  C6_6 
REMARK    2  A    between atoms: C8_8  and  C9_9 
REMARK    3  A    between atoms: C15_17  and  O1_18 
ROOT
HETATM    1  C6  UNL     1      25.942   2.219  51.896  1.00  0.00     0.118 C 
HETATM    2  C7  UNL     1      24.938   2.496  52.966  1.00  0.00     0.050 C 
HETATM    3  C8  UNL     1      23.659   3.133  52.521  1.00  0.00     0.088 C 
HETATM    4  S1  UNL     1      23.713   4.049  50.967  1.00  0.00    -0.066 SA
HETATM    5  C15 UNL     1      23.854   4.849  49.576  1.00  0.00     0.202 A 
HETATM    6  N1  UNL     1      25.226   4.752  49.275  1.00  0.00    -0.195 NA
HETATM    7  C16 UNL     1      25.428   4.068  50.355  1.00  0.00     0.164 A 
HETATM    8  N2  UNL     1      26.376   3.388  51.177  1.00  0.00    -0.361 N 
HETATM    9  H15 UNL     1      27.385   3.707  51.280  1.00  0.00     0.162 HD
ENDROOT
BRANCH   1  10
HETATM   10  C5  UNL     1      27.037   1.436  52.481  1.00  0.00    -0.035 A 
HETATM   11  C4  UNL     1      26.847   0.079  52.360  1.00  0.00     0.010 A 
HETATM   12  C3  UNL     1      27.789  -0.827  52.859  1.00  0.00     0.007 A 
HETATM   13  C2  UNL     1      28.925  -0.386  53.483  1.00  0.00    -0.062 A 
HETATM   14  C1  UNL     1      29.901  -1.359  54.000  1.00  0.00     0.048 C 
HETATM   15  C18 UNL     1      29.113   0.982  53.603  1.00  0.00     0.007 A 
HETATM   16  C17 UNL     1      28.197   1.885  53.117  1.00  0.00     0.010 A 
ENDBRANCH   1  10
BRANCH   3  17
HETATM   17  C9  UNL     1      22.506   2.179  52.587  1.00  0.00    -0.044 A 
HETATM   18  C10 UNL     1      21.230   2.648  52.313  1.00  0.00     0.009 A 
HETATM   19  C11 UNL     1      20.082   1.861  52.341  1.00  0.00     0.019 A 
HETATM   20  C12 UNL     1      20.223   0.529  52.663  1.00  0.00     0.011 A 
HETATM   21 BR1  UNL     1      18.657  -0.576  52.709  1.00  0.00    -0.051 Br
HETATM   22  C13 UNL     1      21.481   0.041  52.938  1.00  0.00     0.019 A 
HETATM   23  C14 UNL     1      22.607   0.839  52.904  1.00  0.00     0.009 A 
ENDBRANCH   3  17
BRANCH   5  24
HETATM   24  O1  UNL     1      22.596   5.319  49.215  1.00  0.00    -0.340 OA
HETATM   25  H14 UNL     1      22.537   5.724  48.286  1.00  0.00     0.220 HD
ENDBRANCH   5  24
TORSDOF 3
ENDMDL
MODEL 3
REMARK VINA RESULT:      -8.7      4.286      6.420
REMARK  3 active torsions:
REMARK  status: ('A' for Active; 'I' for Inactive)
REMARK    1  A    between atoms: C5_5  and  C6_6 
REMARK    2  A    between atoms: C8_8  and  C9_9 
REMARK    3  A    between atoms: C15_17  and  O1_18 
ROOT
HETATM    1  C6  UNL     1      21.978   1.675  52.546  1.00  0.00     0.118 C 
HETATM    2  C7  UNL     1      22.989   1.106  51.606  1.00  0.00     0.050 C 
HETATM    3  C8  UNL     1      24.141   1.997  51.259  1.00  0.00     0.088 C 
HETATM    4  S1  UNL     1      23.876   3.772  51.458  1.00  0.00    -0.066 SA
HETATM    5  C15 UNL     1      23.550   5.336  51.660  1.00  0.00     0.202 A 
HETATM    6  N1  UNL     1      22.190   5.347  52.027  1.00  0.00    -0.195 NA
HETATM    7  C16 UNL     1      22.144   4.056  51.946  1.00  0.00     0.164 A 
HETATM    8  N2  UNL     1      21.347   2.880  52.076  1.00  0.00    -0.361 N 
HETATM    9  H15 UNL     1      20.310   2.856  51.841  1.00  0.00     0.162 HD
ENDROOT
BRANCH   1  10
HETATM   10  C5  UNL     1      21.036   0.610  52.911  1.00  0.00    -0.035 A 
HETATM   11  C4  UNL     1      19.851   0.682  52.216  1.00  0.00     0.010 A 
HETATM   12  C3  UNL     1      18.832  -0.252  52.431  1.00  0.00     0.007 A 
HETATM   13  C2  UNL     1      18.987  -1.262  53.343  1.00  0.00    -0.062 A 
HETATM   14  C1  UNL     1      17.900  -2.232  53.552  1.00  0.00     0.048 C 
HETATM   15  C18 UNL     1      20.182  -1.331  54.042  1.00  0.00     0.007 A 
HETATM   16  C17 UNL     1      21.193  -0.422  53.840  1.00  0.00     0.010 A 
ENDBRANCH   1  10
BRANCH   3  17
HETATM   17  C9  UNL     1      25.418   1.532  51.890  1.00  0.00    -0.044 A 
HETATM   18  C10 UNL     1      25.526   0.210  52.292  1.00  0.00     0.009 A 
HETATM   19  C11 UNL     1      26.659  -0.339  52.887  1.00  0.00     0.019 A 
HETATM   20  C12 UNL     1      27.743   0.487  53.090  1.00  0.00     0.011 A 
HETATM   21 BR1  UNL     1      29.314  -0.246  53.909  1.00  0.00    -0.051 Br
HETATM   22  C13 UNL     1      27.658   1.804  52.697  1.00  0.00     0.019 A 
HETATM   23  C14 UNL     1      26.525   2.328  52.108  1.00  0.00     0.009 A 
ENDBRANCH   3  17
BRANCH   5  24
HETATM   24  O1  UNL     1      24.708   6.059  51.399  1.00  0.00    -0.340 OA
HETATM   25  H14 UNL     1      24.879   6.259  50.419  1.00  0.00     0.220 HD
ENDBRANCH   5  24
TORSDOF 3
ENDMDL
MODEL 4
REMARK VINA RESULT:      -8.7      4.491      7.314
REMARK  3 active torsions:
REMARK  status: ('A' for Active; 'I' for Inactive)
REMARK    1  A    between atoms: C5_5  and  C6_6 
REMARK    2  A    between atoms: C8_8  and  C9_9 
REMARK    3  A    between atoms: C15_17  and  O1_18 
ROOT
HETATM    1  C6  UNL     1      22.641   1.217  51.149  1.00  0.00     0.118 C 
HETATM    2  C7  UNL     1      23.595   1.890  52.080  1.00  0.00     0.050 C 
HETATM    3  C8  UNL     1      23.932   1.141  53.332  1.00  0.00     0.088 C 
HETATM    4  S1  UNL     1      22.738  -0.097  53.878  1.00  0.00    -0.066 SA
HETATM    5  C15 UNL     1      21.615  -1.176  54.294  1.00  0.00     0.202 A 
HETATM    6  N1  UNL     1      20.597  -0.979  53.340  1.00  0.00    -0.195 NA
HETATM    7  C16 UNL     1      21.288  -0.042  52.776  1.00  0.00     0.164 A 
HETATM    8  N2  UNL     1      21.356   0.926  51.729  1.00  0.00    -0.361 N 
HETATM    9  H15 UNL     1      20.500   1.438  51.360  1.00  0.00     0.162 HD
ENDROOT
BRANCH   1  10
HETATM   10  C5  UNL     1      22.574   2.001  49.910  1.00  0.00    -0.035 A 
HETATM   11  C4  UNL     1      21.713   1.462  48.982  1.00  0.00     0.010 A 
HETATM   12  C3  UNL     1      21.519   2.074  47.739  1.00  0.00     0.007 A 
HETATM   13  C2  UNL     1      22.184   3.225  47.413  1.00  0.00    -0.062 A 
HETATM   14  C1  UNL     1      21.963   3.850  46.098  1.00  0.00     0.048 C 
HETATM   15  C18 UNL     1      23.051   3.765  48.349  1.00  0.00     0.007 A 
HETATM   16  C17 UNL     1      23.252   3.176  49.576  1.00  0.00     0.010 A 
ENDBRANCH   1  10
BRANCH   3  17
HETATM   17  C9  UNL     1      25.335   0.616  53.310  1.00  0.00    -0.044 A 
HETATM   18  C10 UNL     1      26.234   1.062  54.266  1.00  0.00     0.009 A 
HETATM   19  C11 UNL     1      27.561   0.648  54.349  1.00  0.00     0.019 A 
HETATM   20  C12 UNL     1      28.010  -0.264  53.418  1.00  0.00     0.011 A 
HETATM   21 BR1  UNL     1      29.833  -0.848  53.511  1.00  0.00    -0.051 Br
HETATM   22  C13 UNL     1      27.134  -0.721  52.459  1.00  0.00     0.019 A 
HETATM   23  C14 UNL     1      25.821  -0.298  52.396  1.00  0.00     0.009 A 
ENDBRANCH   3  17
BRANCH   5  24
HETATM   24  O1  UNL     1      22.071  -1.870  55.408  1.00  0.00    -0.340 OA
HETATM   25  H14 UNL     1      23.024  -2.213  55.343  1.00  0.00     0.220 HD
ENDBRANCH   5  24
TORSDOF 3
ENDMDL
MODEL 5
REMARK VINA RESULT:      -8.6      3.268      6.407
REMARK  3 active torsions:
REMARK  status: ('A' for Active; 'I' for Inactive)
REMARK    1  A    between atoms: C5_5  and  C6_6 
REMARK    2  A    between atoms: C8_8  and  C9_9 
REMARK    3  A    between atoms: C15_17  and  O1_18 
ROOT
HETATM    1  C6  UNL     1      24.921   3.431  50.025  1.00  0.00     0.118 C 
HETATM    2  C7  UNL     1      25.365   3.336  51.448  1.00  0.00     0.050 C 
HETATM    3  C8  UNL     1      24.825   2.180  52.231  1.00  0.00     0.088 C 
HETATM    4  S1  UNL     1      23.287   1.448  51.633  1.00  0.00    -0.066 SA
HETATM    5  C15 UNL     1      21.912   0.862  51.032  1.00  0.00     0.202 A 
HETATM    6  N1  UNL     1      21.615   1.737  49.969  1.00  0.00    -0.195 NA
HETATM    7  C16 UNL     1      22.683   2.425  50.218  1.00  0.00     0.164 A 
HETATM    8  N2  UNL     1      23.496   3.540  49.857  1.00  0.00    -0.361 N 
HETATM    9  H15 UNL     1      23.095   4.445  49.469  1.00  0.00     0.162 HD
ENDROOT
BRANCH   1  10
HETATM   10  C5  UNL     1      25.685   4.501  49.373  1.00  0.00    -0.035 A 
HETATM   11  C4  UNL     1      27.007   4.172  49.179  1.00  0.00     0.010 A 
HETATM   12  C3  UNL     1      27.890   5.070  48.569  1.00  0.00     0.007 A 
HETATM   13  C2  UNL     1      27.461   6.302  48.152  1.00  0.00    -0.062 A 
HETATM   14  C1  UNL     1      28.409   7.229  47.513  1.00  0.00     0.048 C 
HETATM   15  C18 UNL     1      26.129   6.630  48.349  1.00  0.00     0.007 A 
HETATM   16  C17 UNL     1      25.249   5.757  48.946  1.00  0.00     0.010 A 
ENDBRANCH   1  10
BRANCH   3  17
HETATM   17  C9  UNL     1      25.879   1.153  52.512  1.00  0.00    -0.044 A 
HETATM   18  C10 UNL     1      27.168   1.576  52.801  1.00  0.00     0.009 A 
HETATM   19  C11 UNL     1      28.231   0.720  53.079  1.00  0.00     0.019 A 
HETATM   20  C12 UNL     1      27.985  -0.636  53.066  1.00  0.00     0.011 A 
HETATM   21 BR1  UNL     1      29.431  -1.835  53.445  1.00  0.00    -0.051 Br
HETATM   22  C13 UNL     1      26.711  -1.078  52.783  1.00  0.00     0.019 A 
HETATM   23  C14 UNL     1      25.672  -0.211  52.510  1.00  0.00     0.009 A 
ENDBRANCH   3  17
BRANCH   5  24
HETATM   24  O1  UNL     1      21.554  -0.255  51.776  1.00  0.00    -0.340 OA
HETATM   25  H14 UNL     1      21.549  -1.131  51.264  1.00  0.00     0.220 HD
ENDBRANCH   5  24
TORSDOF 3
ENDMDL
MODEL 6
REMARK VINA RESULT:      -8.3      4.646      6.585
REMARK  3 active torsions:
REMARK  status: ('A' for Active; 'I' for Inactive)
REMARK    1  A    between atoms: C5_5  and  C6_6 
REMARK    2  A    between atoms: C8_8  and  C9_9 
REMARK    3  A    between atoms: C15_17  and  O1_18 
ROOT
HETATM    1  C6  UNL     1      24.608   1.684  51.607  1.00  0.00     0.118 C 
HETATM    2  C7  UNL     1      23.670   1.996  52.725  1.00  0.00     0.050 C 
HETATM    3  C8  UNL     1      22.262   2.319  52.333  1.00  0.00     0.088 C 
HETATM    4  S1  UNL     1      22.010   2.912  50.648  1.00  0.00    -0.066 SA
HETATM    5  C15 UNL     1      21.879   3.439  49.131  1.00  0.00     0.202 A 
HETATM    6  N1  UNL     1      23.214   3.509  48.688  1.00  0.00    -0.195 NA
HETATM    7  C16 UNL     1      23.632   3.090  49.838  1.00  0.00     0.164 A 
HETATM    8  N2  UNL     1      24.756   2.745  50.646  1.00  0.00    -0.361 N 
HETATM    9  H15 UNL     1      25.696   3.237  50.568  1.00  0.00     0.162 HD
ENDROOT
BRANCH   1  10
HETATM   10  C5  UNL     1      25.875   1.217  52.183  1.00  0.00    -0.035 A 
HETATM   11  C4  UNL     1      25.875  -0.133  52.451  1.00  0.00     0.010 A 
HETATM   12  C3  UNL     1      26.999  -0.757  53.002  1.00  0.00     0.007 A 
HETATM   13  C2  UNL     1      28.129  -0.040  53.292  1.00  0.00    -0.062 A 
HETATM   14  C1  UNL     1      29.298  -0.720  53.873  1.00  0.00     0.048 C 
HETATM   15  C18 UNL     1      28.125   1.319  53.021  1.00  0.00     0.007 A 
HETATM   16  C17 UNL     1      27.029   1.947  52.478  1.00  0.00     0.010 A 
ENDBRANCH   1  10
BRANCH   3  17
HETATM   17  C9  UNL     1      21.312   1.222  52.705  1.00  0.00    -0.044 A 
HETATM   18  C10 UNL     1      20.131   1.086  51.992  1.00  0.00     0.009 A 
HETATM   19  C11 UNL     1      19.171   0.109  52.241  1.00  0.00     0.019 A 
HETATM   20  C12 UNL     1      19.411  -0.782  53.266  1.00  0.00     0.011 A 
HETATM   21 BR1  UNL     1      18.105  -2.136  53.630  1.00  0.00    -0.051 Br
HETATM   22  C13 UNL     1      20.579  -0.666  53.987  1.00  0.00     0.019 A 
HETATM   23  C14 UNL     1      21.517   0.311  53.722  1.00  0.00     0.009 A 
ENDBRANCH   3  17
BRANCH   5  24
HETATM   24  O1  UNL     1      20.530   3.619  48.848  1.00  0.00    -0.340 OA
HETATM   25  H14 UNL     1      20.065   4.333  49.400  1.00  0.00     0.220 HD
ENDBRANCH   5  24
TORSDOF 3
ENDMDL
MODEL 7
REMARK VINA RESULT:      -8.3      4.990      8.185
REMARK  3 active torsions:
REMARK  status: ('A' for Active; 'I' for Inactive)
REMARK    1  A    between atoms: C5_5  and  C6_6 
REMARK    2  A    between atoms: C8_8  and  C9_9 
REMARK    3  A    between atoms: C15_17  and  O1_18 
ROOT
HETATM    1  C6  UNL     1      24.004   3.259  52.305  1.00  0.00     0.118 C 
HETATM    2  C7  UNL     1      23.507   2.122  51.474  1.00  0.00     0.050 C 
HETATM    3  C8  UNL     1      23.627   0.760  52.082  1.00  0.00     0.088 C 
HETATM    4  S1  UNL     1      24.871   0.559  53.374  1.00  0.00    -0.066 SA
HETATM    5  C15 UNL     1      26.008   0.470  54.512  1.00  0.00     0.202 A 
HETATM    6  N1  UNL     1      26.601   1.747  54.489  1.00  0.00    -0.195 NA
HETATM    7  C16 UNL     1      25.799   2.117  53.543  1.00  0.00     0.164 A 
HETATM    8  N2  UNL     1      25.395   3.165  52.663  1.00  0.00    -0.361 N 
HETATM    9  H15 UNL     1      26.075   3.878  52.263  1.00  0.00     0.162 HD
ENDROOT
BRANCH   1  10
HETATM   10  C5  UNL     1      23.641   4.514  51.636  1.00  0.00    -0.035 A 
HETATM   11  C4  UNL     1      22.332   4.877  51.855  1.00  0.00     0.010 A 
HETATM   12  C3  UNL     1      21.807   6.048  51.297  1.00  0.00     0.007 A 
HETATM   13  C2  UNL     1      22.583   6.862  50.515  1.00  0.00    -0.062 A 
HETATM   14  C1  UNL     1      22.007   8.087  49.938  1.00  0.00     0.048 C 
HETATM   15  C18 UNL     1      23.901   6.492  50.296  1.00  0.00     0.007 A 
HETATM   16  C17 UNL     1      24.431   5.345  50.839  1.00  0.00     0.010 A 
ENDBRANCH   1  10
BRANCH   3  17
HETATM   17  C9  UNL     1      22.292   0.205  52.478  1.00  0.00    -0.044 A 
HETATM   18  C10 UNL     1      21.186   0.490  51.692  1.00  0.00     0.009 A 
HETATM   19  C11 UNL     1      19.897   0.034  51.955  1.00  0.00     0.019 A 
HETATM   20  C12 UNL     1      19.709  -0.754  53.070  1.00  0.00     0.011 A 
HETATM   21 BR1  UNL     1      17.944  -1.395  53.454  1.00  0.00    -0.051 Br
HETATM   22  C13 UNL     1      20.794  -1.052  53.864  1.00  0.00     0.019 A 
HETATM   23  C14 UNL     1      22.064  -0.588  53.585  1.00  0.00     0.009 A 
ENDBRANCH   3  17
BRANCH   5  24
HETATM   24  O1  UNL     1      25.968  -0.804  55.067  1.00  0.00    -0.340 OA
HETATM   25  H14 UNL     1      26.189  -1.560  54.428  1.00  0.00     0.220 HD
ENDBRANCH   5  24
TORSDOF 3
ENDMDL
MODEL 8
REMARK VINA RESULT:      -8.2      5.085      7.381
REMARK  3 active torsions:
REMARK  status: ('A' for Active; 'I' for Inactive)
REMARK    1  A    between atoms: C5_5  and  C6_6 
REMARK    2  A    between atoms: C8_8  and  C9_9 
REMARK    3  A    between atoms: C15_17  and  O1_18 
ROOT
HETATM    1  C6  UNL     1      23.426   1.656  51.601  1.00  0.00     0.118 C 
HETATM    2  C7  UNL     1      22.331   1.165  50.713  1.00  0.00     0.050 C 
HETATM    3  C8  UNL     1      21.230   0.404  51.384  1.00  0.00     0.088 C 
HETATM    4  S1  UNL     1      21.630  -0.368  52.965  1.00  0.00    -0.066 SA
HETATM    5  C15 UNL     1      22.078  -1.027  54.365  1.00  0.00     0.202 A 
HETATM    6  N1  UNL     1      23.451  -0.728  54.449  1.00  0.00    -0.195 NA
HETATM    7  C16 UNL     1      23.401  -0.113  53.312  1.00  0.00     0.164 A 
HETATM    8  N2  UNL     1      24.117   0.616  52.316  1.00  0.00    -0.361 N 
HETATM    9  H15 UNL     1      25.137   0.425  52.082  1.00  0.00     0.162 HD
ENDROOT
BRANCH   1  10
HETATM   10  C5  UNL     1      24.306   2.526  50.811  1.00  0.00    -0.035 A 
HETATM   11  C4  UNL     1      25.637   2.358  51.116  1.00  0.00     0.010 A 
HETATM   12  C3  UNL     1      26.625   3.102  50.463  1.00  0.00     0.007 A 
HETATM   13  C2  UNL     1      26.292   4.020  49.503  1.00  0.00    -0.062 A 
HETATM   14  C1  UNL     1      27.350   4.792  48.830  1.00  0.00     0.048 C 
HETATM   15  C18 UNL     1      24.950   4.187  49.199  1.00  0.00     0.007 A 
HETATM   16  C17 UNL     1      23.968   3.462  49.831  1.00  0.00     0.010 A 
ENDBRANCH   1  10
BRANCH   3  17
HETATM   17  C9  UNL     1      19.955   1.191  51.434  1.00  0.00    -0.044 A 
HETATM   18  C10 UNL     1      20.022   2.571  51.545  1.00  0.00     0.009 A 
HETATM   19  C11 UNL     1      18.912   3.409  51.601  1.00  0.00     0.019 A 
HETATM   20  C12 UNL     1      17.664   2.826  51.543  1.00  0.00     0.011 A 
HETATM   21 BR1  UNL     1      16.118   3.958  51.618  1.00  0.00    -0.051 Br
HETATM   22  C13 UNL     1      17.574   1.457  51.432  1.00  0.00     0.019 A 
HETATM   23  C14 UNL     1      18.689   0.645  51.378  1.00  0.00     0.009 A 
ENDBRANCH   3  17
BRANCH   5  24
HETATM   24  O1  UNL     1      20.963  -1.626  54.940  1.00  0.00    -0.340 OA
HETATM   25  H14 UNL     1      20.426  -2.222  54.319  1.00  0.00     0.220 HD
ENDBRANCH   5  24
TORSDOF 3
ENDMDL
MODEL 9
REMARK VINA RESULT:      -8.2      1.880      2.219
REMARK  3 active torsions:
REMARK  status: ('A' for Active; 'I' for Inactive)
REMARK    1  A    between atoms: C5_5  and  C6_6 
REMARK    2  A    between atoms: C8_8  and  C9_9 
REMARK    3  A    between atoms: C15_17  and  O1_18 
ROOT
HETATM    1  C6  UNL     1      24.850   1.649  52.231  1.00  0.00     0.118 C 
HETATM    2  C7  UNL     1      25.037   2.202  50.857  1.00  0.00     0.050 C 
HETATM    3  C8  UNL     1      24.005   3.183  50.395  1.00  0.00     0.088 C 
HETATM    4  S1  UNL     1      22.396   3.105  51.211  1.00  0.00    -0.066 SA
HETATM    5  C15 UNL     1      20.992   2.960  51.987  1.00  0.00     0.202 A 
HETATM    6  N1  UNL     1      21.188   1.841  52.820  1.00  0.00    -0.195 NA
HETATM    7  C16 UNL     1      22.394   1.701  52.371  1.00  0.00     0.164 A 
HETATM    8  N2  UNL     1      23.607   0.951  52.423  1.00  0.00    -0.361 N 
HETATM    9  H15 UNL     1      23.630  -0.098  52.597  1.00  0.00     0.162 HD
ENDROOT
BRANCH   1  10
HETATM   10  C5  UNL     1      26.039   0.860  52.577  1.00  0.00    -0.035 A 
HETATM   11  C4  UNL     1      27.110   1.642  52.945  1.00  0.00     0.010 A 
HETATM   12  C3  UNL     1      28.331   1.063  53.310  1.00  0.00     0.007 A 
HETATM   13  C2  UNL     1      28.491  -0.297  53.309  1.00  0.00    -0.062 A 
HETATM   14  C1  UNL     1      29.786  -0.881  53.696  1.00  0.00     0.048 C 
HETATM   15  C18 UNL     1      27.410  -1.080  52.937  1.00  0.00     0.007 A 
HETATM   16  C17 UNL     1      26.204  -0.527  52.577  1.00  0.00     0.010 A 
ENDBRANCH   1  10
BRANCH   3  17
HETATM   17  C9  UNL     1      24.548   4.578  50.328  1.00  0.00    -0.044 A 
HETATM   18  C10 UNL     1      25.619   4.841  49.487  1.00  0.00     0.009 A 
HETATM   19  C11 UNL     1      26.210   6.093  49.338  1.00  0.00     0.019 A 
HETATM   20  C12 UNL     1      25.696   7.138  50.076  1.00  0.00     0.011 A 
HETATM   21 BR1  UNL     1      26.493   8.872  49.889  1.00  0.00    -0.051 Br
HETATM   22  C13 UNL     1      24.632   6.899  50.917  1.00  0.00     0.019 A 
HETATM   23  C14 UNL     1      24.061   5.650  51.049  1.00  0.00     0.009 A 
ENDBRANCH   3  17
BRANCH   5  24
HETATM   24  O1  UNL     1      20.146   3.971  51.547  1.00  0.00    -0.340 OA
HETATM   25  H14 UNL     1      19.155   3.757  51.601  1.00  0.00     0.220 HD
ENDBRANCH   5  24
TORSDOF 3
ENDMDL
