MODEL 1
REMARK VINA RESULT:      -8.5      0.000      0.000
REMARK  7 active torsions:
REMARK  status: ('A' for Active; 'I' for Inactive)
REMARK    1  A    between atoms: N2_5  and  C4_6 
REMARK    2  A    between atoms: C4_6  and  C5_7 
REMARK    3  A    between atoms: C5_7  and  O1_8 
REMARK    4  A    between atoms: C7_12  and  N5_13 
REMARK    5  A    between atoms: N5_13  and  C8_14 
REMARK    6  A    between atoms: C11_17  and  S1_18 
REMARK    7  A    between atoms: S1_18  and  N6_19 
ROOT
HETATM    1  C1  UNL     1      22.783  -0.035  53.924  1.00  0.00     0.035 C 
HETATM    2  C2  UNL     1      24.042  -0.114  53.063  1.00  0.00     0.120 C 
HETATM    3  N1  UNL     1      24.968  -0.948  53.761  1.00  0.00    -0.277 NA
HETATM    4  C3  UNL     1      26.196  -0.848  54.067  1.00  0.00     0.222 C 
HETATM    5  N2  UNL     1      27.165   0.193  53.812  1.00  0.00    -0.260 N 
HETATM    6  N3  UNL     1      26.960   1.035  52.684  1.00  0.00    -0.155 NA
HETATM    7  C6  UNL     1      25.809   1.491  52.239  1.00  0.00     0.158 A 
HETATM    8  N4  UNL     1      26.128   2.294  51.084  1.00  0.00    -0.212 NA
HETATM    9  C7  UNL     1      25.171   2.852  50.408  1.00  0.00     0.150 A 
HETATM   10  C14 UNL     1      23.770   2.710  50.786  1.00  0.00     0.087 A 
HETATM   11  C15 UNL     1      22.772   3.348  49.982  1.00  0.00     0.103 C 
HETATM   12  N7  UNL     1      21.950   3.856  49.342  1.00  0.00    -0.191 NA
HETATM   13  C16 UNL     1      23.510   1.983  51.860  1.00  0.00     0.014 A 
HETATM   14  C17 UNL     1      24.462   1.269  52.765  1.00  0.00     0.108 A 
ENDROOT
BRANCH   9  15
HETATM   15  N5  UNL     1      25.578   3.619  49.285  1.00  0.00    -0.340 N 
HETATM   16  H11 UNL     1      25.541   3.101  48.365  1.00  0.00     0.167 HD
BRANCH  15  17
HETATM   17  C8  UNL     1      25.997   4.970  49.329  1.00  0.00     0.033 A 
HETATM   18  C9  UNL     1      25.430   5.981  50.063  1.00  0.00     0.031 A 
HETATM   19  C10 UNL     1      25.892   7.277  50.063  1.00  0.00     0.027 A 
HETATM   20  C11 UNL     1      27.001   7.629  49.284  1.00  0.00     0.079 A 
HETATM   21  C12 UNL     1      27.590   6.626  48.534  1.00  0.00     0.027 A 
HETATM   22  C13 UNL     1      27.092   5.340  48.566  1.00  0.00     0.031 A 
BRANCH  20  23
HETATM   23  S1  UNL     1      27.492   9.304  49.361  1.00  0.00     0.256 S 
HETATM   24  O2  UNL     1      26.496  10.140  50.070  1.00  0.00    -0.201 OA
HETATM   25  O3  UNL     1      27.590   9.791  47.922  1.00  0.00    -0.201 OA
BRANCH  23  26
HETATM   26  N6  UNL     1      29.036   9.498  50.068  1.00  0.00    -0.324 N 
HETATM   27  H14 UNL     1      29.060   9.398  51.088  1.00  0.00     0.169 HD
HETATM   28  H15 UNL     1      29.790   9.054  49.532  1.00  0.00     0.169 HD
ENDBRANCH  23  26
ENDBRANCH  20  23
ENDBRANCH  15  17
ENDBRANCH   9  15
BRANCH   5  29
HETATM   29  C4  UNL     1      28.279   0.280  54.749  1.00  0.00     0.178 C 
BRANCH  29  30
HETATM   30  C5  UNL     1      29.413   1.105  54.155  1.00  0.00     0.186 C 
BRANCH  30  31
HETATM   31  O1  UNL     1      29.267   2.454  54.408  1.00  0.00    -0.399 OA
HETATM   32  H10 UNL     1      28.683   2.646  55.184  1.00  0.00     0.209 HD
ENDBRANCH  30  31
ENDBRANCH  29  30
ENDBRANCH   5  29
TORSDOF 7
ENDMDL
MODEL 2
REMARK VINA RESULT:      -8.1      1.344      1.539
REMARK  7 active torsions:
REMARK  status: ('A' for Active; 'I' for Inactive)
REMARK    1  A    between atoms: N2_5  and  C4_6 
REMARK    2  A    between atoms: C4_6  and  C5_7 
REMARK    3  A    between atoms: C5_7  and  O1_8 
REMARK    4  A    between atoms: C7_12  and  N5_13 
REMARK    5  A    between atoms: N5_13  and  C8_14 
REMARK    6  A    between atoms: C11_17  and  S1_18 
REMARK    7  A    between atoms: S1_18  and  N6_19 
ROOT
HETATM    1  C1  UNL     1      23.141   1.293  53.158  1.00  0.00     0.035 C 
HETATM    2  C2  UNL     1      24.343   1.060  52.247  1.00  0.00     0.120 C 
HETATM    3  N1  UNL     1      25.129   0.034  52.856  1.00  0.00    -0.277 NA
HETATM    4  C3  UNL     1      26.365  -0.098  53.122  1.00  0.00     0.222 C 
HETATM    5  N2  UNL     1      27.491   0.777  52.897  1.00  0.00    -0.260 N 
HETATM    6  N3  UNL     1      27.405   1.717  51.834  1.00  0.00    -0.155 NA
HETATM    7  C6  UNL     1      26.339   2.393  51.462  1.00  0.00     0.158 A 
HETATM    8  N4  UNL     1      26.761   3.207  50.348  1.00  0.00    -0.212 NA
HETATM    9  C7  UNL     1      25.898   3.965  49.745  1.00  0.00     0.150 A 
HETATM   10  C14 UNL     1      24.504   4.039  50.166  1.00  0.00     0.087 A 
HETATM   11  C15 UNL     1      23.611   4.892  49.443  1.00  0.00     0.103 C 
HETATM   12  N7  UNL     1      22.872   5.575  48.868  1.00  0.00    -0.191 NA
HETATM   13  C16 UNL     1      24.151   3.294  51.201  1.00  0.00     0.014 A 
HETATM   14  C17 UNL     1      24.988   2.368  52.023  1.00  0.00     0.108 A 
ENDROOT
BRANCH   9  15
HETATM   15  N5  UNL     1      26.402   4.728  48.660  1.00  0.00    -0.340 N 
HETATM   16  H11 UNL     1      26.290   4.269  47.714  1.00  0.00     0.167 HD
BRANCH  15  17
HETATM   17  C8  UNL     1      27.004   6.004  48.769  1.00  0.00     0.033 A 
HETATM   18  C9  UNL     1      26.471   7.113  49.375  1.00  0.00     0.031 A 
HETATM   19  C10 UNL     1      27.114   8.327  49.449  1.00  0.00     0.027 A 
HETATM   20  C11 UNL     1      28.387   8.485  48.887  1.00  0.00     0.079 A 
HETATM   21  C12 UNL     1      28.946   7.380  48.269  1.00  0.00     0.027 A 
HETATM   22  C13 UNL     1      28.263   6.182  48.219  1.00  0.00     0.031 A 
BRANCH  20  23
HETATM   23  S1  UNL     1      29.101  10.072  49.039  1.00  0.00     0.256 S 
HETATM   24  O2  UNL     1      28.098  11.096  49.412  1.00  0.00    -0.201 OA
HETATM   25  O3  UNL     1      29.661  10.426  47.668  1.00  0.00    -0.201 OA
BRANCH  23  26
HETATM   26  N6  UNL     1      30.407  10.096  50.142  1.00  0.00    -0.324 N 
HETATM   27  H14 UNL     1      31.035   9.288  50.085  1.00  0.00     0.169 HD
HETATM   28  H15 UNL     1      30.836  11.022  50.247  1.00  0.00     0.169 HD
ENDBRANCH  23  26
ENDBRANCH  20  23
ENDBRANCH  15  17
ENDBRANCH   9  15
BRANCH   5  29
HETATM   29  C4  UNL     1      28.627   0.608  53.795  1.00  0.00     0.178 C 
BRANCH  29  30
HETATM   30  C5  UNL     1      29.046   1.948  54.384  1.00  0.00     0.186 C 
BRANCH  30  31
HETATM   31  O1  UNL     1      29.468   2.838  53.416  1.00  0.00    -0.399 OA
HETATM   32  H10 UNL     1      30.349   3.243  53.616  1.00  0.00     0.209 HD
ENDBRANCH  30  31
ENDBRANCH  29  30
ENDBRANCH   5  29
TORSDOF 7
ENDMDL
MODEL 3
REMARK VINA RESULT:      -8.1      3.519      7.904
REMARK  7 active torsions:
REMARK  status: ('A' for Active; 'I' for Inactive)
REMARK    1  A    between atoms: N2_5  and  C4_6 
REMARK    2  A    between atoms: C4_6  and  C5_7 
REMARK    3  A    between atoms: C5_7  and  O1_8 
REMARK    4  A    between atoms: C7_12  and  N5_13 
REMARK    5  A    between atoms: N5_13  and  C8_14 
REMARK    6  A    between atoms: C11_17  and  S1_18 
REMARK    7  A    between atoms: S1_18  and  N6_19 
ROOT
HETATM    1  C1  UNL     1      28.001   9.271  48.056  1.00  0.00     0.035 C 
HETATM    2  C2  UNL     1      28.546   8.024  48.749  1.00  0.00     0.120 C 
HETATM    3  N1  UNL     1      29.967   8.063  48.609  1.00  0.00    -0.277 NA
HETATM    4  C3  UNL     1      30.846   7.222  48.243  1.00  0.00     0.222 C 
HETATM    5  N2  UNL     1      30.736   5.847  47.813  1.00  0.00    -0.260 N 
HETATM    6  N3  UNL     1      29.619   5.093  48.267  1.00  0.00    -0.155 NA
HETATM    7  C6  UNL     1      28.387   5.525  48.426  1.00  0.00     0.158 A 
HETATM    8  N4  UNL     1      27.633   4.390  48.901  1.00  0.00    -0.212 NA
HETATM    9  C7  UNL     1      26.374   4.530  49.182  1.00  0.00     0.150 A 
HETATM   10  C14 UNL     1      25.680   5.802  49.018  1.00  0.00     0.087 A 
HETATM   11  C15 UNL     1      24.292   5.876  49.360  1.00  0.00     0.103 C 
HETATM   12  N7  UNL     1      23.168   5.958  49.633  1.00  0.00    -0.191 NA
HETATM   13  C16 UNL     1      26.393   6.819  48.564  1.00  0.00     0.014 A 
HETATM   14  C17 UNL     1      27.838   6.860  48.184  1.00  0.00     0.108 A 
ENDROOT
BRANCH   9  15
HETATM   15  N5  UNL     1      25.715   3.362  49.646  1.00  0.00    -0.340 N 
HETATM   16  H11 UNL     1      24.876   3.076  49.070  1.00  0.00     0.167 HD
BRANCH  15  17
HETATM   17  C8  UNL     1      26.106   2.595  50.769  1.00  0.00     0.033 A 
HETATM   18  C9  UNL     1      27.233   2.774  51.531  1.00  0.00     0.031 A 
HETATM   19  C10 UNL     1      27.552   1.991  52.617  1.00  0.00     0.027 A 
HETATM   20  C11 UNL     1      26.709   0.941  53.001  1.00  0.00     0.079 A 
HETATM   21  C12 UNL     1      25.566   0.741  52.247  1.00  0.00     0.027 A 
HETATM   22  C13 UNL     1      25.287   1.551  51.166  1.00  0.00     0.031 A 
BRANCH  20  23
HETATM   23  S1  UNL     1      27.222   0.015  54.390  1.00  0.00     0.256 S 
HETATM   24  O2  UNL     1      28.160   0.776  55.247  1.00  0.00    -0.201 OA
HETATM   25  O3  UNL     1      27.951  -1.207  53.849  1.00  0.00    -0.201 OA
BRANCH  23  26
HETATM   26  N6  UNL     1      25.903  -0.551  55.319  1.00  0.00    -0.324 N 
HETATM   27  H14 UNL     1      25.316  -1.251  54.854  1.00  0.00     0.169 HD
HETATM   28  H15 UNL     1      26.136  -0.711  56.305  1.00  0.00     0.169 HD
ENDBRANCH  23  26
ENDBRANCH  20  23
ENDBRANCH  15  17
ENDBRANCH   9  15
BRANCH   5  29
HETATM   29  C4  UNL     1      31.798   5.357  46.944  1.00  0.00     0.178 C 
BRANCH  29  30
HETATM   30  C5  UNL     1      32.216   3.951  47.351  1.00  0.00     0.186 C 
BRANCH  30  31
HETATM   31  O1  UNL     1      32.509   3.860  48.697  1.00  0.00    -0.399 OA
HETATM   32  H10 UNL     1      31.886   3.272  49.194  1.00  0.00     0.209 HD
ENDBRANCH  30  31
ENDBRANCH  29  30
ENDBRANCH   5  29
TORSDOF 7
ENDMDL
MODEL 4
REMARK VINA RESULT:      -8.0      3.875      5.406
REMARK  7 active torsions:
REMARK  status: ('A' for Active; 'I' for Inactive)
REMARK    1  A    between atoms: N2_5  and  C4_6 
REMARK    2  A    between atoms: C4_6  and  C5_7 
REMARK    3  A    between atoms: C5_7  and  O1_8 
REMARK    4  A    between atoms: C7_12  and  N5_13 
REMARK    5  A    between atoms: N5_13  and  C8_14 
REMARK    6  A    between atoms: C11_17  and  S1_18 
REMARK    7  A    between atoms: S1_18  and  N6_19 
ROOT
HETATM    1  C1  UNL     1      27.591  -0.832  53.013  1.00  0.00     0.035 C 
HETATM    2  C2  UNL     1      26.464   0.038  53.566  1.00  0.00     0.120 C 
HETATM    3  N1  UNL     1      25.853  -0.702  54.625  1.00  0.00    -0.277 NA
HETATM    4  C3  UNL     1      24.654  -0.987  54.932  1.00  0.00     0.222 C 
HETATM    5  N2  UNL     1      23.398  -0.653  54.300  1.00  0.00    -0.260 N 
HETATM    6  N3  UNL     1      23.344   0.525  53.505  1.00  0.00    -0.155 NA
HETATM    7  C6  UNL     1      24.285   0.984  52.709  1.00  0.00     0.158 A 
HETATM    8  N4  UNL     1      23.752   2.193  52.130  1.00  0.00    -0.212 NA
HETATM    9  C7  UNL     1      24.484   2.893  51.319  1.00  0.00     0.150 A 
HETATM   10  C14 UNL     1      25.837   2.489  50.953  1.00  0.00     0.087 A 
HETATM   11  C15 UNL     1      26.584   3.320  50.059  1.00  0.00     0.103 C 
HETATM   12  N7  UNL     1      27.207   3.981  49.339  1.00  0.00    -0.191 NA
HETATM   13  C16 UNL     1      26.292   1.367  51.486  1.00  0.00     0.014 A 
HETATM   14  C17 UNL     1      25.609   0.429  52.428  1.00  0.00     0.108 A 
ENDROOT
BRANCH   9  15
HETATM   15  N5  UNL     1      23.878   4.067  50.801  1.00  0.00    -0.340 N 
HETATM   16  H11 UNL     1      23.883   4.890  51.464  1.00  0.00     0.167 HD
BRANCH  15  17
HETATM   17  C8  UNL     1      23.309   4.191  49.512  1.00  0.00     0.033 A 
HETATM   18  C9  UNL     1      22.782   3.181  48.747  1.00  0.00     0.031 A 
HETATM   19  C10 UNL     1      22.239   3.373  47.498  1.00  0.00     0.027 A 
HETATM   20  C11 UNL     1      22.201   4.655  46.935  1.00  0.00     0.079 A 
HETATM   21  C12 UNL     1      22.727   5.690  47.687  1.00  0.00     0.027 A 
HETATM   22  C13 UNL     1      23.262   5.451  48.936  1.00  0.00     0.031 A 
BRANCH  20  23
HETATM   23  S1  UNL     1      21.493   4.773  45.343  1.00  0.00     0.256 S 
HETATM   24  O2  UNL     1      21.671   3.526  44.564  1.00  0.00    -0.201 OA
HETATM   25  O3  UNL     1      22.230   5.896  44.625  1.00  0.00    -0.201 OA
BRANCH  23  26
HETATM   26  N6  UNL     1      19.840   5.204  45.396  1.00  0.00    -0.324 N 
HETATM   27  H14 UNL     1      19.630   6.046  45.942  1.00  0.00     0.169 HD
HETATM   28  H15 UNL     1      19.360   5.094  44.495  1.00  0.00     0.169 HD
ENDBRANCH  23  26
ENDBRANCH  20  23
ENDBRANCH  15  17
ENDBRANCH   9  15
BRANCH   5  29
HETATM   29  C4  UNL     1      22.291  -1.568  54.545  1.00  0.00     0.178 C 
BRANCH  29  30
HETATM   30  C5  UNL     1      20.968  -0.921  54.159  1.00  0.00     0.186 C 
BRANCH  30  31
HETATM   31  O1  UNL     1      20.681   0.188  54.930  1.00  0.00    -0.399 OA
HETATM   32  H10 UNL     1      20.185  -0.030  55.758  1.00  0.00     0.209 HD
ENDBRANCH  30  31
ENDBRANCH  29  30
ENDBRANCH   5  29
TORSDOF 7
ENDMDL
MODEL 5
REMARK VINA RESULT:      -7.9      3.289      7.379
REMARK  7 active torsions:
REMARK  status: ('A' for Active; 'I' for Inactive)
REMARK    1  A    between atoms: N2_5  and  C4_6 
REMARK    2  A    between atoms: C4_6  and  C5_7 
REMARK    3  A    between atoms: C5_7  and  O1_8 
REMARK    4  A    between atoms: C7_12  and  N5_13 
REMARK    5  A    between atoms: N5_13  and  C8_14 
REMARK    6  A    between atoms: C11_17  and  S1_18 
REMARK    7  A    between atoms: S1_18  and  N6_19 
ROOT
HETATM    1  C1  UNL     1      21.754   8.110  50.022  1.00  0.00     0.035 C 
HETATM    2  C2  UNL     1      22.958   7.492  50.727  1.00  0.00     0.120 C 
HETATM    3  N1  UNL     1      24.098   8.269  50.354  1.00  0.00    -0.277 NA
HETATM    4  C3  UNL     1      25.262   7.989  49.927  1.00  0.00     0.222 C 
HETATM    5  N2  UNL     1      25.901   6.724  49.649  1.00  0.00    -0.260 N 
HETATM    6  N3  UNL     1      25.439   5.575  50.347  1.00  0.00    -0.155 NA
HETATM    7  C6  UNL     1      24.194   5.291  50.664  1.00  0.00     0.158 A 
HETATM    8  N4  UNL     1      24.246   4.027  51.358  1.00  0.00    -0.212 NA
HETATM    9  C7  UNL     1      23.153   3.509  51.827  1.00  0.00     0.150 A 
HETATM   10  C14 UNL     1      21.856   4.155  51.663  1.00  0.00     0.087 A 
HETATM   11  C15 UNL     1      20.698   3.523  52.219  1.00  0.00     0.103 C 
HETATM   12  N7  UNL     1      19.749   3.029  52.664  1.00  0.00    -0.191 NA
HETATM   13  C16 UNL     1      21.838   5.304  51.008  1.00  0.00     0.014 A 
HETATM   14  C17 UNL     1      22.976   6.055  50.395  1.00  0.00     0.108 A 
ENDROOT
BRANCH   9  15
HETATM   15  N5  UNL     1      23.301   2.266  52.497  1.00  0.00    -0.340 N 
HETATM   16  H11 UNL     1      22.390   1.779  52.720  1.00  0.00     0.167 HD
BRANCH  15  17
HETATM   17  C8  UNL     1      24.535   1.672  52.852  1.00  0.00     0.033 A 
HETATM   18  C9  UNL     1      25.315   1.988  53.935  1.00  0.00     0.031 A 
HETATM   19  C10 UNL     1      26.507   1.365  54.225  1.00  0.00     0.027 A 
HETATM   20  C11 UNL     1      26.990   0.346  53.395  1.00  0.00     0.079 A 
HETATM   21  C12 UNL     1      26.221   0.010  52.295  1.00  0.00     0.027 A 
HETATM   22  C13 UNL     1      25.031   0.662  52.044  1.00  0.00     0.031 A 
BRANCH  20  23
HETATM   23  S1  UNL     1      28.516  -0.365  53.862  1.00  0.00     0.256 S 
HETATM   24  O2  UNL     1      28.698  -0.367  55.331  1.00  0.00    -0.201 OA
HETATM   25  O3  UNL     1      29.604   0.503  53.244  1.00  0.00    -0.201 OA
BRANCH  23  26
HETATM   26  N6  UNL     1      28.715  -1.946  53.240  1.00  0.00    -0.324 N 
HETATM   27  H14 UNL     1      29.576  -2.419  53.531  1.00  0.00     0.169 HD
HETATM   28  H15 UNL     1      27.849  -2.497  53.242  1.00  0.00     0.169 HD
ENDBRANCH  23  26
ENDBRANCH  20  23
ENDBRANCH  15  17
ENDBRANCH   9  15
BRANCH   5  29
HETATM   29  C4  UNL     1      26.977   6.749  48.666  1.00  0.00     0.178 C 
BRANCH  29  30
HETATM   30  C5  UNL     1      27.639   5.382  48.564  1.00  0.00     0.186 C 
BRANCH  30  31
HETATM   31  O1  UNL     1      28.961   5.409  48.962  1.00  0.00    -0.399 OA
HETATM   32  H10 UNL     1      29.434   6.236  48.693  1.00  0.00     0.209 HD
ENDBRANCH  30  31
ENDBRANCH  29  30
ENDBRANCH   5  29
TORSDOF 7
ENDMDL
MODEL 6
REMARK VINA RESULT:      -7.7      3.228      7.582
REMARK  7 active torsions:
REMARK  status: ('A' for Active; 'I' for Inactive)
REMARK    1  A    between atoms: N2_5  and  C4_6 
REMARK    2  A    between atoms: C4_6  and  C5_7 
REMARK    3  A    between atoms: C5_7  and  O1_8 
REMARK    4  A    between atoms: C7_12  and  N5_13 
REMARK    5  A    between atoms: N5_13  and  C8_14 
REMARK    6  A    between atoms: C11_17  and  S1_18 
REMARK    7  A    between atoms: S1_18  and  N6_19 
ROOT
HETATM    1  C1  UNL     1      21.853   4.523  46.148  1.00  0.00     0.035 C 
HETATM    2  C2  UNL     1      22.295   5.258  47.411  1.00  0.00     0.120 C 
HETATM    3  N1  UNL     1      22.765   6.543  46.998  1.00  0.00    -0.277 NA
HETATM    4  C3  UNL     1      23.806   7.228  47.244  1.00  0.00     0.222 C 
HETATM    5  N2  UNL     1      24.957   6.957  48.073  1.00  0.00    -0.260 N 
HETATM    6  N3  UNL     1      24.798   6.058  49.163  1.00  0.00    -0.155 NA
HETATM    7  C6  UNL     1      24.069   4.963  49.183  1.00  0.00     0.158 A 
HETATM    8  N4  UNL     1      24.237   4.406  50.503  1.00  0.00    -0.212 NA
HETATM    9  C7  UNL     1      23.597   3.325  50.829  1.00  0.00     0.150 A 
HETATM   10  C14 UNL     1      22.717   2.634  49.894  1.00  0.00     0.087 A 
HETATM   11  C15 UNL     1      22.039   1.453  50.333  1.00  0.00     0.103 C 
HETATM   12  N7  UNL     1      21.479   0.496  50.670  1.00  0.00    -0.191 NA
HETATM   13  C16 UNL     1      22.597   3.159  48.686  1.00  0.00     0.014 A 
HETATM   14  C17 UNL     1      23.245   4.382  48.123  1.00  0.00     0.108 A 
ENDROOT
BRANCH   9  15
HETATM   15  N5  UNL     1      23.821   2.852  52.148  1.00  0.00    -0.340 N 
HETATM   16  H11 UNL     1      23.048   3.080  52.831  1.00  0.00     0.167 HD
BRANCH  15  17
HETATM   17  C8  UNL     1      24.957   2.122  52.572  1.00  0.00     0.033 A 
HETATM   18  C9  UNL     1      25.630   2.267  53.759  1.00  0.00     0.031 A 
HETATM   19  C10 UNL     1      26.729   1.518  54.110  1.00  0.00     0.027 A 
HETATM   20  C11 UNL     1      27.225   0.542  53.237  1.00  0.00     0.079 A 
HETATM   21  C12 UNL     1      26.563   0.377  52.033  1.00  0.00     0.027 A 
HETATM   22  C13 UNL     1      25.464   1.151  51.723  1.00  0.00     0.031 A 
BRANCH  20  23
HETATM   23  S1  UNL     1      28.627  -0.341  53.790  1.00  0.00     0.256 S 
HETATM   24  O2  UNL     1      28.611  -1.749  53.330  1.00  0.00    -0.201 OA
HETATM   25  O3  UNL     1      28.569  -0.333  55.312  1.00  0.00    -0.201 OA
BRANCH  23  26
HETATM   26  N6  UNL     1      30.092   0.412  53.334  1.00  0.00    -0.324 N 
HETATM   27  H14 UNL     1      30.891   0.208  53.943  1.00  0.00     0.169 HD
HETATM   28  H15 UNL     1      30.257   0.404  52.321  1.00  0.00     0.169 HD
ENDBRANCH  23  26
ENDBRANCH  20  23
ENDBRANCH  15  17
ENDBRANCH   9  15
BRANCH   5  29
HETATM   29  C4  UNL     1      26.190   7.644  47.708  1.00  0.00     0.178 C 
BRANCH  29  30
HETATM   30  C5  UNL     1      27.069   7.851  48.933  1.00  0.00     0.186 C 
BRANCH  30  31
HETATM   31  O1  UNL     1      27.758   6.707  49.283  1.00  0.00    -0.399 OA
HETATM   32  H10 UNL     1      28.395   6.848  50.028  1.00  0.00     0.209 HD
ENDBRANCH  30  31
ENDBRANCH  29  30
ENDBRANCH   5  29
TORSDOF 7
ENDMDL
MODEL 7
REMARK VINA RESULT:      -7.5      1.763      2.009
REMARK  7 active torsions:
REMARK  status: ('A' for Active; 'I' for Inactive)
REMARK    1  A    between atoms: N2_5  and  C4_6 
REMARK    2  A    between atoms: C4_6  and  C5_7 
REMARK    3  A    between atoms: C5_7  and  O1_8 
REMARK    4  A    between atoms: C7_12  and  N5_13 
REMARK    5  A    between atoms: N5_13  and  C8_14 
REMARK    6  A    between atoms: C11_17  and  S1_18 
REMARK    7  A    between atoms: S1_18  and  N6_19 
ROOT
HETATM    1  C1  UNL     1      22.853  -0.518  54.171  1.00  0.00     0.035 C 
HETATM    2  C2  UNL     1      23.950  -0.151  53.175  1.00  0.00     0.120 C 
HETATM    3  N1  UNL     1      25.119  -0.874  53.564  1.00  0.00    -0.277 NA
HETATM    4  C3  UNL     1      26.338  -0.562  53.742  1.00  0.00     0.222 C 
HETATM    5  N2  UNL     1      27.033   0.698  53.610  1.00  0.00    -0.260 N 
HETATM    6  N3  UNL     1      26.492   1.669  52.723  1.00  0.00    -0.155 NA
HETATM    7  C6  UNL     1      25.219   1.933  52.523  1.00  0.00     0.158 A 
HETATM    8  N4  UNL     1      25.188   2.989  51.540  1.00  0.00    -0.212 NA
HETATM    9  C7  UNL     1      24.047   3.436  51.116  1.00  0.00     0.150 A 
HETATM   10  C14 UNL     1      22.778   2.917  51.612  1.00  0.00     0.087 A 
HETATM   11  C15 UNL     1      21.561   3.456  51.086  1.00  0.00     0.103 C 
HETATM   12  N7  UNL     1      20.565   3.879  50.671  1.00  0.00    -0.191 NA
HETATM   13  C16 UNL     1      22.838   1.962  52.525  1.00  0.00     0.014 A 
HETATM   14  C17 UNL     1      24.041   1.321  53.139  1.00  0.00     0.108 A 
ENDROOT
BRANCH   9  15
HETATM   15  N5  UNL     1      24.114   4.472  50.148  1.00  0.00    -0.340 N 
HETATM   16  H11 UNL     1      23.174   4.828  49.823  1.00  0.00     0.167 HD
BRANCH  15  17
HETATM   17  C8  UNL     1      25.308   5.030  49.632  1.00  0.00     0.033 A 
HETATM   18  C9  UNL     1      25.581   6.363  49.457  1.00  0.00     0.031 A 
HETATM   19  C10 UNL     1      26.769   6.839  48.952  1.00  0.00     0.027 A 
HETATM   20  C11 UNL     1      27.784   5.949  48.581  1.00  0.00     0.079 A 
HETATM   21  C12 UNL     1      27.532   4.599  48.748  1.00  0.00     0.027 A 
HETATM   22  C13 UNL     1      26.325   4.167  49.258  1.00  0.00     0.031 A 
BRANCH  20  23
HETATM   23  S1  UNL     1      29.244   6.671  47.948  1.00  0.00     0.256 S 
HETATM   24  O2  UNL     1      29.004   7.367  46.663  1.00  0.00    -0.201 OA
HETATM   25  O3  UNL     1      30.218   5.527  47.700  1.00  0.00    -0.201 OA
BRANCH  23  26
HETATM   26  N6  UNL     1      29.983   7.733  49.066  1.00  0.00    -0.324 N 
HETATM   27  H14 UNL     1      30.280   8.632  48.675  1.00  0.00     0.169 HD
HETATM   28  H15 UNL     1      29.524   7.744  49.983  1.00  0.00     0.169 HD
ENDBRANCH  23  26
ENDBRANCH  20  23
ENDBRANCH  15  17
ENDBRANCH   9  15
BRANCH   5  29
HETATM   29  C4  UNL     1      28.242   0.853  54.409  1.00  0.00     0.178 C 
BRANCH  29  30
HETATM   30  C5  UNL     1      29.468   0.431  53.610  1.00  0.00     0.186 C 
BRANCH  30  31
HETATM   31  O1  UNL     1      29.886  -0.846  53.927  1.00  0.00    -0.399 OA
HETATM   32  H10 UNL     1      29.138  -1.484  54.045  1.00  0.00     0.209 HD
ENDBRANCH  30  31
ENDBRANCH  29  30
ENDBRANCH   5  29
TORSDOF 7
ENDMDL
MODEL 8
REMARK VINA RESULT:      -7.4      4.362      6.053
REMARK  7 active torsions:
REMARK  status: ('A' for Active; 'I' for Inactive)
REMARK    1  A    between atoms: N2_5  and  C4_6 
REMARK    2  A    between atoms: C4_6  and  C5_7 
REMARK    3  A    between atoms: C5_7  and  O1_8 
REMARK    4  A    between atoms: C7_12  and  N5_13 
REMARK    5  A    between atoms: N5_13  and  C8_14 
REMARK    6  A    between atoms: C11_17  and  S1_18 
REMARK    7  A    between atoms: S1_18  and  N6_19 
ROOT
HETATM    1  C1  UNL     1      27.426  -0.991  52.927  1.00  0.00     0.035 C 
HETATM    2  C2  UNL     1      26.359  -0.088  53.542  1.00  0.00     0.120 C 
HETATM    3  N1  UNL     1      25.742  -0.834  54.592  1.00  0.00    -0.277 NA
HETATM    4  C3  UNL     1      24.539  -1.071  54.925  1.00  0.00     0.222 C 
HETATM    5  N2  UNL     1      23.285  -0.654  54.342  1.00  0.00    -0.260 N 
HETATM    6  N3  UNL     1      23.266   0.552  53.590  1.00  0.00    -0.155 NA
HETATM    7  C6  UNL     1      24.207   0.994  52.783  1.00  0.00     0.158 A 
HETATM    8  N4  UNL     1      23.718   2.247  52.262  1.00  0.00    -0.212 NA
HETATM    9  C7  UNL     1      24.462   2.939  51.454  1.00  0.00     0.150 A 
HETATM   10  C14 UNL     1      25.782   2.483  51.035  1.00  0.00     0.087 A 
HETATM   11  C15 UNL     1      26.545   3.309  50.149  1.00  0.00     0.103 C 
HETATM   12  N7  UNL     1      27.179   3.964  49.434  1.00  0.00    -0.191 NA
HETATM   13  C16 UNL     1      26.195   1.322  51.515  1.00  0.00     0.014 A 
HETATM   14  C17 UNL     1      25.494   0.385  52.445  1.00  0.00     0.108 A 
ENDROOT
BRANCH   9  15
HETATM   15  N5  UNL     1      23.901   4.159  50.995  1.00  0.00    -0.340 N 
HETATM   16  H11 UNL     1      24.560   4.984  51.031  1.00  0.00     0.167 HD
BRANCH  15  17
HETATM   17  C8  UNL     1      22.582   4.319  50.509  1.00  0.00     0.033 A 
HETATM   18  C9  UNL     1      21.563   5.011  51.112  1.00  0.00     0.031 A 
HETATM   19  C10 UNL     1      20.300   5.130  50.580  1.00  0.00     0.027 A 
HETATM   20  C11 UNL     1      19.992   4.527  49.354  1.00  0.00     0.079 A 
HETATM   21  C12 UNL     1      21.004   3.822  48.726  1.00  0.00     0.027 A 
HETATM   22  C13 UNL     1      22.256   3.729  49.298  1.00  0.00     0.031 A 
BRANCH  20  23
HETATM   23  S1  UNL     1      18.356   4.743  48.782  1.00  0.00     0.256 S 
HETATM   24  O2  UNL     1      17.952   3.671  47.843  1.00  0.00    -0.201 OA
HETATM   25  O3  UNL     1      18.332   6.069  48.035  1.00  0.00    -0.201 OA
BRANCH  23  26
HETATM   26  N6  UNL     1      17.228   4.862  50.062  1.00  0.00    -0.324 N 
HETATM   27  H14 UNL     1      17.508   4.392  50.929  1.00  0.00     0.169 HD
HETATM   28  H15 UNL     1      16.801   5.791  50.144  1.00  0.00     0.169 HD
ENDBRANCH  23  26
ENDBRANCH  20  23
ENDBRANCH  15  17
ENDBRANCH   9  15
BRANCH   5  29
HETATM   29  C4  UNL     1      22.140  -1.523  54.588  1.00  0.00     0.178 C 
BRANCH  29  30
HETATM   30  C5  UNL     1      20.850  -0.843  54.150  1.00  0.00     0.186 C 
BRANCH  30  31
HETATM   31  O1  UNL     1      20.531   0.239  54.946  1.00  0.00    -0.399 OA
HETATM   32  H10 UNL     1      19.812   0.046  55.598  1.00  0.00     0.209 HD
ENDBRANCH  30  31
ENDBRANCH  29  30
ENDBRANCH   5  29
TORSDOF 7
ENDMDL
MODEL 9
REMARK VINA RESULT:      -7.2      3.664      4.374
REMARK  7 active torsions:
REMARK  status: ('A' for Active; 'I' for Inactive)
REMARK    1  A    between atoms: N2_5  and  C4_6 
REMARK    2  A    between atoms: C4_6  and  C5_7 
REMARK    3  A    between atoms: C5_7  and  O1_8 
REMARK    4  A    between atoms: C7_12  and  N5_13 
REMARK    5  A    between atoms: N5_13  and  C8_14 
REMARK    6  A    between atoms: C11_17  and  S1_18 
REMARK    7  A    between atoms: S1_18  and  N6_19 
ROOT
HETATM    1  C1  UNL     1      24.235  -1.176  55.299  1.00  0.00     0.035 C 
HETATM    2  C2  UNL     1      24.818  -0.838  53.929  1.00  0.00     0.120 C 
HETATM    3  N1  UNL     1      26.239  -0.822  54.079  1.00  0.00    -0.277 NA
HETATM    4  C3  UNL     1      27.158  -0.013  53.740  1.00  0.00     0.222 C 
HETATM    5  N2  UNL     1      27.112   1.251  53.041  1.00  0.00    -0.260 N 
HETATM    6  N3  UNL     1      26.019   1.489  52.163  1.00  0.00    -0.155 NA
HETATM    7  C6  UNL     1      24.767   1.127  52.344  1.00  0.00     0.158 A 
HETATM    8  N4  UNL     1      24.053   1.597  51.182  1.00  0.00    -0.212 NA
HETATM    9  C7  UNL     1      22.784   1.349  51.067  1.00  0.00     0.150 A 
HETATM   10  C14 UNL     1      22.041   0.618  52.087  1.00  0.00     0.087 A 
HETATM   11  C15 UNL     1      20.646   0.377  51.880  1.00  0.00     0.103 C 
HETATM   12  N7  UNL     1      19.515   0.169  51.730  1.00  0.00    -0.191 NA
HETATM   13  C16 UNL     1      22.720   0.215  53.148  1.00  0.00     0.014 A 
HETATM   14  C17 UNL     1      24.169   0.402  53.465  1.00  0.00     0.108 A 
ENDROOT
BRANCH   9  15
HETATM   15  N5  UNL     1      22.165   1.848  49.890  1.00  0.00    -0.340 N 
HETATM   16  H11 UNL     1      21.936   1.109  49.171  1.00  0.00     0.167 HD
BRANCH  15  17
HETATM   17  C8  UNL     1      21.847   3.205  49.649  1.00  0.00     0.033 A 
HETATM   18  C9  UNL     1      22.318   3.988  48.625  1.00  0.00     0.031 A 
HETATM   19  C10 UNL     1      21.962   5.305  48.446  1.00  0.00     0.027 A 
HETATM   20  C11 UNL     1      21.073   5.922  49.334  1.00  0.00     0.079 A 
HETATM   21  C12 UNL     1      20.584   5.153  50.375  1.00  0.00     0.027 A 
HETATM   22  C13 UNL     1      20.969   3.835  50.516  1.00  0.00     0.031 A 
BRANCH  20  23
HETATM   23  S1  UNL     1      20.701   7.597  49.007  1.00  0.00     0.256 S 
HETATM   24  O2  UNL     1      20.939   7.950  47.588  1.00  0.00    -0.201 OA
HETATM   25  O3  UNL     1      21.642   8.425  49.871  1.00  0.00    -0.201 OA
BRANCH  23  26
HETATM   26  N6  UNL     1      19.104   8.010  49.457  1.00  0.00    -0.324 N 
HETATM   27  H14 UNL     1      18.610   8.613  48.792  1.00  0.00     0.169 HD
HETATM   28  H15 UNL     1      18.580   7.228  49.865  1.00  0.00     0.169 HD
ENDBRANCH  23  26
ENDBRANCH  20  23
ENDBRANCH  15  17
ENDBRANCH   9  15
BRANCH   5  29
HETATM   29  C4  UNL     1      28.208   2.174  53.307  1.00  0.00     0.178 C 
BRANCH  29  30
HETATM   30  C5  UNL     1      29.220   1.543  54.254  1.00  0.00     0.186 C 
BRANCH  30  31
HETATM   31  O1  UNL     1      29.915   2.487  54.984  1.00  0.00    -0.399 OA
HETATM   32  H10 UNL     1      30.235   3.247  54.435  1.00  0.00     0.209 HD
ENDBRANCH  30  31
ENDBRANCH  29  30
ENDBRANCH   5  29
TORSDOF 7
ENDMDL
