MODEL 1
REMARK VINA RESULT:     -10.1      0.000      0.000
REMARK  4 active torsions:
REMARK  status: ('A' for Active; 'I' for Inactive)
REMARK    1  A    between atoms: N1_1  and  C1_2 
REMARK    2  A    between atoms: C6_7  and  C7_8 
REMARK    3  A    between atoms: C7_8  and  C8_9 
REMARK    4  A    between atoms: C8_9  and  C9_10 
ROOT
HETATM    1  C9  UNL     1      25.664   3.006  50.776  1.00  0.00     0.011 A 
HETATM    2  C10 UNL     1      24.808   3.124  51.779  1.00  0.00     0.015 A 
HETATM    3  C11 UNL     1      25.321   2.419  52.960  1.00  0.00     0.115 A 
HETATM    4  C12 UNL     1      26.650   1.875  52.505  1.00  0.00     0.112 A 
HETATM    5  N2  UNL     1      27.590   1.185  53.071  1.00  0.00    -0.260 NA
HETATM    6  C13 UNL     1      27.670   0.674  54.427  1.00  0.00     0.261 C 
HETATM    7  N3  UNL     1      27.157  -0.651  54.553  1.00  0.00    -0.220 NA
HETATM    8  N4  UNL     1      25.849  -0.837  54.130  1.00  0.00    -0.319 N 
HETATM    9  C14 UNL     1      24.712  -0.050  53.791  1.00  0.00     0.051 A 
HETATM   10  C15 UNL     1      23.661  -0.924  54.040  1.00  0.00     0.050 A 
HETATM   11  C16 UNL     1      22.348  -0.551  53.840  1.00  0.00     0.013 A 
HETATM   12 BR1  UNL     1      20.923  -1.737  54.177  1.00  0.00    -0.051 Br
HETATM   13  C17 UNL     1      22.116   0.725  53.381  1.00  0.00     0.020 A 
HETATM   14  C18 UNL     1      23.185   1.559  53.147  1.00  0.00     0.012 A 
HETATM   15  C19 UNL     1      24.520   1.233  53.332  1.00  0.00    -0.015 A 
HETATM   16  N5  UNL     1      26.793   2.271  51.134  1.00  0.00    -0.347 N 
HETATM   17  H13 UNL     1      27.807  -1.394  54.223  1.00  0.00     0.148 HD
HETATM   18  H14 UNL     1      25.670  -1.881  54.043  1.00  0.00     0.181 HD
HETATM   19  H18 UNL     1      27.631   2.015  50.569  1.00  0.00     0.167 HD
ENDROOT
BRANCH   1  20
HETATM   20  C8  UNL     1      25.690   3.501  49.346  1.00  0.00     0.084 C 
BRANCH  20  21
HETATM   21  C7  UNL     1      26.991   4.123  49.108  1.00  0.00    -0.014 C 
BRANCH  21  22
HETATM   22  C6  UNL     1      27.406   5.209  48.727  1.00  0.00    -0.034 A 
HETATM   23  C1  UNL     1      26.624   6.924  48.630  1.00  0.00     0.314 A 
HETATM   24  C2  UNL     1      27.829   6.915  48.209  1.00  0.00    -0.131 A 
HETATM   25  C3  UNL     1      28.707   6.885  47.907  1.00  0.00     0.045 A 
HETATM   26  C4  UNL     1      29.827   6.821  47.526  1.00  0.00     0.024 A 
HETATM   27  C5  UNL     1      29.004   5.522  48.096  1.00  0.00     0.045 A 
BRANCH  23  28
HETATM   28  N1  UNL     1      26.418   6.847  50.086  1.00  0.00     0.097 N 
HETATM   29  H1  UNL     1      26.851   6.005  50.483  1.00  0.00     0.314 HD
HETATM   30  H2  UNL     1      25.400   6.825  50.296  1.00  0.00     0.314 HD
ENDBRANCH  23  28
ENDBRANCH  21  22
ENDBRANCH  20  21
ENDBRANCH   1  20
TORSDOF 4
ENDMDL
MODEL 2
REMARK VINA RESULT:      -9.6      3.031      4.343
REMARK  4 active torsions:
REMARK  status: ('A' for Active; 'I' for Inactive)
REMARK    1  A    between atoms: N1_1  and  C1_2 
REMARK    2  A    between atoms: C6_7  and  C7_8 
REMARK    3  A    between atoms: C7_8  and  C8_9 
REMARK    4  A    between atoms: C8_9  and  C9_10 
ROOT
HETATM    1  C9  UNL     1      22.228   2.269  52.083  1.00  0.00     0.011 A 
HETATM    2  C10 UNL     1      23.094   1.425  51.543  1.00  0.00     0.015 A 
HETATM    3  C11 UNL     1      23.127   0.178  52.317  1.00  0.00     0.115 A 
HETATM    4  C12 UNL     1      22.111   0.403  53.406  1.00  0.00     0.112 A 
HETATM    5  N2  UNL     1      21.662  -0.309  54.391  1.00  0.00    -0.260 NA
HETATM    6  C13 UNL     1      22.023  -1.656  54.793  1.00  0.00     0.261 C 
HETATM    7  N3  UNL     1      23.071  -1.685  55.761  1.00  0.00    -0.220 NA
HETATM    8  N4  UNL     1      24.247  -1.045  55.399  1.00  0.00    -0.319 N 
HETATM    9  C14 UNL     1      24.865  -0.522  54.228  1.00  0.00     0.051 A 
HETATM   10  C15 UNL     1      26.214  -0.583  54.551  1.00  0.00     0.050 A 
HETATM   11  C16 UNL     1      27.188  -0.165  53.669  1.00  0.00     0.013 A 
HETATM   12 BR1  UNL     1      29.019  -0.248  54.108  1.00  0.00    -0.051 Br
HETATM   13  C17 UNL     1      26.771   0.319  52.450  1.00  0.00     0.020 A 
HETATM   14  C18 UNL     1      25.425   0.363  52.169  1.00  0.00     0.012 A 
HETATM   15  C19 UNL     1      24.410  -0.045  53.020  1.00  0.00    -0.015 A 
HETATM   16  N5  UNL     1      21.598   1.728  53.202  1.00  0.00    -0.347 N 
HETATM   17  H13 UNL     1      22.762  -1.466  56.731  1.00  0.00     0.148 HD
HETATM   18  H14 UNL     1      24.843  -0.922  56.270  1.00  0.00     0.181 HD
HETATM   19  H18 UNL     1      20.877   2.143  53.830  1.00  0.00     0.167 HD
ENDROOT
BRANCH   1  20
HETATM   20  C8  UNL     1      21.768   3.670  51.744  1.00  0.00     0.084 C 
BRANCH  20  21
HETATM   21  C7  UNL     1      22.919   4.563  51.869  1.00  0.00    -0.014 C 
BRANCH  21  22
HETATM   22  C6  UNL     1      23.840   4.939  51.156  1.00  0.00    -0.034 A 
HETATM   23  C1  UNL     1      24.365   6.635  50.519  1.00  0.00     0.314 A 
HETATM   24  C2  UNL     1      25.138   5.703  50.114  1.00  0.00    -0.131 A 
HETATM   25  C3  UNL     1      25.687   5.009  49.831  1.00  0.00     0.045 A 
HETATM   26  C4  UNL     1      26.372   4.107  49.484  1.00  0.00     0.024 A 
HETATM   27  C5  UNL     1      25.059   3.910  50.447  1.00  0.00     0.045 A 
BRANCH  23  28
HETATM   28  N1  UNL     1      24.496   7.057  51.923  1.00  0.00     0.097 N 
HETATM   29  H1  UNL     1      23.970   6.439  52.551  1.00  0.00     0.314 HD
HETATM   30  H2  UNL     1      24.132   8.026  52.033  1.00  0.00     0.314 HD
ENDBRANCH  23  28
ENDBRANCH  21  22
ENDBRANCH  20  21
ENDBRANCH   1  20
TORSDOF 4
ENDMDL
MODEL 3
REMARK VINA RESULT:      -9.4      3.092      7.287
REMARK  4 active torsions:
REMARK  status: ('A' for Active; 'I' for Inactive)
REMARK    1  A    between atoms: N1_1  and  C1_2 
REMARK    2  A    between atoms: C6_7  and  C7_8 
REMARK    3  A    between atoms: C7_8  and  C8_9 
REMARK    4  A    between atoms: C8_9  and  C9_10 
ROOT
HETATM    1  C9  UNL     1      22.289   1.885  50.953  1.00  0.00     0.011 A 
HETATM    2  C10 UNL     1      22.795   2.285  52.109  1.00  0.00     0.015 A 
HETATM    3  C11 UNL     1      23.905   3.218  51.874  1.00  0.00     0.115 A 
HETATM    4  C12 UNL     1      23.966   3.333  50.373  1.00  0.00     0.112 A 
HETATM    5  N2  UNL     1      24.703   4.002  49.544  1.00  0.00    -0.260 NA
HETATM    6  C13 UNL     1      25.790   4.924  49.814  1.00  0.00     0.261 C 
HETATM    7  N3  UNL     1      27.067   4.288  49.828  1.00  0.00    -0.220 NA
HETATM    8  N4  UNL     1      27.207   3.232  50.716  1.00  0.00    -0.319 N 
HETATM    9  C14 UNL     1      26.525   2.676  51.835  1.00  0.00     0.051 A 
HETATM   10  C15 UNL     1      27.548   2.029  52.516  1.00  0.00     0.050 A 
HETATM   11  C16 UNL     1      27.314   1.345  53.691  1.00  0.00     0.013 A 
HETATM   12 BR1  UNL     1      28.703   0.467  54.614  1.00  0.00    -0.051 Br
HETATM   13  C17 UNL     1      26.023   1.327  54.167  1.00  0.00     0.020 A 
HETATM   14  C18 UNL     1      25.039   1.981  53.462  1.00  0.00     0.012 A 
HETATM   15  C19 UNL     1      25.222   2.680  52.279  1.00  0.00    -0.015 A 
HETATM   16  N5  UNL     1      22.938   2.470  49.867  1.00  0.00    -0.347 N 
HETATM   17  H13 UNL     1      27.456   4.089  48.884  1.00  0.00     0.148 HD
HETATM   18  H14 UNL     1      28.091   2.697  50.464  1.00  0.00     0.181 HD
HETATM   19  H18 UNL     1      22.767   2.355  48.845  1.00  0.00     0.167 HD
ENDROOT
BRANCH   1  20
HETATM   20  C8  UNL     1      21.164   0.952  50.559  1.00  0.00     0.084 C 
BRANCH  20  21
HETATM   21  C7  UNL     1      21.125  -0.140  51.530  1.00  0.00    -0.014 C 
BRANCH  21  22
HETATM   22  C6  UNL     1      21.304  -0.273  52.733  1.00  0.00    -0.034 A 
HETATM   23  C1  UNL     1      20.263   0.163  54.245  1.00  0.00     0.314 A 
HETATM   24  C2  UNL     1      21.375  -0.379  54.561  1.00  0.00    -0.131 A 
HETATM   25  C3  UNL     1      22.190  -0.775  54.767  1.00  0.00     0.045 A 
HETATM   26  C4  UNL     1      23.234  -1.281  55.004  1.00  0.00     0.024 A 
HETATM   27  C5  UNL     1      22.719  -0.974  53.478  1.00  0.00     0.045 A 
BRANCH  23  28
HETATM   28  N1  UNL     1      19.214  -0.716  53.703  1.00  0.00     0.097 N 
HETATM   29  H1  UNL     1      18.283  -0.440  54.036  1.00  0.00     0.314 HD
HETATM   30  H2  UNL     1      19.393  -1.698  53.999  1.00  0.00     0.314 HD
ENDBRANCH  23  28
ENDBRANCH  21  22
ENDBRANCH  20  21
ENDBRANCH   1  20
TORSDOF 4
ENDMDL
MODEL 4
REMARK VINA RESULT:      -9.4      5.398      7.894
REMARK  4 active torsions:
REMARK  status: ('A' for Active; 'I' for Inactive)
REMARK    1  A    between atoms: N1_1  and  C1_2 
REMARK    2  A    between atoms: C6_7  and  C7_8 
REMARK    3  A    between atoms: C7_8  and  C8_9 
REMARK    4  A    between atoms: C8_9  and  C9_10 
ROOT
HETATM    1  C9  UNL     1      30.743   6.851  48.856  1.00  0.00     0.011 A 
HETATM    2  C10 UNL     1      29.744   6.354  48.144  1.00  0.00     0.015 A 
HETATM    3  C11 UNL     1      28.621   7.300  48.129  1.00  0.00     0.115 A 
HETATM    4  C12 UNL     1      29.125   8.469  48.933  1.00  0.00     0.112 A 
HETATM    5  N2  UNL     1      28.629   9.617  49.274  1.00  0.00    -0.260 NA
HETATM    6  C13 UNL     1      27.331  10.189  48.967  1.00  0.00     0.261 C 
HETATM    7  N3  UNL     1      26.351   9.908  49.965  1.00  0.00    -0.220 NA
HETATM    8  N4  UNL     1      26.142   8.567  50.249  1.00  0.00    -0.319 N 
HETATM    9  C14 UNL     1      26.448   7.294  49.690  1.00  0.00     0.051 A 
HETATM   10  C15 UNL     1      25.436   6.494  50.203  1.00  0.00     0.050 A 
HETATM   11  C16 UNL     1      25.353   5.150  49.899  1.00  0.00     0.013 A 
HETATM   12 BR1  UNL     1      23.979   4.064  50.595  1.00  0.00    -0.051 Br
HETATM   13  C17 UNL     1      26.316   4.630  49.066  1.00  0.00     0.020 A 
HETATM   14  C18 UNL     1      27.302   5.457  48.580  1.00  0.00     0.012 A 
HETATM   15  C19 UNL     1      27.428   6.810  48.854  1.00  0.00    -0.015 A 
HETATM   16  N5  UNL     1      30.448   8.116  49.361  1.00  0.00    -0.347 N 
HETATM   17  H13 UNL     1      26.425  10.505  50.815  1.00  0.00     0.148 HD
HETATM   18  H14 UNL     1      25.590   8.498  51.155  1.00  0.00     0.181 HD
HETATM   19  H18 UNL     1      31.027   8.754  49.948  1.00  0.00     0.167 HD
ENDROOT
BRANCH   1  20
HETATM   20  C8  UNL     1      32.126   6.358  49.224  1.00  0.00     0.084 C 
BRANCH  20  21
HETATM   21  C7  UNL     1      32.713   5.739  48.037  1.00  0.00    -0.014 C 
BRANCH  21  22
HETATM   22  C6  UNL     1      33.159   4.642  47.730  1.00  0.00    -0.034 A 
HETATM   23  C1  UNL     1      34.911   3.947  47.629  1.00  0.00     0.314 A 
HETATM   24  C2  UNL     1      34.027   3.083  47.309  1.00  0.00    -0.131 A 
HETATM   25  C3  UNL     1      33.366   2.472  47.080  1.00  0.00     0.045 A 
HETATM   26  C4  UNL     1      32.506   1.710  46.792  1.00  0.00     0.024 A 
HETATM   27  C5  UNL     1      32.210   3.259  47.245  1.00  0.00     0.045 A 
BRANCH  23  28
HETATM   28  N1  UNL     1      35.056   4.265  49.059  1.00  0.00     0.097 N 
HETATM   29  H1  UNL     1      35.644   5.094  49.202  1.00  0.00     0.314 HD
HETATM   30  H2  UNL     1      35.493   3.461  49.554  1.00  0.00     0.314 HD
ENDBRANCH  23  28
ENDBRANCH  21  22
ENDBRANCH  20  21
ENDBRANCH   1  20
TORSDOF 4
ENDMDL
MODEL 5
REMARK VINA RESULT:      -9.1      3.330      8.149
REMARK  4 active torsions:
REMARK  status: ('A' for Active; 'I' for Inactive)
REMARK    1  A    between atoms: N1_1  and  C1_2 
REMARK    2  A    between atoms: C6_7  and  C7_8 
REMARK    3  A    between atoms: C7_8  and  C8_9 
REMARK    4  A    between atoms: C8_9  and  C9_10 
ROOT
HETATM    1  C9  UNL     1      22.040   1.588  51.068  1.00  0.00     0.011 A 
HETATM    2  C10 UNL     1      22.586   1.844  52.247  1.00  0.00     0.015 A 
HETATM    3  C11 UNL     1      23.607   2.890  52.110  1.00  0.00     0.115 A 
HETATM    4  C12 UNL     1      23.566   3.243  50.646  1.00  0.00     0.112 A 
HETATM    5  N2  UNL     1      24.199   4.092  49.899  1.00  0.00    -0.260 NA
HETATM    6  C13 UNL     1      25.230   5.048  50.260  1.00  0.00     0.261 C 
HETATM    7  N3  UNL     1      26.549   4.525  50.109  1.00  0.00    -0.220 NA
HETATM    8  N4  UNL     1      26.821   3.358  50.807  1.00  0.00    -0.319 N 
HETATM    9  C14 UNL     1      26.252   2.580  51.855  1.00  0.00     0.051 A 
HETATM   10  C15 UNL     1      27.360   1.922  52.371  1.00  0.00     0.050 A 
HETATM   11  C16 UNL     1      27.251   1.046  53.432  1.00  0.00     0.013 A 
HETATM   12 BR1  UNL     1      28.756   0.152  54.132  1.00  0.00    -0.051 Br
HETATM   13  C17 UNL     1      25.997   0.847  53.961  1.00  0.00     0.020 A 
HETATM   14  C18 UNL     1      24.925   1.519  53.420  1.00  0.00     0.012 A 
HETATM   15  C19 UNL     1      24.983   2.407  52.357  1.00  0.00    -0.015 A 
HETATM   16  N5  UNL     1      22.575   2.387  50.059  1.00  0.00    -0.347 N 
HETATM   17  H13 UNL     1      26.892   4.509  49.127  1.00  0.00     0.148 HD
HETATM   18  H14 UNL     1      27.724   2.945  50.430  1.00  0.00     0.181 HD
HETATM   19  H18 UNL     1      22.350   2.420  49.041  1.00  0.00     0.167 HD
ENDROOT
BRANCH   1  20
HETATM   20  C8  UNL     1      20.965   0.639  50.585  1.00  0.00     0.084 C 
BRANCH  20  21
HETATM   21  C7  UNL     1      19.911   0.601  51.598  1.00  0.00    -0.014 C 
BRANCH  21  22
HETATM   22  C6  UNL     1      19.417  -0.235  52.342  1.00  0.00    -0.034 A 
HETATM   23  C1  UNL     1      20.077  -1.177  53.838  1.00  0.00     0.314 A 
HETATM   24  C2  UNL     1      18.870  -1.489  53.561  1.00  0.00    -0.131 A 
HETATM   25  C3  UNL     1      17.992  -1.700  53.341  1.00  0.00     0.045 A 
HETATM   26  C4  UNL     1      16.875  -1.953  53.040  1.00  0.00     0.024 A 
HETATM   27  C5  UNL     1      17.794  -0.867  52.223  1.00  0.00     0.045 A 
BRANCH  23  28
HETATM   28  N1  UNL     1      20.305   0.126  54.483  1.00  0.00     0.097 N 
HETATM   29  H1  UNL     1      19.498   0.411  55.050  1.00  0.00     0.314 HD
HETATM   30  H2  UNL     1      20.472   0.852  53.757  1.00  0.00     0.314 HD
ENDBRANCH  23  28
ENDBRANCH  21  22
ENDBRANCH  20  21
ENDBRANCH   1  20
TORSDOF 4
ENDMDL
MODEL 6
REMARK VINA RESULT:      -9.0      2.842      4.239
REMARK  4 active torsions:
REMARK  status: ('A' for Active; 'I' for Inactive)
REMARK    1  A    between atoms: N1_1  and  C1_2 
REMARK    2  A    between atoms: C6_7  and  C7_8 
REMARK    3  A    between atoms: C7_8  and  C8_9 
REMARK    4  A    between atoms: C8_9  and  C9_10 
ROOT
HETATM    1  C9  UNL     1      27.097   4.889  49.042  1.00  0.00     0.011 A 
HETATM    2  C10 UNL     1      26.661   3.646  49.175  1.00  0.00     0.015 A 
HETATM    3  C11 UNL     1      25.394   3.637  49.917  1.00  0.00     0.115 A 
HETATM    4  C12 UNL     1      25.124   5.094  50.186  1.00  0.00     0.112 A 
HETATM    5  N2  UNL     1      24.173   5.747  50.775  1.00  0.00    -0.260 NA
HETATM    6  C13 UNL     1      22.970   5.246  51.414  1.00  0.00     0.261 C 
HETATM    7  N3  UNL     1      23.141   5.007  52.811  1.00  0.00    -0.220 NA
HETATM    8  N4  UNL     1      24.168   4.142  53.156  1.00  0.00    -0.319 N 
HETATM    9  C14 UNL     1      25.023   3.192  52.529  1.00  0.00     0.051 A 
HETATM   10  C15 UNL     1      25.352   2.348  53.582  1.00  0.00     0.050 A 
HETATM   11  C16 UNL     1      26.182   1.261  53.405  1.00  0.00     0.013 A 
HETATM   12 BR1  UNL     1      26.628   0.117  54.835  1.00  0.00    -0.051 Br
HETATM   13  C17 UNL     1      26.675   1.041  52.139  1.00  0.00     0.020 A 
HETATM   14  C18 UNL     1      26.325   1.900  51.124  1.00  0.00     0.012 A 
HETATM   15  C19 UNL     1      25.496   3.004  51.250  1.00  0.00    -0.015 A 
HETATM   16  N5  UNL     1      26.230   5.813  49.621  1.00  0.00    -0.347 N 
HETATM   17  H13 UNL     1      23.109   5.866  53.398  1.00  0.00     0.148 HD
HETATM   18  H14 UNL     1      24.351   4.237  54.198  1.00  0.00     0.181 HD
HETATM   19  H18 UNL     1      26.298   6.852  49.675  1.00  0.00     0.167 HD
ENDROOT
BRANCH   1  20
HETATM   20  C8  UNL     1      28.311   5.518  48.393  1.00  0.00     0.084 C 
BRANCH  20  21
HETATM   21  C7  UNL     1      28.143   6.970  48.437  1.00  0.00    -0.014 C 
BRANCH  21  22
HETATM   22  C6  UNL     1      28.857   7.946  48.621  1.00  0.00    -0.034 A 
HETATM   23  C1  UNL     1      28.504   9.709  49.195  1.00  0.00     0.314 A 
HETATM   24  C2  UNL     1      29.743   9.515  48.955  1.00  0.00    -0.131 A 
HETATM   25  C3  UNL     1      30.639   9.350  48.775  1.00  0.00     0.045 A 
HETATM   26  C4  UNL     1      31.776   9.117  48.539  1.00  0.00     0.024 A 
HETATM   27  C5  UNL     1      30.585   8.000  48.382  1.00  0.00     0.045 A 
BRANCH  23  28
HETATM   28  N1  UNL     1      27.959   9.134  50.435  1.00  0.00     0.097 N 
HETATM   29  H1  UNL     1      28.145   8.126  50.495  1.00  0.00     0.314 HD
HETATM   30  H2  UNL     1      26.929   9.281  50.467  1.00  0.00     0.314 HD
ENDBRANCH  23  28
ENDBRANCH  21  22
ENDBRANCH  20  21
ENDBRANCH   1  20
TORSDOF 4
ENDMDL
MODEL 7
REMARK VINA RESULT:      -8.9      1.593      2.262
REMARK  4 active torsions:
REMARK  status: ('A' for Active; 'I' for Inactive)
REMARK    1  A    between atoms: N1_1  and  C1_2 
REMARK    2  A    between atoms: C6_7  and  C7_8 
REMARK    3  A    between atoms: C7_8  and  C8_9 
REMARK    4  A    between atoms: C8_9  and  C9_10 
ROOT
HETATM    1  C9  UNL     1      25.755   3.055  50.759  1.00  0.00     0.011 A 
HETATM    2  C10 UNL     1      24.909   3.177  51.770  1.00  0.00     0.015 A 
HETATM    3  C11 UNL     1      25.421   2.453  52.940  1.00  0.00     0.115 A 
HETATM    4  C12 UNL     1      26.738   1.893  52.470  1.00  0.00     0.112 A 
HETATM    5  N2  UNL     1      27.671   1.183  53.021  1.00  0.00    -0.260 NA
HETATM    6  C13 UNL     1      27.755   0.659  54.372  1.00  0.00     0.261 C 
HETATM    7  N3  UNL     1      27.223  -0.660  54.489  1.00  0.00    -0.220 NA
HETATM    8  N4  UNL     1      25.909  -0.822  54.076  1.00  0.00    -0.319 N 
HETATM    9  C14 UNL     1      24.781  -0.015  53.753  1.00  0.00     0.051 A 
HETATM   10  C15 UNL     1      23.719  -0.875  54.002  1.00  0.00     0.050 A 
HETATM   11  C16 UNL     1      22.411  -0.481  53.816  1.00  0.00     0.013 A 
HETATM   12 BR1  UNL     1      20.971  -1.649  54.154  1.00  0.00    -0.051 Br
HETATM   13  C17 UNL     1      22.194   0.803  53.371  1.00  0.00     0.020 A 
HETATM   14  C18 UNL     1      23.274   1.623  53.136  1.00  0.00     0.012 A 
HETATM   15  C19 UNL     1      24.605   1.275  53.308  1.00  0.00    -0.015 A 
HETATM   16  N5  UNL     1      26.876   2.300  51.100  1.00  0.00    -0.347 N 
HETATM   17  H13 UNL     1      27.859  -1.409  54.147  1.00  0.00     0.148 HD
HETATM   18  H14 UNL     1      25.713  -1.862  53.980  1.00  0.00     0.181 HD
HETATM   19  H18 UNL     1      27.705   2.036  50.527  1.00  0.00     0.167 HD
ENDROOT
BRANCH   1  20
HETATM   20  C8  UNL     1      25.777   3.564  49.333  1.00  0.00     0.084 C 
BRANCH  20  21
HETATM   21  C7  UNL     1      25.955   5.014  49.376  1.00  0.00    -0.014 C 
BRANCH  21  22
HETATM   22  C6  UNL     1      25.233   6.002  49.379  1.00  0.00    -0.034 A 
HETATM   23  C1  UNL     1      24.951   7.385  50.631  1.00  0.00     0.314 A 
HETATM   24  C2  UNL     1      24.236   7.526  49.582  1.00  0.00    -0.131 A 
HETATM   25  C3  UNL     1      23.726   7.608  48.810  1.00  0.00     0.045 A 
HETATM   26  C4  UNL     1      23.087   7.691  47.817  1.00  0.00     0.024 A 
HETATM   27  C5  UNL     1      24.143   6.468  48.097  1.00  0.00     0.045 A 
BRANCH  23  28
HETATM   28  N1  UNL     1      26.384   7.701  50.518  1.00  0.00     0.097 N 
HETATM   29  H1  UNL     1      26.967   6.917  50.833  1.00  0.00     0.314 HD
HETATM   30  H2  UNL     1      26.607   8.533  51.101  1.00  0.00     0.314 HD
ENDBRANCH  23  28
ENDBRANCH  21  22
ENDBRANCH  20  21
ENDBRANCH   1  20
TORSDOF 4
ENDMDL
MODEL 8
REMARK VINA RESULT:      -8.8      3.179      4.303
REMARK  4 active torsions:
REMARK  status: ('A' for Active; 'I' for Inactive)
REMARK    1  A    between atoms: N1_1  and  C1_2 
REMARK    2  A    between atoms: C6_7  and  C7_8 
REMARK    3  A    between atoms: C7_8  and  C8_9 
REMARK    4  A    between atoms: C8_9  and  C9_10 
ROOT
HETATM    1  C9  UNL     1      22.552   2.025  51.031  1.00  0.00     0.011 A 
HETATM    2  C10 UNL     1      21.389   2.449  51.500  1.00  0.00     0.015 A 
HETATM    3  C11 UNL     1      21.061   1.737  52.741  1.00  0.00     0.115 A 
HETATM    4  C12 UNL     1      22.240   0.826  52.956  1.00  0.00     0.112 A 
HETATM    5  N2  UNL     1      22.567  -0.037  53.867  1.00  0.00    -0.260 NA
HETATM    6  C13 UNL     1      21.846  -0.433  55.062  1.00  0.00     0.261 C 
HETATM    7  N3  UNL     1      20.998  -1.561  54.851  1.00  0.00    -0.220 NA
HETATM    8  N4  UNL     1      20.058  -1.431  53.840  1.00  0.00    -0.319 N 
HETATM    9  C14 UNL     1      19.484  -0.405  53.037  1.00  0.00     0.051 A 
HETATM   10  C15 UNL     1      18.251  -0.947  52.699  1.00  0.00     0.050 A 
HETATM   11  C16 UNL     1      17.352  -0.260  51.910  1.00  0.00     0.013 A 
HETATM   12 BR1  UNL     1      15.679  -0.996  51.451  1.00  0.00    -0.051 Br
HETATM   13  C17 UNL     1      17.724   0.989  51.467  1.00  0.00     0.020 A 
HETATM   14  C18 UNL     1      18.955   1.489  51.825  1.00  0.00     0.012 A 
HETATM   15  C19 UNL     1      19.891   0.840  52.614  1.00  0.00    -0.015 A 
HETATM   16  N5  UNL     1      23.124   1.052  51.849  1.00  0.00    -0.347 N 
HETATM   17  H13 UNL     1      21.498  -2.474  54.837  1.00  0.00     0.148 HD
HETATM   18  H14 UNL     1      19.667  -2.394  53.620  1.00  0.00     0.181 HD
HETATM   19  H18 UNL     1      24.024   0.537  51.747  1.00  0.00     0.167 HD
ENDROOT
BRANCH   1  20
HETATM   20  C8  UNL     1      23.393   2.372  49.821  1.00  0.00     0.084 C 
BRANCH  20  21
HETATM   21  C7  UNL     1      24.519   3.186  50.275  1.00  0.00    -0.014 C 
BRANCH  21  22
HETATM   22  C6  UNL     1      25.197   4.102  49.827  1.00  0.00    -0.034 A 
HETATM   23  C1  UNL     1      24.882   5.950  49.613  1.00  0.00     0.314 A 
HETATM   24  C2  UNL     1      26.041   5.603  49.203  1.00  0.00    -0.131 A 
HETATM   25  C3  UNL     1      26.879   5.329  48.912  1.00  0.00     0.045 A 
HETATM   26  C4  UNL     1      27.941   4.954  48.546  1.00  0.00     0.024 A 
HETATM   27  C5  UNL     1      26.816   3.950  49.192  1.00  0.00     0.045 A 
BRANCH  23  28
HETATM   28  N1  UNL     1      24.675   6.024  51.068  1.00  0.00     0.097 N 
HETATM   29  H1  UNL     1      25.348   5.436  51.573  1.00  0.00     0.314 HD
HETATM   30  H2  UNL     1      23.714   5.702  51.303  1.00  0.00     0.314 HD
ENDBRANCH  23  28
ENDBRANCH  21  22
ENDBRANCH  20  21
ENDBRANCH   1  20
TORSDOF 4
ENDMDL
MODEL 9
REMARK VINA RESULT:      -8.7      2.984      6.729
REMARK  4 active torsions:
REMARK  status: ('A' for Active; 'I' for Inactive)
REMARK    1  A    between atoms: N1_1  and  C1_2 
REMARK    2  A    between atoms: C6_7  and  C7_8 
REMARK    3  A    between atoms: C7_8  and  C8_9 
REMARK    4  A    between atoms: C8_9  and  C9_10 
ROOT
HETATM    1  C9  UNL     1      25.571   3.047  50.793  1.00  0.00     0.011 A 
HETATM    2  C10 UNL     1      24.777   2.582  49.841  1.00  0.00     0.015 A 
HETATM    3  C11 UNL     1      23.734   3.568  49.534  1.00  0.00     0.115 A 
HETATM    4  C12 UNL     1      24.050   4.723  50.447  1.00  0.00     0.112 A 
HETATM    5  N2  UNL     1      23.525   5.890  50.650  1.00  0.00    -0.260 NA
HETATM    6  C13 UNL     1      22.376   6.507  50.013  1.00  0.00     0.261 C 
HETATM    7  N3  UNL     1      21.157   6.269  50.717  1.00  0.00    -0.220 NA
HETATM    8  N4  UNL     1      20.832   4.938  50.930  1.00  0.00    -0.319 N 
HETATM    9  C14 UNL     1      21.227   3.651  50.466  1.00  0.00     0.051 A 
HETATM   10  C15 UNL     1      20.087   2.891  50.691  1.00  0.00     0.050 A 
HETATM   11  C16 UNL     1      20.038   1.550  50.371  1.00  0.00     0.013 A 
HETATM   12 BR1  UNL     1      18.490   0.519  50.675  1.00  0.00    -0.051 Br
HETATM   13  C17 UNL     1      21.167   0.990  49.819  1.00  0.00     0.020 A 
HETATM   14  C18 UNL     1      22.276   1.778  49.613  1.00  0.00     0.012 A 
HETATM   15  C19 UNL     1      22.375   3.127  49.917  1.00  0.00    -0.015 A 
HETATM   16  N5  UNL     1      25.200   4.324  51.208  1.00  0.00    -0.347 N 
HETATM   17  H13 UNL     1      21.026   6.867  51.558  1.00  0.00     0.148 HD
HETATM   18  H14 UNL     1      20.058   4.894  51.657  1.00  0.00     0.181 HD
HETATM   19  H18 UNL     1      25.627   4.944  51.929  1.00  0.00     0.167 HD
ENDROOT
BRANCH   1  20
HETATM   20  C8  UNL     1      26.788   2.505  51.510  1.00  0.00     0.084 C 
BRANCH  20  21
HETATM   21  C7  UNL     1      26.329   1.794  52.702  1.00  0.00    -0.014 C 
BRANCH  21  22
HETATM   22  C6  UNL     1      25.505   0.927  52.963  1.00  0.00    -0.034 A 
HETATM   23  C1  UNL     1      25.655  -0.902  53.400  1.00  0.00     0.314 A 
HETATM   24  C2  UNL     1      24.441  -0.506  53.376  1.00  0.00    -0.131 A 
HETATM   25  C3  UNL     1      23.566  -0.196  53.353  1.00  0.00     0.045 A 
HETATM   26  C4  UNL     1      22.459   0.223  53.316  1.00  0.00     0.024 A 
HETATM   27  C5  UNL     1      23.774   1.153  53.009  1.00  0.00     0.045 A 
BRANCH  23  28
HETATM   28  N1  UNL     1      26.473  -0.498  54.555  1.00  0.00     0.097 N 
HETATM   29  H1  UNL     1      27.456  -0.363  54.292  1.00  0.00     0.314 HD
HETATM   30  H2  UNL     1      26.427  -1.232  55.292  1.00  0.00     0.314 HD
ENDBRANCH  23  28
ENDBRANCH  21  22
ENDBRANCH  20  21
ENDBRANCH   1  20
TORSDOF 4
ENDMDL
