MODEL 1
REMARK VINA RESULT:      -8.7      0.000      0.000
REMARK  6 active torsions:
REMARK  status: ('A' for Active; 'I' for Inactive)
REMARK    1  A    between atoms: C2_2  and  N1_3 
REMARK    2  A    between atoms: C6_8  and  N3_9 
REMARK    3  A    between atoms: N3_9  and  C7_10 
REMARK    4  A    between atoms: C11_16  and  O1_17 
REMARK    5  A    between atoms: O1_17  and  C12_18 
REMARK    6  A    between atoms: C12_18  and  C13_19 
ROOT
HETATM    1  C7  UNL     1      23.442   1.402  51.536  1.00  0.00     0.144 A 
HETATM    2  N4  UNL     1      22.364   1.730  50.826  1.00  0.00    -0.223 NA
HETATM    3  C8  UNL     1      21.138   1.269  51.059  1.00  0.00     0.236 A 
HETATM    4  N5  UNL     1      20.899   0.411  52.064  1.00  0.00    -0.241 NA
HETATM    5  C9  UNL     1      21.965   0.039  52.825  1.00  0.00     0.071 A 
HETATM    6  C10 UNL     1      23.207   0.520  52.569  1.00  0.00     0.068 A 
HETATM    7  C11 UNL     1      24.059  -0.003  53.459  1.00  0.00     0.066 A 
HETATM    8  C16 UNL     1      23.295  -0.895  54.358  1.00  0.00     0.095 A 
HETATM    9  C17 UNL     1      21.893  -0.793  53.842  1.00  0.00     0.012 A 
ENDROOT
BRANCH   1  10
HETATM   10  N3  UNL     1      24.764   1.860  51.331  1.00  0.00    -0.340 N 
HETATM   11  H8  UNL     1      25.574   1.274  51.616  1.00  0.00     0.167 HD
BRANCH  10  12
HETATM   12  C6  UNL     1      25.181   3.084  50.755  1.00  0.00     0.034 A 
HETATM   13  C5  UNL     1      26.296   3.219  49.963  1.00  0.00     0.044 A 
HETATM   14  C4  UNL     1      26.734   4.392  49.388  1.00  0.00     0.014 A 
HETATM   15  C3  UNL     1      27.782   4.785  48.583  1.00  0.00     0.152 A 
HETATM   16  C20 UNL     1      26.018   5.548  49.605  1.00  0.00     0.064 A 
HETATM   17  N2  UNL     1      27.661   6.103  48.354  1.00  0.00    -0.184 NA
HETATM   18  N1  UNL     1      26.592   6.572  48.972  1.00  0.00    -0.270 N 
HETATM   19  C19 UNL     1      24.891   5.469  50.390  1.00  0.00     0.034 A 
HETATM   20  C18 UNL     1      24.515   4.263  50.931  1.00  0.00     0.032 A 
BRANCH  18  21
HETATM   21  C2  UNL     1      26.112   7.933  48.978  1.00  0.00     0.147 C 
HETATM   22  C1  UNL     1      26.762   8.738  50.078  1.00  0.00     0.028 C 
ENDBRANCH  18  21
ENDBRANCH  10  12
ENDBRANCH   1  10
BRANCH   7  23
HETATM   23  O1  UNL     1      25.414   0.108  53.697  1.00  0.00    -0.350 OA
BRANCH  23  24
HETATM   24  C12 UNL     1      26.035   0.171  54.944  1.00  0.00     0.239 C 
BRANCH  24  25
HETATM   25  C13 UNL     1      27.541   0.050  54.891  1.00  0.00     0.380 C 
HETATM   26  N6  UNL     1      27.938  -0.881  53.864  1.00  0.00     0.116 N 
HETATM   27  C14 UNL     1      29.366  -0.594  53.747  1.00  0.00     0.299 C 
HETATM   28  H13 UNL     1      27.519  -0.509  52.963  1.00  0.00     0.319 HD
HETATM   29  C15 UNL     1      29.414   0.884  54.047  1.00  0.00     0.201 C 
HETATM   30  O2  UNL     1      28.181   1.237  54.594  1.00  0.00    -0.354 OA
ENDBRANCH  24  25
ENDBRANCH  23  24
ENDBRANCH   7  23
TORSDOF 6
ENDMDL
MODEL 2
REMARK VINA RESULT:      -8.6      2.838      5.633
REMARK  6 active torsions:
REMARK  status: ('A' for Active; 'I' for Inactive)
REMARK    1  A    between atoms: C2_2  and  N1_3 
REMARK    2  A    between atoms: C6_8  and  N3_9 
REMARK    3  A    between atoms: N3_9  and  C7_10 
REMARK    4  A    between atoms: C11_16  and  O1_17 
REMARK    5  A    between atoms: O1_17  and  C12_18 
REMARK    6  A    between atoms: C12_18  and  C13_19 
ROOT
HETATM    1  C7  UNL     1      26.964   1.911  53.767  1.00  0.00     0.144 A 
HETATM    2  N4  UNL     1      28.085   2.567  54.060  1.00  0.00    -0.223 NA
HETATM    3  C8  UNL     1      29.300   2.024  54.057  1.00  0.00     0.236 A 
HETATM    4  N5  UNL     1      29.480   0.730  53.747  1.00  0.00    -0.241 NA
HETATM    5  C9  UNL     1      28.368   0.008  53.439  1.00  0.00     0.071 A 
HETATM    6  C10 UNL     1      27.139   0.582  53.448  1.00  0.00     0.068 A 
HETATM    7  C11 UNL     1      26.233  -0.345  53.111  1.00  0.00     0.066 A 
HETATM    8  C16 UNL     1      26.946  -1.618  52.866  1.00  0.00     0.095 A 
HETATM    9  C17 UNL     1      28.380  -1.267  53.115  1.00  0.00     0.012 A 
ENDROOT
BRANCH   1  10
HETATM   10  N3  UNL     1      25.651   2.438  53.755  1.00  0.00    -0.340 N 
HETATM   11  H8  UNL     1      25.138   2.589  54.647  1.00  0.00     0.167 HD
BRANCH  10  12
HETATM   12  C6  UNL     1      24.876   2.817  52.635  1.00  0.00     0.034 A 
HETATM   13  C5  UNL     1      23.578   3.263  52.715  1.00  0.00     0.044 A 
HETATM   14  C4  UNL     1      22.791   3.638  51.648  1.00  0.00     0.014 A 
HETATM   15  C3  UNL     1      21.507   4.103  51.462  1.00  0.00     0.152 A 
HETATM   16  C20 UNL     1      23.318   3.574  50.377  1.00  0.00     0.064 A 
HETATM   17  N2  UNL     1      21.318   4.294  50.146  1.00  0.00    -0.184 NA
HETATM   18  N1  UNL     1      22.414   3.974  49.482  1.00  0.00    -0.270 N 
HETATM   19  C19 UNL     1      24.615   3.136  50.240  1.00  0.00     0.034 A 
HETATM   20  C18 UNL     1      25.339   2.778  51.351  1.00  0.00     0.032 A 
BRANCH  18  21
HETATM   21  C2  UNL     1      22.622   4.037  48.055  1.00  0.00     0.147 C 
HETATM   22  C1  UNL     1      22.235   2.739  47.388  1.00  0.00     0.028 C 
ENDBRANCH  18  21
ENDBRANCH  10  12
ENDBRANCH   1  10
BRANCH   7  23
HETATM   23  O1  UNL     1      24.862  -0.360  52.954  1.00  0.00    -0.350 OA
BRANCH  23  24
HETATM   24  C12 UNL     1      23.915  -0.594  53.951  1.00  0.00     0.239 C 
BRANCH  24  25
HETATM   25  C13 UNL     1      22.489  -0.632  53.452  1.00  0.00     0.380 C 
HETATM   26  N6  UNL     1      21.603  -0.012  54.404  1.00  0.00     0.116 N 
HETATM   27  C14 UNL     1      20.390   0.157  53.608  1.00  0.00     0.299 C 
HETATM   28  H13 UNL     1      21.970   0.974  54.539  1.00  0.00     0.319 HD
HETATM   29  C15 UNL     1      20.952   0.398  52.228  1.00  0.00     0.201 C 
HETATM   30  O2  UNL     1      22.301   0.047  52.263  1.00  0.00    -0.354 OA
ENDBRANCH  24  25
ENDBRANCH  23  24
ENDBRANCH   7  23
TORSDOF 6
ENDMDL
MODEL 3
REMARK VINA RESULT:      -8.5      1.368      1.632
REMARK  6 active torsions:
REMARK  status: ('A' for Active; 'I' for Inactive)
REMARK    1  A    between atoms: C2_2  and  N1_3 
REMARK    2  A    between atoms: C6_8  and  N3_9 
REMARK    3  A    between atoms: N3_9  and  C7_10 
REMARK    4  A    between atoms: C11_16  and  O1_17 
REMARK    5  A    between atoms: O1_17  and  C12_18 
REMARK    6  A    between atoms: C12_18  and  C13_19 
ROOT
HETATM    1  C7  UNL     1      22.451   0.773  51.941  1.00  0.00     0.144 A 
HETATM    2  N4  UNL     1      21.246   0.947  51.401  1.00  0.00    -0.223 NA
HETATM    3  C8  UNL     1      20.120   0.433  51.889  1.00  0.00     0.236 A 
HETATM    4  N5  UNL     1      20.126  -0.322  52.999  1.00  0.00    -0.241 NA
HETATM    5  C9  UNL     1      21.332  -0.534  53.595  1.00  0.00     0.071 A 
HETATM    6  C10 UNL     1      22.468  -0.001  53.081  1.00  0.00     0.068 A 
HETATM    7  C11 UNL     1      23.498  -0.363  53.856  1.00  0.00     0.066 A 
HETATM    8  C16 UNL     1      22.973  -1.199  54.958  1.00  0.00     0.095 A 
HETATM    9  C17 UNL     1      21.501  -1.250  54.686  1.00  0.00     0.012 A 
ENDROOT
BRANCH   1  10
HETATM   10  N3  UNL     1      23.677   1.295  51.464  1.00  0.00    -0.340 N 
HETATM   11  H8  UNL     1      24.482   0.662  51.281  1.00  0.00     0.167 HD
BRANCH  10  12
HETATM   12  C6  UNL     1      23.997   2.643  51.180  1.00  0.00     0.034 A 
HETATM   13  C5  UNL     1      24.999   3.030  50.322  1.00  0.00     0.044 A 
HETATM   14  C4  UNL     1      25.341   4.331  50.023  1.00  0.00     0.014 A 
HETATM   15  C3  UNL     1      26.269   4.967  49.227  1.00  0.00     0.152 A 
HETATM   16  C20 UNL     1      24.639   5.358  50.616  1.00  0.00     0.064 A 
HETATM   17  N2  UNL     1      26.099   6.293  49.364  1.00  0.00    -0.184 NA
HETATM   18  N1  UNL     1      25.111   6.535  50.206  1.00  0.00    -0.270 N 
HETATM   19  C19 UNL     1      23.624   5.026  51.483  1.00  0.00     0.034 A 
HETATM   20  C18 UNL     1      23.340   3.705  51.734  1.00  0.00     0.032 A 
BRANCH  18  21
HETATM   21  C2  UNL     1      24.614   7.825  50.623  1.00  0.00     0.147 C 
HETATM   22  C1  UNL     1      23.553   8.334  49.677  1.00  0.00     0.028 C 
ENDBRANCH  18  21
ENDBRANCH  10  12
ENDBRANCH   1  10
BRANCH   7  23
HETATM   23  O1  UNL     1      24.859  -0.135  53.842  1.00  0.00    -0.350 OA
BRANCH  23  24
HETATM   24  C12 UNL     1      25.833  -0.961  53.284  1.00  0.00     0.239 C 
BRANCH  24  25
HETATM   25  C13 UNL     1      27.237  -0.409  53.374  1.00  0.00     0.380 C 
HETATM   26  N6  UNL     1      27.260   0.982  52.996  1.00  0.00     0.116 N 
HETATM   27  C14 UNL     1      28.578   1.393  53.473  1.00  0.00     0.299 C 
HETATM   28  H13 UNL     1      26.580   1.468  53.648  1.00  0.00     0.319 HD
HETATM   29  C15 UNL     1      28.752   0.527  54.696  1.00  0.00     0.201 C 
HETATM   30  O2  UNL     1      27.772  -0.463  54.647  1.00  0.00    -0.354 OA
ENDBRANCH  24  25
ENDBRANCH  23  24
ENDBRANCH   7  23
TORSDOF 6
ENDMDL
MODEL 4
REMARK VINA RESULT:      -8.2      2.716      6.662
REMARK  6 active torsions:
REMARK  status: ('A' for Active; 'I' for Inactive)
REMARK    1  A    between atoms: C2_2  and  N1_3 
REMARK    2  A    between atoms: C6_8  and  N3_9 
REMARK    3  A    between atoms: N3_9  and  C7_10 
REMARK    4  A    between atoms: C11_16  and  O1_17 
REMARK    5  A    between atoms: O1_17  and  C12_18 
REMARK    6  A    between atoms: C12_18  and  C13_19 
ROOT
HETATM    1  C7  UNL     1      22.688   2.974  50.949  1.00  0.00     0.144 A 
HETATM    2  N4  UNL     1      21.539   2.377  51.260  1.00  0.00    -0.223 NA
HETATM    3  C8  UNL     1      20.405   3.018  51.532  1.00  0.00     0.236 A 
HETATM    4  N5  UNL     1      20.345   4.359  51.511  1.00  0.00    -0.241 NA
HETATM    5  C9  UNL     1      21.492   5.024  51.201  1.00  0.00     0.071 A 
HETATM    6  C10 UNL     1      22.636   4.351  50.927  1.00  0.00     0.068 A 
HETATM    7  C11 UNL     1      23.601   5.240  50.656  1.00  0.00     0.066 A 
HETATM    8  C16 UNL     1      23.021   6.596  50.769  1.00  0.00     0.095 A 
HETATM    9  C17 UNL     1      21.593   6.334  51.140  1.00  0.00     0.012 A 
ENDROOT
BRANCH   1  10
HETATM   10  N3  UNL     1      23.919   2.342  50.653  1.00  0.00    -0.340 N 
HETATM   11  H8  UNL     1      24.214   2.204  49.665  1.00  0.00     0.167 HD
BRANCH  10  12
HETATM   12  C6  UNL     1      24.875   1.830  51.561  1.00  0.00     0.034 A 
HETATM   13  C5  UNL     1      24.572   0.968  52.588  1.00  0.00     0.044 A 
HETATM   14  C4  UNL     1      25.474   0.451  53.493  1.00  0.00     0.014 A 
HETATM   15  C3  UNL     1      25.433  -0.400  54.577  1.00  0.00     0.152 A 
HETATM   16  C20 UNL     1      26.801   0.806  53.388  1.00  0.00     0.064 A 
HETATM   17  N2  UNL     1      26.680  -0.520  55.061  1.00  0.00    -0.184 NA
HETATM   18  N1  UNL     1      27.515   0.210  54.344  1.00  0.00    -0.270 N 
HETATM   19  C19 UNL     1      27.159   1.666  52.375  1.00  0.00     0.034 A 
HETATM   20  C18 UNL     1      26.203   2.142  51.510  1.00  0.00     0.032 A 
BRANCH  18  21
HETATM   21  C2  UNL     1      28.938   0.354  54.536  1.00  0.00     0.147 C 
HETATM   22  C1  UNL     1      29.705  -0.662  53.723  1.00  0.00     0.028 C 
ENDBRANCH  18  21
ENDBRANCH  10  12
ENDBRANCH   1  10
BRANCH   7  23
HETATM   23  O1  UNL     1      24.936   5.161  50.318  1.00  0.00    -0.350 OA
BRANCH  23  24
HETATM   24  C12 UNL     1      25.473   5.234  49.033  1.00  0.00     0.239 C 
BRANCH  24  25
HETATM   25  C13 UNL     1      26.829   5.897  48.967  1.00  0.00     0.380 C 
HETATM   26  N6  UNL     1      27.857   4.923  48.701  1.00  0.00     0.116 N 
HETATM   27  C14 UNL     1      28.985   5.778  48.339  1.00  0.00     0.299 C 
HETATM   28  H13 UNL     1      27.579   4.454  47.791  1.00  0.00     0.319 HD
HETATM   29  C15 UNL     1      28.294   6.940  47.667  1.00  0.00     0.201 C 
HETATM   30  O2  UNL     1      26.935   6.842  47.964  1.00  0.00    -0.354 OA
ENDBRANCH  24  25
ENDBRANCH  23  24
ENDBRANCH   7  23
TORSDOF 6
ENDMDL
MODEL 5
REMARK VINA RESULT:      -8.1      2.224      4.633
REMARK  6 active torsions:
REMARK  status: ('A' for Active; 'I' for Inactive)
REMARK    1  A    between atoms: C2_2  and  N1_3 
REMARK    2  A    between atoms: C6_8  and  N3_9 
REMARK    3  A    between atoms: N3_9  and  C7_10 
REMARK    4  A    between atoms: C11_16  and  O1_17 
REMARK    5  A    between atoms: O1_17  and  C12_18 
REMARK    6  A    between atoms: C12_18  and  C13_19 
ROOT
HETATM    1  C7  UNL     1      24.435   0.614  52.452  1.00  0.00     0.144 A 
HETATM    2  N4  UNL     1      25.715   0.306  52.658  1.00  0.00    -0.223 NA
HETATM    3  C8  UNL     1      26.157  -0.455  53.655  1.00  0.00     0.236 A 
HETATM    4  N5  UNL     1      25.309  -0.982  54.553  1.00  0.00    -0.241 NA
HETATM    5  C9  UNL     1      23.987  -0.701  54.394  1.00  0.00     0.071 A 
HETATM    6  C10 UNL     1      23.558   0.078  53.370  1.00  0.00     0.068 A 
HETATM    7  C11 UNL     1      22.226   0.191  53.449  1.00  0.00     0.066 A 
HETATM    8  C16 UNL     1      21.767  -0.580  54.625  1.00  0.00     0.095 A 
HETATM    9  C17 UNL     1      23.036  -1.141  55.189  1.00  0.00     0.012 A 
ENDROOT
BRANCH   1  10
HETATM   10  N3  UNL     1      23.913   1.416  51.411  1.00  0.00    -0.340 N 
HETATM   11  H8  UNL     1      23.186   1.039  50.770  1.00  0.00     0.167 HD
BRANCH  10  12
HETATM   12  C6  UNL     1      24.256   2.750  51.085  1.00  0.00     0.034 A 
HETATM   13  C5  UNL     1      25.254   3.091  50.203  1.00  0.00     0.044 A 
HETATM   14  C4  UNL     1      25.619   4.376  49.863  1.00  0.00     0.014 A 
HETATM   15  C3  UNL     1      26.549   4.970  49.038  1.00  0.00     0.152 A 
HETATM   16  C20 UNL     1      24.946   5.433  50.436  1.00  0.00     0.064 A 
HETATM   17  N2  UNL     1      26.408   6.302  49.139  1.00  0.00    -0.184 NA
HETATM   18  N1  UNL     1      25.437   6.589  49.987  1.00  0.00    -0.270 N 
HETATM   19  C19 UNL     1      23.936   5.146  51.325  1.00  0.00     0.034 A 
HETATM   20  C18 UNL     1      23.629   3.839  51.617  1.00  0.00     0.032 A 
BRANCH  18  21
HETATM   21  C2  UNL     1      24.971   7.899  50.373  1.00  0.00     0.147 C 
HETATM   22  C1  UNL     1      23.882   8.388  49.449  1.00  0.00     0.028 C 
ENDBRANCH  18  21
ENDBRANCH  10  12
ENDBRANCH   1  10
BRANCH   7  23
HETATM   23  O1  UNL     1      21.254   0.837  52.711  1.00  0.00    -0.350 OA
BRANCH  23  24
HETATM   24  C12 UNL     1      20.396   0.255  51.779  1.00  0.00     0.239 C 
BRANCH  24  25
HETATM   25  C13 UNL     1      20.393   0.938  50.431  1.00  0.00     0.380 C 
HETATM   26  N6  UNL     1      20.481   2.368  50.587  1.00  0.00     0.116 N 
HETATM   27  C14 UNL     1      20.808   2.792  49.228  1.00  0.00     0.299 C 
HETATM   28  H13 UNL     1      21.369   2.542  51.139  1.00  0.00     0.319 HD
HETATM   29  C15 UNL     1      21.636   1.632  48.730  1.00  0.00     0.201 C 
HETATM   30  O2  UNL     1      21.458   0.579  49.627  1.00  0.00    -0.354 OA
ENDBRANCH  24  25
ENDBRANCH  23  24
ENDBRANCH   7  23
TORSDOF 6
ENDMDL
MODEL 6
REMARK VINA RESULT:      -8.1      1.954      4.962
REMARK  6 active torsions:
REMARK  status: ('A' for Active; 'I' for Inactive)
REMARK    1  A    between atoms: C2_2  and  N1_3 
REMARK    2  A    between atoms: C6_8  and  N3_9 
REMARK    3  A    between atoms: N3_9  and  C7_10 
REMARK    4  A    between atoms: C11_16  and  O1_17 
REMARK    5  A    between atoms: O1_17  and  C12_18 
REMARK    6  A    between atoms: C12_18  and  C13_19 
ROOT
HETATM    1  C7  UNL     1      27.125   1.937  52.163  1.00  0.00     0.144 A 
HETATM    2  N4  UNL     1      28.301   2.422  52.561  1.00  0.00    -0.223 NA
HETATM    3  C8  UNL     1      28.857   2.174  53.744  1.00  0.00     0.236 A 
HETATM    4  N5  UNL     1      28.247   1.390  54.647  1.00  0.00    -0.241 NA
HETATM    5  C9  UNL     1      27.040   0.866  54.294  1.00  0.00     0.071 A 
HETATM    6  C10 UNL     1      26.491   1.132  53.084  1.00  0.00     0.068 A 
HETATM    7  C11 UNL     1      25.315   0.497  53.000  1.00  0.00     0.066 A 
HETATM    8  C16 UNL     1      25.096  -0.235  54.266  1.00  0.00     0.095 A 
HETATM    9  C17 UNL     1      26.321   0.082  55.068  1.00  0.00     0.012 A 
ENDROOT
BRANCH   1  10
HETATM   10  N3  UNL     1      26.490   2.169  50.921  1.00  0.00    -0.340 N 
HETATM   11  H8  UNL     1      26.183   1.370  50.330  1.00  0.00     0.167 HD
BRANCH  10  12
HETATM   12  C6  UNL     1      26.190   3.413  50.316  1.00  0.00     0.034 A 
HETATM   13  C5  UNL     1      25.057   4.143  50.585  1.00  0.00     0.044 A 
HETATM   14  C4  UNL     1      24.729   5.354  50.016  1.00  0.00     0.014 A 
HETATM   15  C3  UNL     1      23.693   6.259  50.107  1.00  0.00     0.152 A 
HETATM   16  C20 UNL     1      25.588   5.911  49.093  1.00  0.00     0.064 A 
HETATM   17  N2  UNL     1      23.956   7.281  49.275  1.00  0.00    -0.184 NA
HETATM   18  N1  UNL     1      25.104   7.074  48.657  1.00  0.00    -0.270 N 
HETATM   19  C19 UNL     1      26.739   5.221  48.788  1.00  0.00     0.034 A 
HETATM   20  C18 UNL     1      26.999   4.016  49.397  1.00  0.00     0.032 A 
BRANCH  18  21
HETATM   21  C2  UNL     1      25.741   7.931  47.686  1.00  0.00     0.147 C 
HETATM   22  C1  UNL     1      24.845   8.168  46.494  1.00  0.00     0.028 C 
ENDBRANCH  18  21
ENDBRANCH  10  12
ENDBRANCH   1  10
BRANCH   7  23
HETATM   23  O1  UNL     1      24.328   0.390  52.042  1.00  0.00    -0.350 OA
BRANCH  23  24
HETATM   24  C12 UNL     1      23.148   1.130  51.980  1.00  0.00     0.239 C 
BRANCH  24  25
HETATM   25  C13 UNL     1      21.891   0.302  52.118  1.00  0.00     0.380 C 
HETATM   26  N6  UNL     1      21.500   0.202  53.502  1.00  0.00     0.116 N 
HETATM   27  C14 UNL     1      20.137  -0.310  53.385  1.00  0.00     0.299 C 
HETATM   28  H13 UNL     1      21.379   1.201  53.838  1.00  0.00     0.319 HD
HETATM   29  C15 UNL     1      19.673   0.326  52.096  1.00  0.00     0.201 C 
HETATM   30  O2  UNL     1      20.802   0.834  51.454  1.00  0.00    -0.354 OA
ENDBRANCH  24  25
ENDBRANCH  23  24
ENDBRANCH   7  23
TORSDOF 6
ENDMDL
MODEL 7
REMARK VINA RESULT:      -8.1      3.015      6.477
REMARK  6 active torsions:
REMARK  status: ('A' for Active; 'I' for Inactive)
REMARK    1  A    between atoms: C2_2  and  N1_3 
REMARK    2  A    between atoms: C6_8  and  N3_9 
REMARK    3  A    between atoms: N3_9  and  C7_10 
REMARK    4  A    between atoms: C11_16  and  O1_17 
REMARK    5  A    between atoms: O1_17  and  C12_18 
REMARK    6  A    between atoms: C12_18  and  C13_19 
ROOT
HETATM    1  C7  UNL     1      22.800   3.637  51.758  1.00  0.00     0.144 A 
HETATM    2  N4  UNL     1      23.739   4.360  51.149  1.00  0.00    -0.223 NA
HETATM    3  C8  UNL     1      23.496   5.310  50.251  1.00  0.00     0.236 A 
HETATM    4  N5  UNL     1      22.240   5.615  49.887  1.00  0.00    -0.241 NA
HETATM    5  C9  UNL     1      21.237   4.907  50.477  1.00  0.00     0.071 A 
HETATM    6  C10 UNL     1      21.508   3.942  51.389  1.00  0.00     0.068 A 
HETATM    7  C11 UNL     1      20.351   3.412  51.806  1.00  0.00     0.066 A 
HETATM    8  C16 UNL     1      19.249   4.097  51.096  1.00  0.00     0.095 A 
HETATM    9  C17 UNL     1      19.959   5.088  50.225  1.00  0.00     0.012 A 
ENDROOT
BRANCH   1  10
HETATM   10  N3  UNL     1      23.004   2.618  52.717  1.00  0.00    -0.340 N 
HETATM   11  H8  UNL     1      22.218   2.297  53.318  1.00  0.00     0.167 HD
BRANCH  10  12
HETATM   12  C6  UNL     1      24.201   1.920  53.003  1.00  0.00     0.034 A 
HETATM   13  C5  UNL     1      24.434   0.615  52.638  1.00  0.00     0.044 A 
HETATM   14  C4  UNL     1      25.584  -0.098  52.901  1.00  0.00     0.014 A 
HETATM   15  C3  UNL     1      26.054  -1.370  52.656  1.00  0.00     0.152 A 
HETATM   16  C20 UNL     1      26.608   0.519  53.586  1.00  0.00     0.064 A 
HETATM   17  N2  UNL     1      27.289  -1.467  53.177  1.00  0.00    -0.184 NA
HETATM   18  N1  UNL     1      27.630  -0.324  53.743  1.00  0.00    -0.270 N 
HETATM   19  C19 UNL     1      26.427   1.826  53.973  1.00  0.00     0.034 A 
HETATM   20  C18 UNL     1      25.252   2.473  53.676  1.00  0.00     0.032 A 
BRANCH  18  21
HETATM   21  C2  UNL     1      28.870  -0.016  54.414  1.00  0.00     0.147 C 
HETATM   22  C1  UNL     1      30.048  -0.626  53.692  1.00  0.00     0.028 C 
ENDBRANCH  18  21
ENDBRANCH  10  12
ENDBRANCH   1  10
BRANCH   7  23
HETATM   23  O1  UNL     1      19.995   2.423  52.699  1.00  0.00    -0.350 OA
BRANCH  23  24
HETATM   24  C12 UNL     1      19.744   1.084  52.400  1.00  0.00     0.239 C 
BRANCH  24  25
HETATM   25  C13 UNL     1      20.216   0.115  53.459  1.00  0.00     0.380 C 
HETATM   26  N6  UNL     1      21.050  -0.906  52.877  1.00  0.00     0.116 N 
HETATM   27  C14 UNL     1      21.660  -1.499  54.064  1.00  0.00     0.299 C 
HETATM   28  H13 UNL     1      21.846  -0.390  52.401  1.00  0.00     0.319 HD
HETATM   29  C15 UNL     1      21.765  -0.310  54.989  1.00  0.00     0.201 C 
HETATM   30  O2  UNL     1      20.978   0.706  54.450  1.00  0.00    -0.354 OA
ENDBRANCH  24  25
ENDBRANCH  23  24
ENDBRANCH   7  23
TORSDOF 6
ENDMDL
MODEL 8
REMARK VINA RESULT:      -7.6      1.954      2.373
REMARK  6 active torsions:
REMARK  status: ('A' for Active; 'I' for Inactive)
REMARK    1  A    between atoms: C2_2  and  N1_3 
REMARK    2  A    between atoms: C6_8  and  N3_9 
REMARK    3  A    between atoms: N3_9  and  C7_10 
REMARK    4  A    between atoms: C11_16  and  O1_17 
REMARK    5  A    between atoms: O1_17  and  C12_18 
REMARK    6  A    between atoms: C12_18  and  C13_19 
ROOT
HETATM    1  C7  UNL     1      22.686   0.972  51.798  1.00  0.00     0.144 A 
HETATM    2  N4  UNL     1      21.402   0.985  51.445  1.00  0.00    -0.223 NA
HETATM    3  C8  UNL     1      20.436   0.332  52.087  1.00  0.00     0.236 A 
HETATM    4  N5  UNL     1      20.705  -0.411  53.172  1.00  0.00    -0.241 NA
HETATM    5  C9  UNL     1      22.003  -0.463  53.579  1.00  0.00     0.071 A 
HETATM    6  C10 UNL     1      22.971   0.211  52.911  1.00  0.00     0.068 A 
HETATM    7  C11 UNL     1      24.143  -0.011  53.519  1.00  0.00     0.066 A 
HETATM    8  C16 UNL     1      23.901  -0.904  54.673  1.00  0.00     0.095 A 
HETATM    9  C17 UNL     1      22.424  -1.146  54.622  1.00  0.00     0.012 A 
ENDROOT
BRANCH   1  10
HETATM   10  N3  UNL     1      23.749   1.646  51.153  1.00  0.00    -0.340 N 
HETATM   11  H8  UNL     1      24.704   1.234  51.144  1.00  0.00     0.167 HD
BRANCH  10  12
HETATM   12  C6  UNL     1      23.707   2.884  50.470  1.00  0.00     0.034 A 
HETATM   13  C5  UNL     1      23.080   3.072  49.261  1.00  0.00     0.044 A 
HETATM   14  C4  UNL     1      23.020   4.260  48.565  1.00  0.00     0.014 A 
HETATM   15  C3  UNL     1      22.476   4.701  47.378  1.00  0.00     0.152 A 
HETATM   16  C20 UNL     1      23.629   5.375  49.097  1.00  0.00     0.064 A 
HETATM   17  N2  UNL     1      22.764   6.007  47.246  1.00  0.00    -0.184 NA
HETATM   18  N1  UNL     1      23.464   6.421  48.286  1.00  0.00    -0.270 N 
HETATM   19  C19 UNL     1      24.270   5.242  50.307  1.00  0.00     0.034 A 
HETATM   20  C18 UNL     1      24.289   4.024  50.943  1.00  0.00     0.032 A 
BRANCH  18  21
HETATM   21  C2  UNL     1      23.969   7.752  48.527  1.00  0.00     0.147 C 
HETATM   22  C1  UNL     1      22.973   8.583  49.300  1.00  0.00     0.028 C 
ENDBRANCH  18  21
ENDBRANCH  10  12
ENDBRANCH   1  10
BRANCH   7  23
HETATM   23  O1  UNL     1      25.446   0.391  53.307  1.00  0.00    -0.350 OA
BRANCH  23  24
HETATM   24  C12 UNL     1      26.520   0.219  54.179  1.00  0.00     0.239 C 
BRANCH  24  25
HETATM   25  C13 UNL     1      27.742  -0.401  53.541  1.00  0.00     0.380 C 
HETATM   26  N6  UNL     1      28.840  -0.433  54.474  1.00  0.00     0.116 N 
HETATM   27  C14 UNL     1      29.764  -1.348  53.809  1.00  0.00     0.299 C 
HETATM   28  H13 UNL     1      28.487  -0.977  55.313  1.00  0.00     0.319 HD
HETATM   29  C15 UNL     1      28.817  -2.292  53.107  1.00  0.00     0.201 C 
HETATM   30  O2  UNL     1      27.551  -1.709  53.137  1.00  0.00    -0.354 OA
ENDBRANCH  24  25
ENDBRANCH  23  24
ENDBRANCH   7  23
TORSDOF 6
ENDMDL
MODEL 9
REMARK VINA RESULT:      -7.4      3.276      5.384
REMARK  6 active torsions:
REMARK  status: ('A' for Active; 'I' for Inactive)
REMARK    1  A    between atoms: C2_2  and  N1_3 
REMARK    2  A    between atoms: C6_8  and  N3_9 
REMARK    3  A    between atoms: N3_9  and  C7_10 
REMARK    4  A    between atoms: C11_16  and  O1_17 
REMARK    5  A    between atoms: O1_17  and  C12_18 
REMARK    6  A    between atoms: C12_18  and  C13_19 
ROOT
HETATM    1  C7  UNL     1      23.524   1.750  52.674  1.00  0.00     0.144 A 
HETATM    2  N4  UNL     1      22.613   1.020  53.315  1.00  0.00    -0.223 NA
HETATM    3  C8  UNL     1      22.833  -0.195  53.810  1.00  0.00     0.236 A 
HETATM    4  N5  UNL     1      24.033  -0.786  53.691  1.00  0.00    -0.241 NA
HETATM    5  C9  UNL     1      25.004  -0.086  53.043  1.00  0.00     0.071 A 
HETATM    6  C10 UNL     1      24.758   1.151  52.546  1.00  0.00     0.068 A 
HETATM    7  C11 UNL     1      25.875   1.607  51.964  1.00  0.00     0.066 A 
HETATM    8  C16 UNL     1      26.921   0.571  52.102  1.00  0.00     0.095 A 
HETATM    9  C17 UNL     1      26.227  -0.528  52.846  1.00  0.00     0.012 A 
ENDROOT
BRANCH   1  10
HETATM   10  N3  UNL     1      23.343   3.043  52.129  1.00  0.00    -0.340 N 
HETATM   11  H8  UNL     1      23.622   3.886  52.671  1.00  0.00     0.167 HD
BRANCH  10  12
HETATM   12  C6  UNL     1      22.799   3.388  50.870  1.00  0.00     0.034 A 
HETATM   13  C5  UNL     1      22.334   4.642  50.552  1.00  0.00     0.044 A 
HETATM   14  C4  UNL     1      21.796   5.014  49.339  1.00  0.00     0.014 A 
HETATM   15  C3  UNL     1      21.274   6.163  48.783  1.00  0.00     0.152 A 
HETATM   16  C20 UNL     1      21.701   4.075  48.336  1.00  0.00     0.064 A 
HETATM   17  N2  UNL     1      20.903   5.885  47.522  1.00  0.00    -0.184 NA
HETATM   18  N1  UNL     1      21.159   4.619  47.246  1.00  0.00    -0.270 N 
HETATM   19  C19 UNL     1      22.154   2.804  48.601  1.00  0.00     0.034 A 
HETATM   20  C18 UNL     1      22.678   2.505  49.835  1.00  0.00     0.032 A 
BRANCH  18  21
HETATM   21  C2  UNL     1      20.910   3.928  46.003  1.00  0.00     0.147 C 
HETATM   22  C1  UNL     1      19.467   3.496  45.897  1.00  0.00     0.028 C 
ENDBRANCH  18  21
ENDBRANCH  10  12
ENDBRANCH   1  10
BRANCH   7  23
HETATM   23  O1  UNL     1      26.231   2.766  51.305  1.00  0.00    -0.350 OA
BRANCH  23  24
HETATM   24  C12 UNL     1      26.575   2.883  49.959  1.00  0.00     0.239 C 
BRANCH  24  25
HETATM   25  C13 UNL     1      26.232   4.222  49.347  1.00  0.00     0.380 C 
HETATM   26  N6  UNL     1      25.909   5.180  50.374  1.00  0.00     0.116 N 
HETATM   27  C14 UNL     1      25.955   6.435  49.627  1.00  0.00     0.299 C 
HETATM   28  H13 UNL     1      26.759   5.219  51.007  1.00  0.00     0.319 HD
HETATM   29  C15 UNL     1      27.033   6.153  48.608  1.00  0.00     0.201 C 
HETATM   30  O2  UNL     1      27.267   4.779  48.621  1.00  0.00    -0.354 OA
ENDBRANCH  24  25
ENDBRANCH  23  24
ENDBRANCH   7  23
TORSDOF 6
ENDMDL
