MODEL 1
REMARK VINA RESULT:      -8.4      0.000      0.000
REMARK  4 active torsions:
REMARK  status: ('A' for Active; 'I' for Inactive)
REMARK    1  A    between atoms: C4_4  and  N1_5 
REMARK    2  A    between atoms: N1_5  and  C5_6 
REMARK    3  A    between atoms: C7_8  and  O1_9 
REMARK    4  A    between atoms: O1_9  and  C8_10 
ROOT
HETATM    1  C5  UNL     1      25.124   2.660  52.250  1.00  0.00     0.034 A 
HETATM    2  C6  UNL     1      24.617   1.913  51.281  1.00  0.00     0.040 A 
HETATM    3  C7  UNL     1      23.153   2.088  51.094  1.00  0.00     0.198 A 
HETATM    4  C14 UNL     1      22.869   3.098  52.152  1.00  0.00     0.047 A 
HETATM    5 CL1  UNL     1      21.208   3.584  52.262  1.00  0.00    -0.086 Cl
HETATM    6  C15 UNL     1      23.980   3.417  52.799  1.00  0.00     0.051 A 
ENDROOT
BRANCH   1   7
HETATM    7  N1  UNL     1      26.471   2.777  52.733  1.00  0.00    -0.341 N 
HETATM    8  H5  UNL     1      27.021   3.654  52.604  1.00  0.00     0.167 HD
BRANCH   7   9
HETATM    9  C4  UNL     1      27.062   1.671  53.401  1.00  0.00     0.131 A 
HETATM   10  C3  UNL     1      28.252   1.035  53.125  1.00  0.00     0.077 A 
HETATM   11  C2  UNL     1      28.641  -0.034  53.910  1.00  0.00     0.035 A 
HETATM   12  C1  UNL     1      29.933  -0.685  53.572  1.00  0.00     0.070 C 
HETATM   13  N3  UNL     1      27.863  -0.428  54.912  1.00  0.00    -0.247 NA
HETATM   14  C16 UNL     1      26.687   0.192  55.191  1.00  0.00     0.235 A 
HETATM   15  N2  UNL     1      26.301   1.241  54.424  1.00  0.00    -0.224 NA
ENDBRANCH   7   9
ENDBRANCH   1   7
BRANCH   3  16
HETATM   16  O1  UNL     1      22.411   0.918  51.245  1.00  0.00    -0.336 OA
BRANCH  16  17
HETATM   17  C8  UNL     1      22.199   0.224  52.421  1.00  0.00     0.073 A 
HETATM   18  C9  UNL     1      20.858   0.033  52.675  1.00  0.00     0.037 A 
HETATM   19  C10 UNL     1      20.457  -0.653  53.827  1.00  0.00     0.006 A 
HETATM   20  C11 UNL     1      21.411  -1.135  54.703  1.00  0.00     0.042 A 
HETATM   21  C12 UNL     1      22.762  -0.940  54.445  1.00  0.00     0.119 A 
HETATM   22  F1  UNL     1      23.751  -1.391  55.269  1.00  0.00    -0.206 F 
HETATM   23  C13 UNL     1      23.133  -0.264  53.307  1.00  0.00     0.079 A 
ENDBRANCH  16  17
ENDBRANCH   3  16
TORSDOF 4
ENDMDL
MODEL 2
REMARK VINA RESULT:      -7.9      3.426      5.217
REMARK  4 active torsions:
REMARK  status: ('A' for Active; 'I' for Inactive)
REMARK    1  A    between atoms: C4_4  and  N1_5 
REMARK    2  A    between atoms: N1_5  and  C5_6 
REMARK    3  A    between atoms: C7_8  and  O1_9 
REMARK    4  A    between atoms: O1_9  and  C8_10 
ROOT
HETATM    1  C5  UNL     1      25.051   1.855  53.239  1.00  0.00     0.034 A 
HETATM    2  C6  UNL     1      25.015   2.906  52.433  1.00  0.00     0.040 A 
HETATM    3  C7  UNL     1      23.978   2.812  51.373  1.00  0.00     0.198 A 
HETATM    4  C14 UNL     1      23.387   1.483  51.697  1.00  0.00     0.047 A 
HETATM    5 CL1  UNL     1      22.095   0.991  50.649  1.00  0.00    -0.086 Cl
HETATM    6  C15 UNL     1      23.993   0.950  52.747  1.00  0.00     0.051 A 
ENDROOT
BRANCH   1   7
HETATM    7  N1  UNL     1      25.894   1.569  54.365  1.00  0.00    -0.341 N 
HETATM    8  H5  UNL     1      25.584   1.770  55.341  1.00  0.00     0.167 HD
BRANCH   7   9
HETATM    9  C4  UNL     1      27.176   1.001  54.139  1.00  0.00     0.131 A 
HETATM   10  C3  UNL     1      27.492  -0.285  53.760  1.00  0.00     0.077 A 
HETATM   11  C2  UNL     1      28.820  -0.630  53.595  1.00  0.00     0.035 A 
HETATM   12  C1  UNL     1      29.109  -2.029  53.185  1.00  0.00     0.070 C 
HETATM   13  N3  UNL     1      29.765   0.280  53.805  1.00  0.00    -0.247 NA
HETATM   14  C16 UNL     1      29.463   1.550  54.180  1.00  0.00     0.235 A 
HETATM   15  N2  UNL     1      28.161   1.894  54.342  1.00  0.00    -0.224 NA
ENDBRANCH   7   9
ENDBRANCH   1   7
BRANCH   3  16
HETATM   16  O1  UNL     1      24.477   2.883  50.073  1.00  0.00    -0.336 OA
BRANCH  16  17
HETATM   17  C8  UNL     1      25.285   3.876  49.555  1.00  0.00     0.073 A 
HETATM   18  C9  UNL     1      24.591   5.045  49.328  1.00  0.00     0.037 A 
HETATM   19  C10 UNL     1      25.254   6.160  48.803  1.00  0.00     0.006 A 
HETATM   20  C11 UNL     1      26.603   6.081  48.515  1.00  0.00     0.042 A 
HETATM   21  C12 UNL     1      27.301   4.902  48.744  1.00  0.00     0.119 A 
HETATM   22  F1  UNL     1      28.631   4.760  48.481  1.00  0.00    -0.206 F 
HETATM   23  C13 UNL     1      26.630   3.818  49.260  1.00  0.00     0.079 A 
ENDBRANCH  16  17
ENDBRANCH   3  16
TORSDOF 4
ENDMDL
MODEL 3
REMARK VINA RESULT:      -7.6      2.921      5.086
REMARK  4 active torsions:
REMARK  status: ('A' for Active; 'I' for Inactive)
REMARK    1  A    between atoms: C4_4  and  N1_5 
REMARK    2  A    between atoms: N1_5  and  C5_6 
REMARK    3  A    between atoms: C7_8  and  O1_9 
REMARK    4  A    between atoms: O1_9  and  C8_10 
ROOT
HETATM    1  C5  UNL     1      26.266   2.180  52.744  1.00  0.00     0.034 A 
HETATM    2  C6  UNL     1      26.011   1.736  53.966  1.00  0.00     0.040 A 
HETATM    3  C7  UNL     1      26.835   0.566  54.362  1.00  0.00     0.198 A 
HETATM    4  C14 UNL     1      27.649   0.384  53.127  1.00  0.00     0.047 A 
HETATM    5 CL1  UNL     1      28.777  -0.932  53.190  1.00  0.00    -0.086 Cl
HETATM    6  C15 UNL     1      27.326   1.294  52.221  1.00  0.00     0.051 A 
ENDROOT
BRANCH   1   7
HETATM    7  N1  UNL     1      25.693   3.271  52.007  1.00  0.00    -0.341 N 
HETATM    8  H5  UNL     1      26.252   4.118  51.766  1.00  0.00     0.167 HD
BRANCH   7   9
HETATM    9  C4  UNL     1      24.335   3.188  51.599  1.00  0.00     0.131 A 
HETATM   10  C3  UNL     1      23.761   2.332  50.686  1.00  0.00     0.077 A 
HETATM   11  C2  UNL     1      22.405   2.424  50.436  1.00  0.00     0.035 A 
HETATM   12  C1  UNL     1      21.835   1.478  49.443  1.00  0.00     0.070 C 
HETATM   13  N3  UNL     1      21.681   3.335  51.079  1.00  0.00    -0.247 NA
HETATM   14  C16 UNL     1      22.238   4.184  51.981  1.00  0.00     0.235 A 
HETATM   15  N2  UNL     1      23.568   4.097  52.229  1.00  0.00    -0.224 NA
ENDBRANCH   7   9
ENDBRANCH   1   7
BRANCH   3  16
HETATM   16  O1  UNL     1      26.099  -0.568  54.700  1.00  0.00    -0.336 OA
BRANCH  16  17
HETATM   17  C8  UNL     1      24.753  -0.775  54.466  1.00  0.00     0.073 A 
HETATM   18  C9  UNL     1      24.101  -1.257  55.580  1.00  0.00     0.037 A 
HETATM   19  C10 UNL     1      22.729  -1.526  55.525  1.00  0.00     0.006 A 
HETATM   20  C11 UNL     1      22.036  -1.304  54.350  1.00  0.00     0.042 A 
HETATM   21  C12 UNL     1      22.695  -0.819  53.228  1.00  0.00     0.119 A 
HETATM   22  F1  UNL     1      22.068  -0.579  52.041  1.00  0.00    -0.206 F 
HETATM   23  C13 UNL     1      24.044  -0.562  53.305  1.00  0.00     0.079 A 
ENDBRANCH  16  17
ENDBRANCH   3  16
TORSDOF 4
ENDMDL
MODEL 4
REMARK VINA RESULT:      -7.5      3.153      5.822
REMARK  4 active torsions:
REMARK  status: ('A' for Active; 'I' for Inactive)
REMARK    1  A    between atoms: C4_4  and  N1_5 
REMARK    2  A    between atoms: N1_5  and  C5_6 
REMARK    3  A    between atoms: C7_8  and  O1_9 
REMARK    4  A    between atoms: O1_9  and  C8_10 
ROOT
HETATM    1  C5  UNL     1      23.373   1.607  51.872  1.00  0.00     0.034 A 
HETATM    2  C6  UNL     1      24.549   1.001  51.950  1.00  0.00     0.040 A 
HETATM    3  C7  UNL     1      24.618  -0.038  53.009  1.00  0.00     0.198 A 
HETATM    4  C14 UNL     1      23.239   0.058  53.565  1.00  0.00     0.047 A 
HETATM    5 CL1  UNL     1      22.908  -1.035  54.871  1.00  0.00    -0.086 Cl
HETATM    6  C15 UNL     1      22.543   0.984  52.923  1.00  0.00     0.051 A 
ENDROOT
BRANCH   1   7
HETATM    7  N1  UNL     1      22.914   2.649  50.997  1.00  0.00    -0.341 N 
HETATM    8  H5  UNL     1      21.961   2.622  50.574  1.00  0.00     0.167 HD
BRANCH   7   9
HETATM    9  C4  UNL     1      23.781   3.736  50.706  1.00  0.00     0.131 A 
HETATM   10  C3  UNL     1      24.919   3.745  49.931  1.00  0.00     0.077 A 
HETATM   11  C2  UNL     1      25.620   4.925  49.779  1.00  0.00     0.035 A 
HETATM   12  C1  UNL     1      26.841   4.883  48.933  1.00  0.00     0.070 C 
HETATM   13  N3  UNL     1      25.186   6.028  50.381  1.00  0.00    -0.247 NA
HETATM   14  C16 UNL     1      24.065   6.028  51.148  1.00  0.00     0.235 A 
HETATM   15  N2  UNL     1      23.373   4.872  51.300  1.00  0.00    -0.224 NA
ENDBRANCH   7   9
ENDBRANCH   1   7
BRANCH   3  16
HETATM   16  O1  UNL     1      25.608   0.181  53.965  1.00  0.00    -0.336 OA
BRANCH  16  17
HETATM   17  C8  UNL     1      26.956  -0.086  53.832  1.00  0.00     0.073 A 
HETATM   18  C9  UNL     1      27.738   0.978  54.225  1.00  0.00     0.037 A 
HETATM   19  C10 UNL     1      29.133   0.882  54.157  1.00  0.00     0.006 A 
HETATM   20  C11 UNL     1      29.717  -0.282  53.694  1.00  0.00     0.042 A 
HETATM   21  C12 UNL     1      28.927  -1.352  53.297  1.00  0.00     0.119 A 
HETATM   22  F1  UNL     1      29.441  -2.527  52.832  1.00  0.00    -0.206 F 
HETATM   23  C13 UNL     1      27.558  -1.237  53.373  1.00  0.00     0.079 A 
ENDBRANCH  16  17
ENDBRANCH   3  16
TORSDOF 4
ENDMDL
MODEL 5
REMARK VINA RESULT:      -7.5      3.113      5.441
REMARK  4 active torsions:
REMARK  status: ('A' for Active; 'I' for Inactive)
REMARK    1  A    between atoms: C4_4  and  N1_5 
REMARK    2  A    between atoms: N1_5  and  C5_6 
REMARK    3  A    between atoms: C7_8  and  O1_9 
REMARK    4  A    between atoms: O1_9  and  C8_10 
ROOT
HETATM    1  C5  UNL     1      22.779   1.699  51.784  1.00  0.00     0.034 A 
HETATM    2  C6  UNL     1      23.831   0.916  51.971  1.00  0.00     0.040 A 
HETATM    3  C7  UNL     1      23.672  -0.044  53.093  1.00  0.00     0.198 A 
HETATM    4  C14 UNL     1      22.302   0.314  53.556  1.00  0.00     0.047 A 
HETATM    5 CL1  UNL     1      21.727  -0.616  54.903  1.00  0.00    -0.086 Cl
HETATM    6  C15 UNL     1      21.804   1.293  52.818  1.00  0.00     0.051 A 
ENDROOT
BRANCH   1   7
HETATM    7  N1  UNL     1      22.544   2.737  50.821  1.00  0.00    -0.341 N 
HETATM    8  H5  UNL     1      21.657   2.782  50.275  1.00  0.00     0.167 HD
BRANCH   7   9
HETATM    9  C4  UNL     1      23.546   3.723  50.613  1.00  0.00     0.131 A 
HETATM   10  C3  UNL     1      24.719   3.619  49.898  1.00  0.00     0.077 A 
HETATM   11  C2  UNL     1      25.560   4.713  49.825  1.00  0.00     0.035 A 
HETATM   12  C1  UNL     1      26.813   4.551  49.042  1.00  0.00     0.070 C 
HETATM   13  N3  UNL     1      25.224   5.841  50.442  1.00  0.00    -0.247 NA
HETATM   14  C16 UNL     1      24.070   5.952  51.150  1.00  0.00     0.235 A 
HETATM   15  N2  UNL     1      23.241   4.882  51.225  1.00  0.00    -0.224 NA
ENDBRANCH   7   9
ENDBRANCH   1   7
BRANCH   3  16
HETATM   16  O1  UNL     1      24.635   0.078  54.094  1.00  0.00    -0.336 OA
BRANCH  16  17
HETATM   17  C8  UNL     1      25.994  -0.125  53.958  1.00  0.00     0.073 A 
HETATM   18  C9  UNL     1      26.281  -1.153  53.088  1.00  0.00     0.037 A 
HETATM   19  C10 UNL     1      27.613  -1.498  52.829  1.00  0.00     0.006 A 
HETATM   20  C11 UNL     1      28.633  -0.803  53.451  1.00  0.00     0.042 A 
HETATM   21  C12 UNL     1      28.341   0.233  54.328  1.00  0.00     0.119 A 
HETATM   22  F1  UNL     1      29.300   0.957  54.972  1.00  0.00    -0.206 F 
HETATM   23  C13 UNL     1      27.025   0.555  54.568  1.00  0.00     0.079 A 
ENDBRANCH  16  17
ENDBRANCH   3  16
TORSDOF 4
ENDMDL
MODEL 6
REMARK VINA RESULT:      -7.5      2.412      3.413
REMARK  4 active torsions:
REMARK  status: ('A' for Active; 'I' for Inactive)
REMARK    1  A    between atoms: C4_4  and  N1_5 
REMARK    2  A    between atoms: N1_5  and  C5_6 
REMARK    3  A    between atoms: C7_8  and  O1_9 
REMARK    4  A    between atoms: O1_9  and  C8_10 
ROOT
HETATM    1  C5  UNL     1      23.884  -0.241  53.583  1.00  0.00     0.034 A 
HETATM    2  C6  UNL     1      22.701  -0.820  53.443  1.00  0.00     0.040 A 
HETATM    3  C7  UNL     1      21.863  -0.221  52.372  1.00  0.00     0.198 A 
HETATM    4  C14 UNL     1      22.780   0.849  51.886  1.00  0.00     0.047 A 
HETATM    5 CL1  UNL     1      22.146   1.811  50.589  1.00  0.00    -0.086 Cl
HETATM    6  C15 UNL     1      23.914   0.834  52.569  1.00  0.00     0.051 A 
ENDROOT
BRANCH   1   7
HETATM    7  N1  UNL     1      24.961  -0.522  54.489  1.00  0.00    -0.341 N 
HETATM    8  H5  UNL     1      24.789  -0.959  55.420  1.00  0.00     0.167 HD
BRANCH   7   9
HETATM    9  C4  UNL     1      26.289  -0.196  54.102  1.00  0.00     0.131 A 
HETATM   10  C3  UNL     1      26.920   1.028  54.141  1.00  0.00     0.077 A 
HETATM   11  C2  UNL     1      28.230   1.122  53.711  1.00  0.00     0.035 A 
HETATM   12  C1  UNL     1      28.867   2.463  53.772  1.00  0.00     0.070 C 
HETATM   13  N3  UNL     1      28.855   0.035  53.270  1.00  0.00    -0.247 NA
HETATM   14  C16 UNL     1      28.240  -1.175  53.227  1.00  0.00     0.235 A 
HETATM   15  N2  UNL     1      26.955  -1.273  53.648  1.00  0.00    -0.224 NA
ENDBRANCH   7   9
ENDBRANCH   1   7
BRANCH   3  16
HETATM   16  O1  UNL     1      20.636   0.273  52.812  1.00  0.00    -0.336 OA
BRANCH  16  17
HETATM   17  C8  UNL     1      19.435  -0.409  52.834  1.00  0.00     0.073 A 
HETATM   18  C9  UNL     1      18.503   0.153  51.988  1.00  0.00     0.037 A 
HETATM   19  C10 UNL     1      17.226  -0.410  51.883  1.00  0.00     0.006 A 
HETATM   20  C11 UNL     1      16.908  -1.528  52.631  1.00  0.00     0.042 A 
HETATM   21  C12 UNL     1      17.848  -2.092  53.483  1.00  0.00     0.119 A 
HETATM   22  F1  UNL     1      17.596  -3.194  54.245  1.00  0.00    -0.206 F 
HETATM   23  C13 UNL     1      19.097  -1.523  53.570  1.00  0.00     0.079 A 
ENDBRANCH  16  17
ENDBRANCH   3  16
TORSDOF 4
ENDMDL
MODEL 7
REMARK VINA RESULT:      -7.4      3.802      5.649
REMARK  4 active torsions:
REMARK  status: ('A' for Active; 'I' for Inactive)
REMARK    1  A    between atoms: C4_4  and  N1_5 
REMARK    2  A    between atoms: N1_5  and  C5_6 
REMARK    3  A    between atoms: C7_8  and  O1_9 
REMARK    4  A    between atoms: O1_9  and  C8_10 
ROOT
HETATM    1  C5  UNL     1      24.699   1.496  52.676  1.00  0.00     0.034 A 
HETATM    2  C6  UNL     1      25.046   2.623  52.072  1.00  0.00     0.040 A 
HETATM    3  C7  UNL     1      24.145   3.006  50.955  1.00  0.00     0.198 A 
HETATM    4  C14 UNL     1      23.173   1.877  51.000  1.00  0.00     0.047 A 
HETATM    5 CL1  UNL     1      21.915   1.958  49.808  1.00  0.00    -0.086 Cl
HETATM    6  C15 UNL     1      23.488   1.032  51.969  1.00  0.00     0.051 A 
ENDROOT
BRANCH   1   7
HETATM    7  N1  UNL     1      25.302   0.803  53.779  1.00  0.00    -0.341 N 
HETATM    8  H5  UNL     1      24.960   0.933  54.756  1.00  0.00     0.167 HD
BRANCH   7   9
HETATM    9  C4  UNL     1      26.388  -0.079  53.528  1.00  0.00     0.131 A 
HETATM   10  C3  UNL     1      27.733   0.132  53.733  1.00  0.00     0.077 A 
HETATM   11  C2  UNL     1      28.628  -0.871  53.415  1.00  0.00     0.035 A 
HETATM   12  C1  UNL     1      30.068  -0.594  53.655  1.00  0.00     0.070 C 
HETATM   13  N3  UNL     1      28.176  -2.019  52.919  1.00  0.00    -0.247 NA
HETATM   14  C16 UNL     1      26.851  -2.236  52.712  1.00  0.00     0.235 A 
HETATM   15  N2  UNL     1      25.970  -1.254  53.023  1.00  0.00    -0.224 NA
ENDBRANCH   7   9
ENDBRANCH   1   7
BRANCH   3  16
HETATM   16  O1  UNL     1      24.781   3.128  49.720  1.00  0.00    -0.336 OA
BRANCH  16  17
HETATM   17  C8  UNL     1      25.531   4.202  49.283  1.00  0.00     0.073 A 
HETATM   18  C9  UNL     1      26.863   3.881  49.139  1.00  0.00     0.037 A 
HETATM   19  C10 UNL     1      27.772   4.852  48.703  1.00  0.00     0.006 A 
HETATM   20  C11 UNL     1      27.326   6.128  48.420  1.00  0.00     0.042 A 
HETATM   21  C12 UNL     1      25.983   6.450  48.566  1.00  0.00     0.119 A 
HETATM   22  F1  UNL     1      25.480   7.691  48.303  1.00  0.00    -0.206 F 
HETATM   23  C13 UNL     1      25.107   5.481  48.996  1.00  0.00     0.079 A 
ENDBRANCH  16  17
ENDBRANCH   3  16
TORSDOF 4
ENDMDL
MODEL 8
REMARK VINA RESULT:      -7.2      3.214      6.476
REMARK  4 active torsions:
REMARK  status: ('A' for Active; 'I' for Inactive)
REMARK    1  A    between atoms: C4_4  and  N1_5 
REMARK    2  A    between atoms: N1_5  and  C5_6 
REMARK    3  A    between atoms: C7_8  and  O1_9 
REMARK    4  A    between atoms: O1_9  and  C8_10 
ROOT
HETATM    1  C5  UNL     1      23.064   2.585  52.209  1.00  0.00     0.034 A 
HETATM    2  C6  UNL     1      23.969   1.998  52.978  1.00  0.00     0.040 A 
HETATM    3  C7  UNL     1      25.326   1.947  52.375  1.00  0.00     0.198 A 
HETATM    4  C14 UNL     1      25.063   2.625  51.074  1.00  0.00     0.047 A 
HETATM    5 CL1  UNL     1      26.449   2.770  50.040  1.00  0.00    -0.086 Cl
HETATM    6  C15 UNL     1      23.791   2.982  50.986  1.00  0.00     0.051 A 
ENDROOT
BRANCH   1   7
HETATM    7  N1  UNL     1      21.666   2.828  52.428  1.00  0.00    -0.341 N 
HETATM    8  H5  UNL     1      21.300   3.792  52.585  1.00  0.00     0.167 HD
BRANCH   7   9
HETATM    9  C4  UNL     1      20.769   1.727  52.431  1.00  0.00     0.131 A 
HETATM   10  C3  UNL     1      19.786   1.415  51.517  1.00  0.00     0.077 A 
HETATM   11  C2  UNL     1      19.018   0.284  51.714  1.00  0.00     0.035 A 
HETATM   12  C1  UNL     1      17.972  -0.008  50.700  1.00  0.00     0.070 C 
HETATM   13  N3  UNL     1      19.239  -0.481  52.778  1.00  0.00    -0.247 NA
HETATM   14  C16 UNL     1      20.205  -0.181  53.685  1.00  0.00     0.235 A 
HETATM   15  N2  UNL     1      20.962   0.928  53.496  1.00  0.00    -0.224 NA
ENDBRANCH   7   9
ENDBRANCH   1   7
BRANCH   3  16
HETATM   16  O1  UNL     1      25.840   0.660  52.224  1.00  0.00    -0.336 OA
BRANCH  16  17
HETATM   17  C8  UNL     1      27.055   0.199  52.690  1.00  0.00     0.073 A 
HETATM   18  C9  UNL     1      27.869   1.224  53.121  1.00  0.00     0.037 A 
HETATM   19  C10 UNL     1      29.142   0.939  53.627  1.00  0.00     0.006 A 
HETATM   20  C11 UNL     1      29.575  -0.371  53.691  1.00  0.00     0.042 A 
HETATM   21  C12 UNL     1      28.754  -1.403  53.256  1.00  0.00     0.119 A 
HETATM   22  F1  UNL     1      29.122  -2.716  53.293  1.00  0.00    -0.206 F 
HETATM   23  C13 UNL     1      27.506  -1.100  52.762  1.00  0.00     0.079 A 
ENDBRANCH  16  17
ENDBRANCH   3  16
TORSDOF 4
ENDMDL
MODEL 9
REMARK VINA RESULT:      -6.9      4.074      7.348
REMARK  4 active torsions:
REMARK  status: ('A' for Active; 'I' for Inactive)
REMARK    1  A    between atoms: C4_4  and  N1_5 
REMARK    2  A    between atoms: N1_5  and  C5_6 
REMARK    3  A    between atoms: C7_8  and  O1_9 
REMARK    4  A    between atoms: O1_9  and  C8_10 
ROOT
HETATM    1  C5  UNL     1      21.393   0.748  53.022  1.00  0.00     0.034 A 
HETATM    2  C6  UNL     1      22.564   0.565  52.429  1.00  0.00     0.040 A 
HETATM    3  C7  UNL     1      23.524  -0.234  53.233  1.00  0.00     0.198 A 
HETATM    4  C14 UNL     1      22.698  -0.503  54.443  1.00  0.00     0.047 A 
HETATM    5 CL1  UNL     1      23.490  -1.444  55.666  1.00  0.00    -0.086 Cl
HETATM    6  C15 UNL     1      21.501   0.050  54.320  1.00  0.00     0.051 A 
ENDROOT
BRANCH   1   7
HETATM    7  N1  UNL     1      20.221   1.450  52.582  1.00  0.00    -0.341 N 
HETATM    8  H5  UNL     1      20.157   2.490  52.639  1.00  0.00     0.167 HD
BRANCH   7   9
HETATM    9  C4  UNL     1      19.129   0.708  52.059  1.00  0.00     0.131 A 
HETATM   10  C3  UNL     1      18.407  -0.299  52.659  1.00  0.00     0.077 A 
HETATM   11  C2  UNL     1      17.373  -0.893  51.961  1.00  0.00     0.035 A 
HETATM   12  C1  UNL     1      16.624  -1.975  52.653  1.00  0.00     0.070 C 
HETATM   13  N3  UNL     1      17.094  -0.484  50.728  1.00  0.00    -0.247 NA
HETATM   14  C16 UNL     1      17.801   0.508  50.127  1.00  0.00     0.235 A 
HETATM   15  N2  UNL     1      18.817   1.094  50.808  1.00  0.00    -0.224 NA
ENDBRANCH   7   9
ENDBRANCH   1   7
BRANCH   3  16
HETATM   16  O1  UNL     1      24.717   0.425  53.524  1.00  0.00    -0.336 OA
BRANCH  16  17
HETATM   17  C8  UNL     1      25.987  -0.118  53.490  1.00  0.00     0.073 A 
HETATM   18  C9  UNL     1      26.928   0.728  54.038  1.00  0.00     0.037 A 
HETATM   19  C10 UNL     1      28.271   0.339  54.087  1.00  0.00     0.006 A 
HETATM   20  C11 UNL     1      28.646  -0.893  53.585  1.00  0.00     0.042 A 
HETATM   21  C12 UNL     1      27.696  -1.743  53.034  1.00  0.00     0.119 A 
HETATM   22  F1  UNL     1      28.001  -2.970  52.523  1.00  0.00    -0.206 F 
HETATM   23  C13 UNL     1      26.382  -1.341  52.995  1.00  0.00     0.079 A 
ENDBRANCH  16  17
ENDBRANCH   3  16
TORSDOF 4
ENDMDL
