MODEL 1
REMARK VINA RESULT:      -9.5      0.000      0.000
REMARK  2 active torsions:
REMARK  status: ('A' for Active; 'I' for Inactive)
REMARK    1  A    between atoms: C7_9  and  C8_10 
REMARK    2  A    between atoms: C23_27  and  N3_28 
ROOT
HETATM    1  C8  UNL     1      23.499   2.785  52.166  1.00  0.00     0.098 C 
HETATM    2  C9  UNL     1      22.347   2.611  51.347  1.00  0.00    -0.003 C 
HETATM    3  C10 UNL     1      21.225   3.327  52.084  1.00  0.00     0.153 C 
HETATM    4  N1  UNL     1      21.083   4.701  51.725  1.00  0.00    -0.219 NA
HETATM    5  N2  UNL     1      22.254   5.388  51.380  1.00  0.00    -0.144 N 
HETATM    6  C11 UNL     1      22.544   6.241  50.187  1.00  0.00     0.166 C 
HETATM    7  C12 UNL     1      21.476   6.017  49.153  1.00  0.00     0.061 C 
HETATM    8  C13 UNL     1      20.959   4.614  49.192  1.00  0.00    -0.045 A 
HETATM    9  C14 UNL     1      19.557   4.655  49.108  1.00  0.00     0.008 A 
HETATM   10  C15 UNL     1      18.788   3.535  49.314  1.00  0.00     0.001 A 
HETATM   11  C16 UNL     1      19.382   2.339  49.612  1.00  0.00     0.012 A 
HETATM   12  C17 UNL     1      20.748   2.353  49.680  1.00  0.00    -0.025 A 
HETATM   13  C18 UNL     1      21.389   1.137  50.026  1.00  0.00     0.024 A 
HETATM   14  C19 UNL     1      22.635   1.733  49.950  1.00  0.00    -0.025 A 
HETATM   15  C20 UNL     1      23.793   2.460  49.840  1.00  0.00     0.013 A 
HETATM   16  C21 UNL     1      22.915   3.535  49.533  1.00  0.00     0.013 A 
HETATM   17  C22 UNL     1      21.561   3.453  49.472  1.00  0.00    -0.019 A 
HETATM   18  C23 UNL     1      23.433   5.240  52.257  1.00  0.00     0.711 C 
HETATM   19  N4  UNL     1      23.792   4.089  52.883  1.00  0.00    -0.063 NA
HETATM   20  H8  UNL     1      20.513   5.163  52.446  1.00  0.00     0.147 HD
ENDROOT
BRANCH   1  21
HETATM   21  C7  UNL     1      24.483   1.705  52.359  1.00  0.00     0.038 A 
HETATM   22  C2  UNL     1      24.082   0.496  52.948  1.00  0.00    -0.045 A 
HETATM   23  C1  UNL     1      22.690   0.278  53.423  1.00  0.00     0.049 C 
HETATM   24  C3  UNL     1      25.019  -0.505  53.083  1.00  0.00     0.031 A 
HETATM   25  C4  UNL     1      26.332  -0.395  52.674  1.00  0.00     0.037 A 
HETATM   26 CL1  UNL     1      27.510  -1.690  52.858  1.00  0.00    -0.084 Cl
HETATM   27  C5  UNL     1      26.728   0.802  52.090  1.00  0.00     0.067 A 
HETATM   28  C6  UNL     1      25.784   1.802  51.958  1.00  0.00     0.131 A 
HETATM   29  F1  UNL     1      26.252   2.914  51.363  1.00  0.00    -0.205 F 
ENDBRANCH   1  21
BRANCH  18  30
HETATM   30  N3  UNL     1      24.167   6.478  52.332  1.00  0.00    -0.232 N 
HETATM   31  H19 UNL     1      23.520   7.306  52.290  1.00  0.00     0.174 HD
HETATM   32  H20 UNL     1      25.193   6.605  52.419  1.00  0.00     0.174 HD
ENDBRANCH  18  30
TORSDOF 2
ENDMDL
MODEL 2
REMARK VINA RESULT:      -9.0      1.498      2.252
REMARK  2 active torsions:
REMARK  status: ('A' for Active; 'I' for Inactive)
REMARK    1  A    between atoms: C7_9  and  C8_10 
REMARK    2  A    between atoms: C23_27  and  N3_28 
ROOT
HETATM    1  C8  UNL     1      22.698   2.516  52.237  1.00  0.00     0.098 C 
HETATM    2  C9  UNL     1      21.465   1.933  51.830  1.00  0.00    -0.003 C 
HETATM    3  C10 UNL     1      20.407   2.601  52.695  1.00  0.00     0.153 C 
HETATM    4  N1  UNL     1      19.857   3.787  52.122  1.00  0.00    -0.219 NA
HETATM    5  N2  UNL     1      20.714   4.561  51.328  1.00  0.00    -0.144 N 
HETATM    6  C11 UNL     1      20.504   5.116  49.956  1.00  0.00     0.166 C 
HETATM    7  C12 UNL     1      19.311   4.444  49.334  1.00  0.00     0.061 C 
HETATM    8  C13 UNL     1      19.173   3.029  49.799  1.00  0.00    -0.045 A 
HETATM    9  C14 UNL     1      17.822   2.795  50.108  1.00  0.00     0.008 A 
HETATM   10  C15 UNL     1      17.416   1.646  50.744  1.00  0.00     0.001 A 
HETATM   11  C16 UNL     1      18.334   0.694  51.097  1.00  0.00     0.012 A 
HETATM   12  C17 UNL     1      19.633   0.971  50.772  1.00  0.00    -0.025 A 
HETATM   13  C18 UNL     1      20.612   0.021  51.159  1.00  0.00     0.024 A 
HETATM   14  C19 UNL     1      21.624   0.791  50.615  1.00  0.00    -0.025 A 
HETATM   15  C20 UNL     1      22.513   1.661  50.038  1.00  0.00     0.013 A 
HETATM   16  C21 UNL     1      21.355   2.445  49.782  1.00  0.00     0.013 A 
HETATM   17  C22 UNL     1      20.085   2.108  50.125  1.00  0.00    -0.019 A 
HETATM   18  C23 UNL     1      22.064   4.859  51.847  1.00  0.00     0.711 C 
HETATM   19  N4  UNL     1      22.827   3.992  52.564  1.00  0.00    -0.063 NA
HETATM   20  H8  UNL     1      19.376   4.310  52.866  1.00  0.00     0.147 HD
ENDROOT
BRANCH   1  21
HETATM   21  C7  UNL     1      23.931   1.718  52.357  1.00  0.00     0.038 A 
HETATM   22  C2  UNL     1      25.091   2.122  51.679  1.00  0.00    -0.045 A 
HETATM   23  C1  UNL     1      25.108   3.322  50.801  1.00  0.00     0.049 C 
HETATM   24  C3  UNL     1      26.235   1.372  51.840  1.00  0.00     0.031 A 
HETATM   25  C4  UNL     1      26.315   0.243  52.629  1.00  0.00     0.037 A 
HETATM   26 CL1  UNL     1      27.790  -0.698  52.819  1.00  0.00    -0.084 Cl
HETATM   27  C5  UNL     1      25.166  -0.156  53.303  1.00  0.00     0.067 A 
HETATM   28  C6  UNL     1      24.022   0.600  53.136  1.00  0.00     0.131 A 
HETATM   29  F1  UNL     1      22.968   0.151  53.841  1.00  0.00    -0.205 F 
ENDBRANCH   1  21
BRANCH  18  30
HETATM   30  N3  UNL     1      22.475   6.186  51.461  1.00  0.00    -0.232 N 
HETATM   31  H19 UNL     1      22.817   6.202  50.467  1.00  0.00     0.174 HD
HETATM   32  H20 UNL     1      22.460   7.048  52.036  1.00  0.00     0.174 HD
ENDBRANCH  18  30
TORSDOF 2
ENDMDL
MODEL 3
REMARK VINA RESULT:      -9.0      2.091      2.890
REMARK  2 active torsions:
REMARK  status: ('A' for Active; 'I' for Inactive)
REMARK    1  A    between atoms: C7_9  and  C8_10 
REMARK    2  A    between atoms: C23_27  and  N3_28 
ROOT
HETATM    1  C8  UNL     1      22.024   3.447  51.649  1.00  0.00     0.098 C 
HETATM    2  C9  UNL     1      21.722   3.559  50.262  1.00  0.00    -0.003 C 
HETATM    3  C10 UNL     1      20.969   4.873  50.125  1.00  0.00     0.153 C 
HETATM    4  N1  UNL     1      21.812   5.998  49.874  1.00  0.00    -0.219 NA
HETATM    5  N2  UNL     1      23.089   5.970  50.449  1.00  0.00    -0.144 N 
HETATM    6  C11 UNL     1      24.424   6.218  49.822  1.00  0.00     0.166 C 
HETATM    7  C12 UNL     1      24.275   6.186  48.325  1.00  0.00     0.061 C 
HETATM    8  C13 UNL     1      23.208   5.229  47.900  1.00  0.00    -0.045 A 
HETATM    9  C14 UNL     1      22.426   5.849  46.911  1.00  0.00     0.008 A 
HETATM   10  C15 UNL     1      21.252   5.292  46.464  1.00  0.00     0.001 A 
HETATM   11  C16 UNL     1      20.813   4.104  46.983  1.00  0.00     0.012 A 
HETATM   12  C17 UNL     1      21.611   3.542  47.941  1.00  0.00    -0.025 A 
HETATM   13  C18 UNL     1      21.163   2.331  48.525  1.00  0.00     0.024 A 
HETATM   14  C19 UNL     1      22.277   2.273  49.343  1.00  0.00    -0.025 A 
HETATM   15  C20 UNL     1      23.427   2.355  50.087  1.00  0.00     0.013 A 
HETATM   16  C21 UNL     1      23.635   3.561  49.363  1.00  0.00     0.013 A 
HETATM   17  C22 UNL     1      22.804   4.063  48.414  1.00  0.00    -0.019 A 
HETATM   18  C23 UNL     1      23.205   5.591  51.871  1.00  0.00     0.711 C 
HETATM   19  N4  UNL     1      22.451   4.640  52.483  1.00  0.00    -0.063 NA
HETATM   20  H8  UNL     1      21.274   6.852  50.070  1.00  0.00     0.147 HD
ENDROOT
BRANCH   1  21
HETATM   21  C7  UNL     1      21.946   2.158  52.358  1.00  0.00     0.038 A 
HETATM   22  C2  UNL     1      20.719   1.484  52.445  1.00  0.00    -0.045 A 
HETATM   23  C1  UNL     1      19.470   2.052  51.871  1.00  0.00     0.049 C 
HETATM   24  C3  UNL     1      20.688   0.265  53.086  1.00  0.00     0.031 A 
HETATM   25  C4  UNL     1      21.792  -0.340  53.650  1.00  0.00     0.037 A 
HETATM   26 CL1  UNL     1      21.726  -1.899  54.464  1.00  0.00    -0.084 Cl
HETATM   27  C5  UNL     1      23.009   0.327  53.563  1.00  0.00     0.067 A 
HETATM   28  C6  UNL     1      23.032   1.549  52.919  1.00  0.00     0.131 A 
HETATM   29  F1  UNL     1      24.254   2.110  52.866  1.00  0.00    -0.205 F 
ENDBRANCH   1  21
BRANCH  18  30
HETATM   30  N3  UNL     1      24.251   6.347  52.514  1.00  0.00    -0.232 N 
HETATM   31  H19 UNL     1      24.011   7.370  52.551  1.00  0.00     0.174 HD
HETATM   32  H20 UNL     1      25.142   5.992  52.907  1.00  0.00     0.174 HD
ENDBRANCH  18  30
TORSDOF 2
ENDMDL
MODEL 4
REMARK VINA RESULT:      -8.8      2.363      4.105
REMARK  2 active torsions:
REMARK  status: ('A' for Active; 'I' for Inactive)
REMARK    1  A    between atoms: C7_9  and  C8_10 
REMARK    2  A    between atoms: C23_27  and  N3_28 
ROOT
HETATM    1  C8  UNL     1      22.520   2.181  50.796  1.00  0.00     0.098 C 
HETATM    2  C9  UNL     1      22.921   3.536  50.976  1.00  0.00    -0.003 C 
HETATM    3  C10 UNL     1      23.618   3.918  49.680  1.00  0.00     0.153 C 
HETATM    4  N1  UNL     1      22.744   4.469  48.694  1.00  0.00    -0.219 NA
HETATM    5  N2  UNL     1      21.430   3.985  48.675  1.00  0.00    -0.144 N 
HETATM    6  C11 UNL     1      20.136   4.735  48.658  1.00  0.00     0.166 C 
HETATM    7  C12 UNL     1      20.399   6.173  49.011  1.00  0.00     0.061 C 
HETATM    8  C13 UNL     1      21.540   6.303  49.969  1.00  0.00    -0.045 A 
HETATM    9  C14 UNL     1      22.364   7.356  49.536  1.00  0.00     0.008 A 
HETATM   10  C15 UNL     1      23.594   7.590  50.103  1.00  0.00     0.001 A 
HETATM   11  C16 UNL     1      24.048   6.789  51.115  1.00  0.00     0.012 A 
HETATM   12  C17 UNL     1      23.207   5.782  51.500  1.00  0.00    -0.025 A 
HETATM   13  C18 UNL     1      23.667   4.911  52.521  1.00  0.00     0.024 A 
HETATM   14  C19 UNL     1      22.498   4.174  52.466  1.00  0.00    -0.025 A 
HETATM   15  C20 UNL     1      21.293   3.542  52.293  1.00  0.00     0.013 A 
HETATM   16  C21 UNL     1      21.083   4.531  51.295  1.00  0.00     0.013 A 
HETATM   17  C22 UNL     1      21.959   5.515  50.964  1.00  0.00    -0.019 A 
HETATM   18  C23 UNL     1      21.225   2.524  48.735  1.00  0.00     0.711 C 
HETATM   19  N4  UNL     1      21.975   1.667  49.477  1.00  0.00    -0.063 NA
HETATM   20  H8  UNL     1      23.225   4.438  47.786  1.00  0.00     0.147 HD
ENDROOT
BRANCH   1  21
HETATM   21  C7  UNL     1      22.606   1.195  51.888  1.00  0.00     0.038 A 
HETATM   22  C2  UNL     1      23.848   0.909  52.471  1.00  0.00    -0.045 A 
HETATM   23  C1  UNL     1      25.104   1.546  51.994  1.00  0.00     0.049 C 
HETATM   24  C3  UNL     1      23.887   0.008  53.513  1.00  0.00     0.031 A 
HETATM   25  C4  UNL     1      22.778  -0.634  54.021  1.00  0.00     0.037 A 
HETATM   26 CL1  UNL     1      22.855  -1.782  55.354  1.00  0.00    -0.084 Cl
HETATM   27  C5  UNL     1      21.546  -0.349  53.444  1.00  0.00     0.067 A 
HETATM   28  C6  UNL     1      21.514   0.555  52.400  1.00  0.00     0.131 A 
HETATM   29  F1  UNL     1      20.279   0.783  51.919  1.00  0.00    -0.205 F 
ENDBRANCH   1  21
BRANCH  18  30
HETATM   30  N3  UNL     1      20.098   2.136  47.924  1.00  0.00    -0.232 N 
HETATM   31  H19 UNL     1      20.017   1.089  47.864  1.00  0.00     0.174 HD
HETATM   32  H20 UNL     1      19.423   2.754  47.438  1.00  0.00     0.174 HD
ENDBRANCH  18  30
TORSDOF 2
ENDMDL
MODEL 5
REMARK VINA RESULT:      -8.7      2.876      4.698
REMARK  2 active torsions:
REMARK  status: ('A' for Active; 'I' for Inactive)
REMARK    1  A    between atoms: C7_9  and  C8_10 
REMARK    2  A    between atoms: C23_27  and  N3_28 
ROOT
HETATM    1  C8  UNL     1      21.496   3.698  50.835  1.00  0.00     0.098 C 
HETATM    2  C9  UNL     1      21.289   2.435  51.459  1.00  0.00    -0.003 C 
HETATM    3  C10 UNL     1      20.323   2.710  52.601  1.00  0.00     0.153 C 
HETATM    4  N1  UNL     1      18.948   2.583  52.238  1.00  0.00    -0.219 NA
HETATM    5  N2  UNL     1      18.607   2.928  50.924  1.00  0.00    -0.144 N 
HETATM    6  C11 UNL     1      17.810   2.169  49.913  1.00  0.00     0.166 C 
HETATM    7  C12 UNL     1      17.665   0.744  50.374  1.00  0.00     0.061 C 
HETATM    8  C13 UNL     1      18.861   0.293  51.149  1.00  0.00    -0.045 A 
HETATM    9  C14 UNL     1      18.417  -0.400  52.287  1.00  0.00     0.008 A 
HETATM   10  C15 UNL     1      19.280  -0.767  53.292  1.00  0.00     0.001 A 
HETATM   11  C16 UNL     1      20.610  -0.458  53.202  1.00  0.00     0.012 A 
HETATM   12  C17 UNL     1      20.990   0.214  52.074  1.00  0.00    -0.025 A 
HETATM   13  C18 UNL     1      22.356   0.582  51.971  1.00  0.00     0.024 A 
HETATM   14  C19 UNL     1      22.138   1.181  50.744  1.00  0.00    -0.025 A 
HETATM   15  C20 UNL     1      21.767   1.734  49.545  1.00  0.00     0.013 A 
HETATM   16  C21 UNL     1      20.471   1.268  49.898  1.00  0.00     0.013 A 
HETATM   17  C22 UNL     1      20.159   0.596  51.035  1.00  0.00    -0.019 A 
HETATM   18  C23 UNL     1      19.133   4.196  50.379  1.00  0.00     0.711 C 
HETATM   19  N4  UNL     1      20.370   4.695  50.635  1.00  0.00    -0.063 NA
HETATM   20  H8  UNL     1      18.381   3.044  52.962  1.00  0.00     0.147 HD
ENDROOT
BRANCH   1  21
HETATM   21  C7  UNL     1      22.821   4.111  50.339  1.00  0.00     0.038 A 
HETATM   22  C2  UNL     1      23.913   4.148  51.218  1.00  0.00    -0.045 A 
HETATM   23  C1  UNL     1      23.770   3.818  52.661  1.00  0.00     0.049 C 
HETATM   24  C3  UNL     1      25.144   4.505  50.713  1.00  0.00     0.031 A 
HETATM   25  C4  UNL     1      25.374   4.829  49.393  1.00  0.00     0.037 A 
HETATM   26 CL1  UNL     1      26.958   5.282  48.773  1.00  0.00    -0.084 Cl
HETATM   27  C5  UNL     1      24.291   4.791  48.521  1.00  0.00     0.067 A 
HETATM   28  C6  UNL     1      23.060   4.433  49.033  1.00  0.00     0.131 A 
HETATM   29  F1  UNL     1      22.078   4.403  48.114  1.00  0.00    -0.205 F 
ENDBRANCH   1  21
BRANCH  18  30
HETATM   30  N3  UNL     1      18.162   4.816  49.511  1.00  0.00    -0.232 N 
HETATM   31  H19 UNL     1      18.377   4.620  48.501  1.00  0.00     0.174 HD
HETATM   32  H20 UNL     1      17.341   5.388  49.782  1.00  0.00     0.174 HD
ENDBRANCH  18  30
TORSDOF 2
ENDMDL
MODEL 6
REMARK VINA RESULT:      -8.7      2.006      3.862
REMARK  2 active torsions:
REMARK  status: ('A' for Active; 'I' for Inactive)
REMARK    1  A    between atoms: C7_9  and  C8_10 
REMARK    2  A    between atoms: C23_27  and  N3_28 
ROOT
HETATM    1  C8  UNL     1      23.539   2.994  50.204  1.00  0.00     0.098 C 
HETATM    2  C9  UNL     1      23.415   4.409  50.299  1.00  0.00    -0.003 C 
HETATM    3  C10 UNL     1      23.320   4.896  48.862  1.00  0.00     0.153 C 
HETATM    4  N1  UNL     1      21.984   4.967  48.363  1.00  0.00    -0.219 NA
HETATM    5  N2  UNL     1      21.077   4.017  48.850  1.00  0.00    -0.144 N 
HETATM    6  C11 UNL     1      19.707   4.208  49.418  1.00  0.00     0.166 C 
HETATM    7  C12 UNL     1      19.507   5.665  49.733  1.00  0.00     0.061 C 
HETATM    8  C13 UNL     1      20.787   6.319  50.145  1.00  0.00    -0.045 A 
HETATM    9  C14 UNL     1      20.883   7.556  49.488  1.00  0.00     0.008 A 
HETATM   10  C15 UNL     1      22.039   8.300  49.515  1.00  0.00     0.001 A 
HETATM   11  C16 UNL     1      23.136   7.842  50.193  1.00  0.00     0.012 A 
HETATM   12  C17 UNL     1      22.988   6.634  50.817  1.00  0.00    -0.025 A 
HETATM   13  C18 UNL     1      24.119   6.115  51.495  1.00  0.00     0.024 A 
HETATM   14  C19 UNL     1      23.418   4.984  51.872  1.00  0.00    -0.025 A 
HETATM   15  C20 UNL     1      22.597   3.925  52.165  1.00  0.00     0.013 A 
HETATM   16  C21 UNL     1      21.634   4.651  51.413  1.00  0.00     0.013 A 
HETATM   17  C22 UNL     1      21.843   5.856  50.823  1.00  0.00    -0.019 A 
HETATM   18  C23 UNL     1      21.502   2.603  48.886  1.00  0.00     0.711 C 
HETATM   19  N4  UNL     1      22.756   2.179  49.192  1.00  0.00    -0.063 NA
HETATM   20  H8  UNL     1      22.028   5.030  47.337  1.00  0.00     0.147 HD
ENDROOT
BRANCH   1  21
HETATM   21  C7  UNL     1      24.435   2.232  51.093  1.00  0.00     0.038 A 
HETATM   22  C2  UNL     1      25.815   2.481  51.069  1.00  0.00    -0.045 A 
HETATM   23  C1  UNL     1      26.418   3.472  50.138  1.00  0.00     0.049 C 
HETATM   24  C3  UNL     1      26.620   1.775  51.936  1.00  0.00     0.031 A 
HETATM   25  C4  UNL     1      26.154   0.836  52.833  1.00  0.00     0.037 A 
HETATM   26 CL1  UNL     1      27.204  -0.052  53.932  1.00  0.00    -0.084 Cl
HETATM   27  C5  UNL     1      24.785   0.592  52.858  1.00  0.00     0.067 A 
HETATM   28  C6  UNL     1      23.984   1.302  51.985  1.00  0.00     0.131 A 
HETATM   29  F1  UNL     1      22.675   1.014  52.095  1.00  0.00    -0.205 F 
ENDBRANCH   1  21
BRANCH  18  30
HETATM   30  N3  UNL     1      20.394   1.733  48.582  1.00  0.00    -0.232 N 
HETATM   31  H19 UNL     1      19.765   1.614  49.417  1.00  0.00     0.174 HD
HETATM   32  H20 UNL     1      20.186   1.257  47.685  1.00  0.00     0.174 HD
ENDBRANCH  18  30
TORSDOF 2
ENDMDL
MODEL 7
REMARK VINA RESULT:      -8.7      3.062      5.103
REMARK  2 active torsions:
REMARK  status: ('A' for Active; 'I' for Inactive)
REMARK    1  A    between atoms: C7_9  and  C8_10 
REMARK    2  A    between atoms: C23_27  and  N3_28 
ROOT
HETATM    1  C8  UNL     1      22.012   2.836  51.713  1.00  0.00     0.098 C 
HETATM    2  C9  UNL     1      22.488   3.756  50.736  1.00  0.00    -0.003 C 
HETATM    3  C10 UNL     1      23.253   4.809  51.522  1.00  0.00     0.153 C 
HETATM    4  N1  UNL     1      24.638   4.511  51.692  1.00  0.00    -0.219 NA
HETATM    5  N2  UNL     1      24.984   3.158  51.800  1.00  0.00    -0.144 N 
HETATM    6  C11 UNL     1      26.031   2.378  51.071  1.00  0.00     0.166 C 
HETATM    7  C12 UNL     1      26.504   3.179  49.889  1.00  0.00     0.061 C 
HETATM    8  C13 UNL     1      25.406   4.023  49.323  1.00  0.00    -0.045 A 
HETATM    9  C14 UNL     1      25.921   5.304  49.064  1.00  0.00     0.008 A 
HETATM   10  C15 UNL     1      25.103   6.354  48.721  1.00  0.00     0.001 A 
HETATM   11  C16 UNL     1      23.750   6.171  48.627  1.00  0.00     0.012 A 
HETATM   12  C17 UNL     1      23.302   4.906  48.887  1.00  0.00    -0.025 A 
HETATM   13  C18 UNL     1      21.901   4.694  48.836  1.00  0.00     0.024 A 
HETATM   14  C19 UNL     1      22.056   3.360  49.167  1.00  0.00    -0.025 A 
HETATM   15  C20 UNL     1      22.367   2.067  49.504  1.00  0.00     0.013 A 
HETATM   16  C21 UNL     1      23.706   2.544  49.504  1.00  0.00     0.013 A 
HETATM   17  C22 UNL     1      24.088   3.818  49.227  1.00  0.00    -0.019 A 
HETATM   18  C23 UNL     1      24.194   2.308  52.714  1.00  0.00     0.711 C 
HETATM   19  N4  UNL     1      22.853   2.413  52.903  1.00  0.00    -0.063 NA
HETATM   20  H8  UNL     1      25.005   5.107  52.446  1.00  0.00     0.147 HD
ENDROOT
BRANCH   1  21
HETATM   21  C7  UNL     1      20.671   2.232  51.622  1.00  0.00     0.038 A 
HETATM   22  C2  UNL     1      20.528   0.840  51.709  1.00  0.00    -0.045 A 
HETATM   23  C1  UNL     1      21.701  -0.062  51.854  1.00  0.00     0.049 C 
HETATM   24  C3  UNL     1      19.257   0.311  51.654  1.00  0.00     0.031 A 
HETATM   25  C4  UNL     1      18.110   1.065  51.518  1.00  0.00     0.037 A 
HETATM   26 CL1  UNL     1      16.497   0.364  51.451  1.00  0.00    -0.084 Cl
HETATM   27  C5  UNL     1      18.253   2.446  51.434  1.00  0.00     0.067 A 
HETATM   28  C6  UNL     1      19.530   2.970  51.489  1.00  0.00     0.131 A 
HETATM   29  F1  UNL     1      19.567   4.312  51.420  1.00  0.00    -0.205 F 
ENDBRANCH   1  21
BRANCH  18  30
HETATM   30  N3  UNL     1      25.038   1.330  53.353  1.00  0.00    -0.232 N 
HETATM   31  H19 UNL     1      25.166   1.549  54.374  1.00  0.00     0.174 HD
HETATM   32  H20 UNL     1      25.489   0.501  52.924  1.00  0.00     0.174 HD
ENDBRANCH  18  30
TORSDOF 2
ENDMDL
MODEL 8
REMARK VINA RESULT:      -8.6      2.934      4.876
REMARK  2 active torsions:
REMARK  status: ('A' for Active; 'I' for Inactive)
REMARK    1  A    between atoms: C7_9  and  C8_10 
REMARK    2  A    between atoms: C23_27  and  N3_28 
ROOT
HETATM    1  C8  UNL     1      21.847   3.875  50.177  1.00  0.00     0.098 C 
HETATM    2  C9  UNL     1      23.251   3.977  49.961  1.00  0.00    -0.003 C 
HETATM    3  C10 UNL     1      23.396   4.519  48.547  1.00  0.00     0.153 C 
HETATM    4  N1  UNL     1      23.438   5.944  48.477  1.00  0.00    -0.219 NA
HETATM    5  N2  UNL     1      22.690   6.646  49.430  1.00  0.00    -0.144 N 
HETATM    6  C11 UNL     1      23.098   7.773  50.324  1.00  0.00     0.166 C 
HETATM    7  C12 UNL     1      24.598   7.879  50.324  1.00  0.00     0.061 C 
HETATM    8  C13 UNL     1      25.244   6.540  50.157  1.00  0.00    -0.045 A 
HETATM    9  C14 UNL     1      26.286   6.664  49.223  1.00  0.00     0.008 A 
HETATM   10  C15 UNL     1      26.937   5.564  48.718  1.00  0.00     0.001 A 
HETATM   11  C16 UNL     1      26.576   4.306  49.120  1.00  0.00     0.012 A 
HETATM   12  C17 UNL     1      25.559   4.242  50.031  1.00  0.00    -0.025 A 
HETATM   13  C18 UNL     1      25.137   2.951  50.437  1.00  0.00     0.024 A 
HETATM   14  C19 UNL     1      24.174   3.490  51.271  1.00  0.00    -0.025 A 
HETATM   15  C20 UNL     1      23.268   4.169  52.046  1.00  0.00     0.013 A 
HETATM   16  C21 UNL     1      23.863   5.325  51.470  1.00  0.00     0.013 A 
HETATM   17  C22 UNL     1      24.881   5.321  50.572  1.00  0.00    -0.019 A 
HETATM   18  C23 UNL     1      21.298   6.218  49.676  1.00  0.00     0.711 C 
HETATM   19  N4  UNL     1      20.874   4.927  49.679  1.00  0.00    -0.063 NA
HETATM   20  H8  UNL     1      23.259   6.222  47.503  1.00  0.00     0.147 HD
ENDROOT
BRANCH   1  21
HETATM   21  C7  UNL     1      21.254   2.741  50.907  1.00  0.00     0.038 A 
HETATM   22  C2  UNL     1      21.297   1.455  50.349  1.00  0.00    -0.045 A 
HETATM   23  C1  UNL     1      21.894   1.201  49.010  1.00  0.00     0.049 C 
HETATM   24  C3  UNL     1      20.764   0.412  51.073  1.00  0.00     0.031 A 
HETATM   25  C4  UNL     1      20.189   0.550  52.319  1.00  0.00     0.037 A 
HETATM   26 CL1  UNL     1      19.515  -0.801  53.224  1.00  0.00    -0.084 Cl
HETATM   27  C5  UNL     1      20.148   1.824  52.873  1.00  0.00     0.067 A 
HETATM   28  C6  UNL     1      20.684   2.866  52.141  1.00  0.00     0.131 A 
HETATM   29  F1  UNL     1      20.618   4.056  52.765  1.00  0.00    -0.205 F 
ENDBRANCH   1  21
BRANCH  18  30
HETATM   30  N3  UNL     1      20.457   7.358  49.943  1.00  0.00    -0.232 N 
HETATM   31  H19 UNL     1      20.619   7.729  50.913  1.00  0.00     0.174 HD
HETATM   32  H20 UNL     1      19.767   7.801  49.309  1.00  0.00     0.174 HD
ENDBRANCH  18  30
TORSDOF 2
ENDMDL
MODEL 9
REMARK VINA RESULT:      -8.5      3.172      6.040
REMARK  2 active torsions:
REMARK  status: ('A' for Active; 'I' for Inactive)
REMARK    1  A    between atoms: C7_9  and  C8_10 
REMARK    2  A    between atoms: C23_27  and  N3_28 
ROOT
HETATM    1  C8  UNL     1      22.955   5.107  50.250  1.00  0.00     0.098 C 
HETATM    2  C9  UNL     1      23.849   4.140  50.792  1.00  0.00    -0.003 C 
HETATM    3  C10 UNL     1      23.687   4.253  52.300  1.00  0.00     0.153 C 
HETATM    4  N1  UNL     1      22.680   3.396  52.838  1.00  0.00    -0.219 NA
HETATM    5  N2  UNL     1      21.569   3.139  52.025  1.00  0.00    -0.144 N 
HETATM    6  C11 UNL     1      20.933   1.835  51.660  1.00  0.00     0.166 C 
HETATM    7  C12 UNL     1      21.868   0.716  52.026  1.00  0.00     0.061 C 
HETATM    8  C13 UNL     1      23.299   1.127  51.886  1.00  0.00    -0.045 A 
HETATM    9  C14 UNL     1      24.002   0.675  53.016  1.00  0.00     0.008 A 
HETATM   10  C15 UNL     1      25.295   1.068  53.266  1.00  0.00     0.001 A 
HETATM   11  C16 UNL     1      25.933   1.922  52.408  1.00  0.00     0.012 A 
HETATM   12  C17 UNL     1      25.205   2.330  51.324  1.00  0.00    -0.025 A 
HETATM   13  C18 UNL     1      25.826   3.245  50.437  1.00  0.00     0.024 A 
HETATM   14  C19 UNL     1      24.701   3.282  49.633  1.00  0.00    -0.025 A 
HETATM   15  C20 UNL     1      23.518   3.217  48.942  1.00  0.00     0.013 A 
HETATM   16  C21 UNL     1      23.130   2.326  49.979  1.00  0.00     0.013 A 
HETATM   17  C22 UNL     1      23.906   1.954  51.028  1.00  0.00    -0.019 A 
HETATM   18  C23 UNL     1      20.919   4.282  51.352  1.00  0.00     0.711 C 
HETATM   19  N4  UNL     1      21.576   5.352  50.835  1.00  0.00    -0.063 NA
HETATM   20  H8  UNL     1      22.449   3.727  53.784  1.00  0.00     0.147 HD
ENDROOT
BRANCH   1  21
HETATM   21  C7  UNL     1      23.314   5.925  49.078  1.00  0.00     0.038 A 
HETATM   22  C2  UNL     1      24.438   6.762  49.133  1.00  0.00    -0.045 A 
HETATM   23  C1  UNL     1      25.268   6.883  50.361  1.00  0.00     0.049 C 
HETATM   24  C3  UNL     1      24.766   7.488  48.008  1.00  0.00     0.031 A 
HETATM   25  C4  UNL     1      24.056   7.443  46.826  1.00  0.00     0.037 A 
HETATM   26 CL1  UNL     1      24.497   8.381  45.403  1.00  0.00    -0.084 Cl
HETATM   27  C5  UNL     1      22.944   6.612  46.772  1.00  0.00     0.067 A 
HETATM   28  C6  UNL     1      22.620   5.888  47.903  1.00  0.00     0.131 A 
HETATM   29  F1  UNL     1      21.543   5.097  47.750  1.00  0.00    -0.205 F 
ENDBRANCH   1  21
BRANCH  18  30
HETATM   30  N3  UNL     1      19.491   4.089  51.291  1.00  0.00    -0.232 N 
HETATM   31  H19 UNL     1      19.126   4.264  50.321  1.00  0.00     0.174 HD
HETATM   32  H20 UNL     1      18.854   3.815  52.061  1.00  0.00     0.174 HD
ENDBRANCH  18  30
TORSDOF 2
ENDMDL
