MODEL 1
REMARK VINA RESULT:      -9.0      0.000      0.000
REMARK  1 active torsions:
REMARK  status: ('A' for Active; 'I' for Inactive)
REMARK    1  A    between atoms: C5_9  and  C6_10 
ROOT
HETATM    1 BR1  UNL     1      19.503   1.356  51.046  1.00  0.00    -0.051 Br
HETATM    2  C1  UNL     1      20.316   0.288  52.420  1.00  0.00     0.041 A 
HETATM    3  C2  UNL     1      21.630   0.353  52.538  1.00  0.00     0.102 A 
HETATM    4  O1  UNL     1      22.227   1.207  51.621  1.00  0.00    -0.288 OA
HETATM    5  C3  UNL     1      23.597   1.502  51.545  1.00  0.00     0.200 A 
HETATM    6  N1  UNL     1      23.848   2.564  50.723  1.00  0.00    -0.215 NA
HETATM    7  C4  UNL     1      25.132   2.951  50.562  1.00  0.00     0.236 A 
HETATM    8  N2  UNL     1      26.183   2.338  51.177  1.00  0.00    -0.239 NA
HETATM    9  C5  UNL     1      25.974   1.273  52.007  1.00  0.00     0.099 A 
HETATM   10  C12 UNL     1      24.662   0.856  52.187  1.00  0.00     0.112 A 
HETATM   11  N3  UNL     1      24.611  -0.265  53.060  1.00  0.00    -0.380 N 
HETATM   12  C13 UNL     1      23.603  -0.648  54.004  1.00  0.00     0.163 C 
HETATM   13  C14 UNL     1      22.224  -0.463  53.585  1.00  0.00     0.009 A 
HETATM   14  C15 UNL     1      21.472  -1.233  54.378  1.00  0.00     0.095 A 
HETATM   15  N4  UNL     1      20.058  -1.289  54.236  1.00  0.00    -0.393 N 
HETATM   16  C16 UNL     1      19.367  -0.515  53.226  1.00  0.00     0.168 A 
HETATM   17  H7  UNL     1      25.496  -0.840  52.908  1.00  0.00     0.160 HD
HETATM   18  H11 UNL     1      19.475  -1.891  54.859  1.00  0.00     0.159 HD
ENDROOT
BRANCH   9  19
HETATM   19  C6  UNL     1      27.123   0.648  52.644  1.00  0.00    -0.005 A 
HETATM   20  C7  UNL     1      27.873   1.612  53.328  1.00  0.00     0.014 A 
HETATM   21  C8  UNL     1      29.020   1.268  54.034  1.00  0.00     0.001 A 
HETATM   22  C9  UNL     1      29.444  -0.044  54.074  1.00  0.00     0.000 A 
HETATM   23  C10 UNL     1      28.698  -0.982  53.398  1.00  0.00     0.001 A 
HETATM   24  C11 UNL     1      27.559  -0.672  52.690  1.00  0.00     0.014 A 
ENDBRANCH   9  19
TORSDOF 1
ENDMDL
MODEL 2
REMARK VINA RESULT:      -8.6      2.715      5.157
REMARK  1 active torsions:
REMARK  status: ('A' for Active; 'I' for Inactive)
REMARK    1  A    between atoms: C5_9  and  C6_10 
ROOT
HETATM    1 BR1  UNL     1      22.578  -0.747  53.653  1.00  0.00    -0.051 Br
HETATM    2  C1  UNL     1      24.403  -0.158  53.755  1.00  0.00     0.041 A 
HETATM    3  C2  UNL     1      24.775   0.803  52.927  1.00  0.00     0.102 A 
HETATM    4  O1  UNL     1      23.755   1.241  52.094  1.00  0.00    -0.288 OA
HETATM    5  C3  UNL     1      23.853   2.277  51.152  1.00  0.00     0.200 A 
HETATM    6  N1  UNL     1      22.630   2.653  50.675  1.00  0.00    -0.215 NA
HETATM    7  C4  UNL     1      22.584   3.644  49.758  1.00  0.00     0.236 A 
HETATM    8  N2  UNL     1      23.693   4.283  49.288  1.00  0.00    -0.239 NA
HETATM    9  C5  UNL     1      24.934   3.937  49.741  1.00  0.00     0.099 A 
HETATM   10  C12 UNL     1      25.006   2.920  50.684  1.00  0.00     0.112 A 
HETATM   11  N3  UNL     1      26.359   2.666  51.041  1.00  0.00    -0.380 N 
HETATM   12  C13 UNL     1      26.913   2.240  52.293  1.00  0.00     0.163 C 
HETATM   13  C14 UNL     1      26.160   1.234  53.022  1.00  0.00     0.009 A 
HETATM   14  C15 UNL     1      27.002   0.681  53.900  1.00  0.00     0.095 A 
HETATM   15  N4  UNL     1      26.583  -0.352  54.783  1.00  0.00    -0.393 N 
HETATM   16  C16 UNL     1      25.225  -0.853  54.772  1.00  0.00     0.168 A 
HETATM   17  H7  UNL     1      26.965   2.845  50.182  1.00  0.00     0.160 HD
HETATM   18  H11 UNL     1      27.245  -0.779  55.468  1.00  0.00     0.159 HD
ENDROOT
BRANCH   9  19
HETATM   19  C6  UNL     1      26.093   4.645  49.216  1.00  0.00    -0.005 A 
HETATM   20  C7  UNL     1      25.767   5.986  48.982  1.00  0.00     0.014 A 
HETATM   21  C8  UNL     1      26.708   6.883  48.489  1.00  0.00     0.001 A 
HETATM   22  C9  UNL     1      27.993   6.462  48.219  1.00  0.00     0.000 A 
HETATM   23  C10 UNL     1      28.300   5.142  48.453  1.00  0.00     0.001 A 
HETATM   24  C11 UNL     1      27.391   4.230  48.940  1.00  0.00     0.014 A 
ENDBRANCH   9  19
TORSDOF 1
ENDMDL
MODEL 3
REMARK VINA RESULT:      -8.5      2.022      4.620
REMARK  1 active torsions:
REMARK  status: ('A' for Active; 'I' for Inactive)
REMARK    1  A    between atoms: C5_9  and  C6_10 
ROOT
HETATM    1 BR1  UNL     1      21.407   4.554  50.893  1.00  0.00    -0.051 Br
HETATM    2  C1  UNL     1      23.250   4.479  50.357  1.00  0.00     0.041 A 
HETATM    3  C2  UNL     1      23.999   3.534  50.898  1.00  0.00     0.102 A 
HETATM    4  O1  UNL     1      23.311   2.727  51.793  1.00  0.00    -0.288 OA
HETATM    5  C3  UNL     1      23.842   1.622  52.477  1.00  0.00     0.200 A 
HETATM    6  N1  UNL     1      22.868   0.875  53.077  1.00  0.00    -0.215 NA
HETATM    7  C4  UNL     1      23.247  -0.220  53.772  1.00  0.00     0.236 A 
HETATM    8  N2  UNL     1      24.546  -0.613  53.902  1.00  0.00    -0.239 NA
HETATM    9  C5  UNL     1      25.548   0.107  53.316  1.00  0.00     0.099 A 
HETATM   10  C12 UNL     1      25.183   1.237  52.598  1.00  0.00     0.112 A 
HETATM   11  N3  UNL     1      26.333   1.883  52.066  1.00  0.00    -0.380 N 
HETATM   12  C13 UNL     1      26.490   2.620  50.847  1.00  0.00     0.163 C 
HETATM   13  C14 UNL     1      25.391   3.496  50.477  1.00  0.00     0.009 A 
HETATM   14  C15 UNL     1      25.874   4.373  49.593  1.00  0.00     0.095 A 
HETATM   15  N4  UNL     1      25.053   5.382  49.021  1.00  0.00    -0.393 N 
HETATM   16  C16 UNL     1      23.653   5.508  49.371  1.00  0.00     0.168 A 
HETATM   17  H7  UNL     1      27.137   1.740  52.752  1.00  0.00     0.160 HD
HETATM   18  H11 UNL     1      25.435   6.064  48.330  1.00  0.00     0.159 HD
ENDROOT
BRANCH   9  19
HETATM   19  C6  UNL     1      26.922  -0.348  53.478  1.00  0.00    -0.005 A 
HETATM   20  C7  UNL     1      27.117  -1.538  52.767  1.00  0.00     0.014 A 
HETATM   21  C8  UNL     1      28.354  -2.174  52.750  1.00  0.00     0.001 A 
HETATM   22  C9  UNL     1      29.420  -1.637  53.440  1.00  0.00     0.000 A 
HETATM   23  C10 UNL     1      29.215  -0.468  54.134  1.00  0.00     0.001 A 
HETATM   24  C11 UNL     1      28.004   0.185  54.171  1.00  0.00     0.014 A 
ENDBRANCH   9  19
TORSDOF 1
ENDMDL
MODEL 4
REMARK VINA RESULT:      -8.0      2.508      5.252
REMARK  1 active torsions:
REMARK  status: ('A' for Active; 'I' for Inactive)
REMARK    1  A    between atoms: C5_9  and  C6_10 
ROOT
HETATM    1 BR1  UNL     1      22.014   6.320  49.747  1.00  0.00    -0.051 Br
HETATM    2  C1  UNL     1      23.858   5.878  49.438  1.00  0.00     0.041 A 
HETATM    3  C2  UNL     1      24.338   4.816  50.060  1.00  0.00     0.102 A 
HETATM    4  O1  UNL     1      23.403   4.175  50.861  1.00  0.00    -0.288 OA
HETATM    5  C3  UNL     1      23.623   3.001  51.600  1.00  0.00     0.200 A 
HETATM    6  N1  UNL     1      22.457   2.469  52.074  1.00  0.00    -0.215 NA
HETATM    7  C4  UNL     1      22.529   1.335  52.803  1.00  0.00     0.236 A 
HETATM    8  N2  UNL     1      23.701   0.699  53.088  1.00  0.00    -0.239 NA
HETATM    9  C5  UNL     1      24.888   1.200  52.631  1.00  0.00     0.099 A 
HETATM   10  C12 UNL     1      24.839   2.366  51.880  1.00  0.00     0.112 A 
HETATM   11  N3  UNL     1      26.148   2.765  51.494  1.00  0.00    -0.380 N 
HETATM   12  C13 UNL     1      26.590   3.436  50.307  1.00  0.00     0.163 C 
HETATM   13  C14 UNL     1      25.735   4.500  49.811  1.00  0.00     0.009 A 
HETATM   14  C15 UNL     1      26.483   5.250  48.996  1.00  0.00     0.095 A 
HETATM   15  N4  UNL     1      25.949   6.389  48.334  1.00  0.00    -0.393 N 
HETATM   16  C16 UNL     1      24.570   6.791  48.512  1.00  0.00     0.168 A 
HETATM   17  H7  UNL     1      26.820   2.482  52.272  1.00  0.00     0.160 HD
HETATM   18  H11 UNL     1      26.537   6.971  47.698  1.00  0.00     0.159 HD
ENDROOT
BRANCH   9  19
HETATM   19  C6  UNL     1      26.117   0.490  52.956  1.00  0.00    -0.005 A 
HETATM   20  C7  UNL     1      26.682   1.022  54.122  1.00  0.00     0.014 A 
HETATM   21  C8  UNL     1      27.859   0.509  54.653  1.00  0.00     0.001 A 
HETATM   22  C9  UNL     1      28.498  -0.545  54.035  1.00  0.00     0.000 A 
HETATM   23  C10 UNL     1      27.933  -1.059  52.891  1.00  0.00     0.001 A 
HETATM   24  C11 UNL     1      26.769  -0.573  52.341  1.00  0.00     0.014 A 
ENDBRANCH   9  19
TORSDOF 1
ENDMDL
MODEL 5
REMARK VINA RESULT:      -7.9      2.453      6.694
REMARK  1 active torsions:
REMARK  status: ('A' for Active; 'I' for Inactive)
REMARK    1  A    between atoms: C5_9  and  C6_10 
ROOT
HETATM    1 BR1  UNL     1      26.791   2.100  52.012  1.00  0.00    -0.051 Br
HETATM    2  C1  UNL     1      25.937   0.866  53.211  1.00  0.00     0.041 A 
HETATM    3  C2  UNL     1      24.661   0.599  52.995  1.00  0.00     0.102 A 
HETATM    4  O1  UNL     1      24.130   1.276  51.906  1.00  0.00    -0.288 OA
HETATM    5  C3  UNL     1      22.819   1.150  51.422  1.00  0.00     0.200 A 
HETATM    6  N1  UNL     1      22.667   1.733  50.196  1.00  0.00    -0.215 NA
HETATM    7  C4  UNL     1      21.449   1.682  49.616  1.00  0.00     0.236 A 
HETATM    8  N2  UNL     1      20.368   1.082  50.192  1.00  0.00    -0.239 NA
HETATM    9  C5  UNL     1      20.479   0.488  51.417  1.00  0.00     0.099 A 
HETATM   10  C12 UNL     1      21.722   0.528  52.033  1.00  0.00     0.112 A 
HETATM   11  N3  UNL     1      21.672  -0.115  53.300  1.00  0.00    -0.380 N 
HETATM   12  C13 UNL     1      22.682  -0.861  53.992  1.00  0.00     0.163 C 
HETATM   13  C14 UNL     1      24.036  -0.338  53.914  1.00  0.00     0.009 A 
HETATM   14  C15 UNL     1      24.723  -0.892  54.918  1.00  0.00     0.095 A 
HETATM   15  N4  UNL     1      26.096  -0.593  55.133  1.00  0.00    -0.393 N 
HETATM   16  C16 UNL     1      26.814   0.326  54.276  1.00  0.00     0.168 A 
HETATM   17  H7  UNL     1      20.701   0.044  53.711  1.00  0.00     0.160 HD
HETATM   18  H11 UNL     1      26.628  -1.030  55.918  1.00  0.00     0.159 HD
ENDROOT
BRANCH   9  19
HETATM   19  C6  UNL     1      19.302  -0.143  51.997  1.00  0.00    -0.005 A 
HETATM   20  C7  UNL     1      18.195   0.053  51.161  1.00  0.00     0.014 A 
HETATM   21  C8  UNL     1      16.946  -0.465  51.484  1.00  0.00     0.001 A 
HETATM   22  C9  UNL     1      16.774  -1.188  52.646  1.00  0.00     0.000 A 
HETATM   23  C10 UNL     1      17.868  -1.373  53.457  1.00  0.00     0.001 A 
HETATM   24  C11 UNL     1      19.117  -0.874  53.165  1.00  0.00     0.014 A 
ENDBRANCH   9  19
TORSDOF 1
ENDMDL
MODEL 6
REMARK VINA RESULT:      -7.9      2.531      7.187
REMARK  1 active torsions:
REMARK  status: ('A' for Active; 'I' for Inactive)
REMARK    1  A    between atoms: C5_9  and  C6_10 
ROOT
HETATM    1 BR1  UNL     1      27.531  -0.018  54.582  1.00  0.00    -0.051 Br
HETATM    2  C1  UNL     1      26.722   1.128  53.270  1.00  0.00     0.041 A 
HETATM    3  C2  UNL     1      25.431   0.968  53.042  1.00  0.00     0.102 A 
HETATM    4  O1  UNL     1      24.853  -0.033  53.809  1.00  0.00    -0.288 OA
HETATM    5  C3  UNL     1      23.495  -0.389  53.807  1.00  0.00     0.200 A 
HETATM    6  N1  UNL     1      23.181  -1.219  54.845  1.00  0.00    -0.215 NA
HETATM    7  C4  UNL     1      21.902  -1.637  54.958  1.00  0.00     0.236 A 
HETATM    8  N2  UNL     1      20.914  -1.274  54.091  1.00  0.00    -0.239 NA
HETATM    9  C5  UNL     1      21.188  -0.444  53.040  1.00  0.00     0.099 A 
HETATM   10  C12 UNL     1      22.497  -0.002  52.903  1.00  0.00     0.112 A 
HETATM   11  N3  UNL     1      22.624   0.835  51.761  1.00  0.00    -0.380 N 
HETATM   12  C13 UNL     1      23.483   1.961  51.539  1.00  0.00     0.163 C 
HETATM   13  C14 UNL     1      24.840   1.846  52.045  1.00  0.00     0.009 A 
HETATM   14  C15 UNL     1      25.572   2.761  51.402  1.00  0.00     0.095 A 
HETATM   15  N4  UNL     1      26.961   2.919  51.662  1.00  0.00    -0.393 N 
HETATM   16  C16 UNL     1      27.647   2.096  52.635  1.00  0.00     0.168 A 
HETATM   17  H7  UNL     1      21.940   0.486  51.021  1.00  0.00     0.160 HD
HETATM   18  H11 UNL     1      27.528   3.635  51.157  1.00  0.00     0.159 HD
ENDROOT
BRANCH   9  19
HETATM   19  C6  UNL     1      20.106  -0.078  52.138  1.00  0.00    -0.005 A 
HETATM   20  C7  UNL     1      18.882  -0.519  52.657  1.00  0.00     0.014 A 
HETATM   21  C8  UNL     1      17.687  -0.282  51.989  1.00  0.00     0.001 A 
HETATM   22  C9  UNL     1      17.685   0.398  50.789  1.00  0.00     0.000 A 
HETATM   23  C10 UNL     1      18.893   0.826  50.290  1.00  0.00     0.001 A 
HETATM   24  C11 UNL     1      20.093   0.608  50.928  1.00  0.00     0.014 A 
ENDBRANCH   9  19
TORSDOF 1
ENDMDL
MODEL 7
REMARK VINA RESULT:      -7.7      3.360      6.262
REMARK  1 active torsions:
REMARK  status: ('A' for Active; 'I' for Inactive)
REMARK    1  A    between atoms: C5_9  and  C6_10 
ROOT
HETATM    1 BR1  UNL     1      29.051   1.824  53.827  1.00  0.00    -0.051 Br
HETATM    2  C1  UNL     1      27.348   0.942  53.937  1.00  0.00     0.041 A 
HETATM    3  C2  UNL     1      26.418   1.315  53.075  1.00  0.00     0.102 A 
HETATM    4  O1  UNL     1      26.836   2.314  52.207  1.00  0.00    -0.288 OA
HETATM    5  C3  UNL     1      26.074   2.867  51.166  1.00  0.00     0.200 A 
HETATM    6  N1  UNL     1      26.834   3.632  50.327  1.00  0.00    -0.215 NA
HETATM    7  C4  UNL     1      26.220   4.224  49.279  1.00  0.00     0.236 A 
HETATM    8  N2  UNL     1      24.888   4.097  49.020  1.00  0.00    -0.239 NA
HETATM    9  C5  UNL     1      24.095   3.339  49.836  1.00  0.00     0.099 A 
HETATM   10  C12 UNL     1      24.703   2.722  50.919  1.00  0.00     0.112 A 
HETATM   11  N3  UNL     1      23.749   1.988  51.676  1.00  0.00    -0.380 N 
HETATM   12  C13 UNL     1      23.905   0.772  52.419  1.00  0.00     0.163 C 
HETATM   13  C14 UNL     1      25.137   0.634  53.177  1.00  0.00     0.009 A 
HETATM   14  C15 UNL     1      24.924  -0.314  54.094  1.00  0.00     0.095 A 
HETATM   15  N4  UNL     1      25.938  -0.702  55.012  1.00  0.00    -0.393 N 
HETATM   16  C16 UNL     1      27.249  -0.088  54.997  1.00  0.00     0.168 A 
HETATM   17  H7  UNL     1      22.817   2.504  51.618  1.00  0.00     0.160 HD
HETATM   18  H11 UNL     1      25.766  -1.444  55.726  1.00  0.00     0.159 HD
ENDROOT
BRANCH   9  19
HETATM   19  C6  UNL     1      22.677   3.227  49.523  1.00  0.00    -0.005 A 
HETATM   20  C7  UNL     1      22.464   2.151  48.653  1.00  0.00     0.014 A 
HETATM   21  C8  UNL     1      21.188   1.822  48.211  1.00  0.00     0.001 A 
HETATM   22  C9  UNL     1      20.097   2.558  48.626  1.00  0.00     0.000 A 
HETATM   23  C10 UNL     1      20.321   3.612  49.481  1.00  0.00     0.001 A 
HETATM   24  C11 UNL     1      21.571   3.962  49.937  1.00  0.00     0.014 A 
ENDBRANCH   9  19
TORSDOF 1
ENDMDL
MODEL 8
REMARK VINA RESULT:      -7.3      3.507      6.276
REMARK  1 active torsions:
REMARK  status: ('A' for Active; 'I' for Inactive)
REMARK    1  A    between atoms: C5_9  and  C6_10 
ROOT
HETATM    1 BR1  UNL     1      27.173  -0.334  52.669  1.00  0.00    -0.051 Br
HETATM    2  C1  UNL     1      25.345   0.224  52.861  1.00  0.00     0.041 A 
HETATM    3  C2  UNL     1      24.982   1.330  52.237  1.00  0.00     0.102 A 
HETATM    4  O1  UNL     1      26.012   1.927  51.524  1.00  0.00    -0.288 OA
HETATM    5  C3  UNL     1      25.902   3.082  50.734  1.00  0.00     0.200 A 
HETATM    6  N1  UNL     1      27.006   3.276  49.953  1.00  0.00    -0.215 NA
HETATM    7  C4  UNL     1      27.027   4.357  49.144  1.00  0.00     0.236 A 
HETATM    8  N2  UNL     1      26.007   5.258  49.068  1.00  0.00    -0.239 NA
HETATM    9  C5  UNL     1      24.886   5.098  49.832  1.00  0.00     0.099 A 
HETATM   10  C12 UNL     1      24.841   3.995  50.673  1.00  0.00     0.112 A 
HETATM   11  N3  UNL     1      23.625   3.978  51.409  1.00  0.00    -0.380 N 
HETATM   12  C13 UNL     1      22.849   2.866  51.874  1.00  0.00     0.163 C 
HETATM   13  C14 UNL     1      23.594   1.733  52.397  1.00  0.00     0.009 A 
HETATM   14  C15 UNL     1      22.742   1.017  53.136  1.00  0.00     0.095 A 
HETATM   15  N4  UNL     1      23.152  -0.172  53.800  1.00  0.00    -0.393 N 
HETATM   16  C16 UNL     1      24.510  -0.662  53.707  1.00  0.00     0.168 A 
HETATM   17  H7  UNL     1      23.337   4.988  51.593  1.00  0.00     0.160 HD
HETATM   18  H11 UNL     1      22.482  -0.728  54.376  1.00  0.00     0.159 HD
ENDROOT
BRANCH   9  19
HETATM   19  C6  UNL     1      23.818   6.082  49.721  1.00  0.00    -0.005 A 
HETATM   20  C7  UNL     1      23.031   5.806  48.596  1.00  0.00     0.014 A 
HETATM   21  C8  UNL     1      21.933   6.596  48.272  1.00  0.00     0.001 A 
HETATM   22  C9  UNL     1      21.597   7.675  49.062  1.00  0.00     0.000 A 
HETATM   23  C10 UNL     1      22.378   7.935  50.163  1.00  0.00     0.001 A 
HETATM   24  C11 UNL     1      23.470   7.173  50.510  1.00  0.00     0.014 A 
ENDBRANCH   9  19
TORSDOF 1
ENDMDL
MODEL 9
REMARK VINA RESULT:      -7.3      3.612      6.135
REMARK  1 active torsions:
REMARK  status: ('A' for Active; 'I' for Inactive)
REMARK    1  A    between atoms: C5_9  and  C6_10 
ROOT
HETATM    1 BR1  UNL     1      21.564   6.829  47.912  1.00  0.00    -0.051 Br
HETATM    2  C1  UNL     1      22.562   6.655  49.544  1.00  0.00     0.041 A 
HETATM    3  C2  UNL     1      22.585   5.463  50.114  1.00  0.00     0.102 A 
HETATM    4  O1  UNL     1      21.861   4.504  49.421  1.00  0.00    -0.288 OA
HETATM    5  C3  UNL     1      21.749   3.149  49.771  1.00  0.00     0.200 A 
HETATM    6  N1  UNL     1      21.196   2.405  48.767  1.00  0.00    -0.215 NA
HETATM    7  C4  UNL     1      21.032   1.081  48.976  1.00  0.00     0.236 A 
HETATM    8  N2  UNL     1      21.389   0.454  50.133  1.00  0.00    -0.239 NA
HETATM    9  C5  UNL     1      21.945   1.163  51.160  1.00  0.00     0.099 A 
HETATM   10  C12 UNL     1      22.123   2.527  50.968  1.00  0.00     0.112 A 
HETATM   11  N3  UNL     1      22.695   3.122  52.126  1.00  0.00    -0.380 N 
HETATM   12  C13 UNL     1      23.595   4.233  52.237  1.00  0.00     0.163 C 
HETATM   13  C14 UNL     1      23.347   5.355  51.348  1.00  0.00     0.009 A 
HETATM   14  C15 UNL     1      23.985   6.409  51.867  1.00  0.00     0.095 A 
HETATM   15  N4  UNL     1      23.949   7.683  51.238  1.00  0.00    -0.393 N 
HETATM   16  C16 UNL     1      23.220   7.900  50.006  1.00  0.00     0.168 A 
HETATM   17  H7  UNL     1      22.335   2.594  52.979  1.00  0.00     0.160 HD
HETATM   18  H11 UNL     1      24.450   8.503  51.647  1.00  0.00     0.159 HD
ENDROOT
BRANCH   9  19
HETATM   19  C6  UNL     1      22.314   0.456  52.378  1.00  0.00    -0.005 A 
HETATM   20  C7  UNL     1      21.161   0.081  53.079  1.00  0.00     0.014 A 
HETATM   21  C8  UNL     1      21.241  -0.621  54.276  1.00  0.00     0.001 A 
HETATM   22  C9  UNL     1      22.470  -0.965  54.799  1.00  0.00     0.000 A 
HETATM   23  C10 UNL     1      23.594  -0.590  54.101  1.00  0.00     0.001 A 
HETATM   24  C11 UNL     1      23.548   0.105  52.914  1.00  0.00     0.014 A 
ENDBRANCH   9  19
TORSDOF 1
ENDMDL
