MODEL 1
REMARK VINA RESULT:      -7.6      0.000      0.000
REMARK  0 active torsions:
REMARK  status: ('A' for Active; 'I' for Inactive)
ROOT
HETATM    1 BR1  UNL     1      21.595   1.564  48.891  1.00  0.00    -0.085 Br
HETATM    2  C1  UNL     1      23.010   2.872  48.670  1.00  0.00     0.108 C 
HETATM    3  C2  UNL     1      22.467   4.265  48.567  1.00  0.00    -0.011 C 
HETATM    4  C3  UNL     1      22.196   4.879  49.738  1.00  0.00     0.006 C 
HETATM    5  C4  UNL     1      22.494   4.039  50.937  1.00  0.00     0.253 C 
HETATM    6  C5  UNL     1      22.243   4.854  52.168  1.00  0.00     0.070 C 
HETATM    7  C6  UNL     1      23.593   5.121  52.822  1.00  0.00     0.278 C 
HETATM    8  N1  UNL     1      24.139   3.835  53.208  1.00  0.00     0.151 N 
HETATM    9  C7  UNL     1      24.091   2.878  52.121  1.00  0.00     0.475 C 
HETATM   10  N2  UNL     1      22.982   1.980  52.399  1.00  0.00    -0.209 NA
HETATM   11  C8  UNL     1      23.027   0.893  53.067  1.00  0.00     0.234 C 
HETATM   12  N3  UNL     1      23.280  -0.246  53.818  1.00  0.00    -0.231 NA
HETATM   13  C9  UNL     1      24.403  -0.804  54.123  1.00  0.00     0.253 C 
HETATM   14  O1  UNL     1      25.820  -0.657  53.939  1.00  0.00    -0.332 OA
HETATM   15  C10 UNL     1      26.029   0.194  52.918  1.00  0.00     0.176 C 
HETATM   16  C11 UNL     1      27.256   0.863  52.539  1.00  0.00     0.010 C 
HETATM   17  C12 UNL     1      26.719   1.733  51.625  1.00  0.00     0.012 C 
HETATM   18  C13 UNL     1      25.397   2.132  52.192  1.00  0.00     0.034 C 
HETATM   19  C14 UNL     1      25.320   1.463  53.370  1.00  0.00     0.023 C 
HETATM   20  N4  UNL     1      23.853   3.533  50.884  1.00  0.00     0.165 N 
HETATM   21  C15 UNL     1      24.070   2.748  49.721  1.00  0.00     0.299 C 
HETATM   22  H9  UNL     1      23.659   3.532  54.071  1.00  0.00     0.322 HD
ENDROOT
TORSDOF 0
ENDMDL
MODEL 2
REMARK VINA RESULT:      -7.2      2.168      3.808
REMARK  0 active torsions:
REMARK  status: ('A' for Active; 'I' for Inactive)
ROOT
HETATM    1 BR1  UNL     1      23.427   5.407  51.826  1.00  0.00    -0.085 Br
HETATM    2  C1  UNL     1      21.542   4.975  51.661  1.00  0.00     0.108 C 
HETATM    3  C2  UNL     1      21.015   5.302  50.296  1.00  0.00    -0.011 C 
HETATM    4  C3  UNL     1      21.227   4.368  49.346  1.00  0.00     0.006 C 
HETATM    5  C4  UNL     1      21.960   3.164  49.842  1.00  0.00     0.253 C 
HETATM    6  C5  UNL     1      22.052   2.166  48.729  1.00  0.00     0.070 C 
HETATM    7  C6  UNL     1      21.167   0.983  49.103  1.00  0.00     0.278 C 
HETATM    8  N1  UNL     1      21.723   0.401  50.308  1.00  0.00     0.151 N 
HETATM    9  C7  UNL     1      21.977   1.402  51.324  1.00  0.00     0.475 C 
HETATM   10  N2  UNL     1      23.411   1.645  51.325  1.00  0.00    -0.209 NA
HETATM   11  C8  UNL     1      24.290   1.029  52.017  1.00  0.00     0.234 C 
HETATM   12  N3  UNL     1      25.086   0.250  52.845  1.00  0.00    -0.231 NA
HETATM   13  C9  UNL     1      24.754  -0.517  53.828  1.00  0.00     0.253 C 
HETATM   14  O1  UNL     1      23.607  -0.978  54.561  1.00  0.00    -0.332 OA
HETATM   15  C10 UNL     1      22.575  -0.157  54.292  1.00  0.00     0.176 C 
HETATM   16  C11 UNL     1      21.168  -0.360  54.563  1.00  0.00     0.010 C 
HETATM   17  C12 UNL     1      20.683   0.693  53.831  1.00  0.00     0.012 C 
HETATM   18  C13 UNL     1      21.555   0.766  52.621  1.00  0.00     0.034 C 
HETATM   19  C14 UNL     1      22.435  -0.255  52.780  1.00  0.00     0.023 C 
HETATM   20  N4  UNL     1      21.307   2.614  51.016  1.00  0.00     0.165 N 
HETATM   21  C15 UNL     1      21.242   3.566  52.068  1.00  0.00     0.299 C 
HETATM   22  H9  UNL     1      22.547  -0.161  50.039  1.00  0.00     0.322 HD
ENDROOT
TORSDOF 0
ENDMDL
MODEL 3
REMARK VINA RESULT:      -7.1      2.694      5.363
REMARK  0 active torsions:
REMARK  status: ('A' for Active; 'I' for Inactive)
ROOT
HETATM    1 BR1  UNL     1      27.844   2.095  53.689  1.00  0.00    -0.085 Br
HETATM    2  C1  UNL     1      27.409   0.758  52.351  1.00  0.00     0.108 C 
HETATM    3  C2  UNL     1      27.263  -0.606  52.956  1.00  0.00    -0.011 C 
HETATM    4  C3  UNL     1      26.060  -0.880  53.501  1.00  0.00     0.006 C 
HETATM    5  C4  UNL     1      25.084   0.246  53.398  1.00  0.00     0.253 C 
HETATM    6  C5  UNL     1      23.767  -0.208  53.950  1.00  0.00     0.070 C 
HETATM    7  C6  UNL     1      22.793  -0.306  52.782  1.00  0.00     0.278 C 
HETATM    8  N1  UNL     1      22.645   1.030  52.240  1.00  0.00     0.151 N 
HETATM    9  C7  UNL     1      23.926   1.662  51.999  1.00  0.00     0.475 C 
HETATM   10  N2  UNL     1      24.134   2.614  53.078  1.00  0.00    -0.209 NA
HETATM   11  C8  UNL     1      23.776   3.840  53.096  1.00  0.00     0.234 C 
HETATM   12  N3  UNL     1      23.310   5.136  52.924  1.00  0.00    -0.231 NA
HETATM   13  C9  UNL     1      22.925   5.741  51.852  1.00  0.00     0.253 C 
HETATM   14  O1  UNL     1      22.756   5.534  50.440  1.00  0.00    -0.332 OA
HETATM   15  C10 UNL     1      23.453   4.439  50.086  1.00  0.00     0.176 C 
HETATM   16  C11 UNL     1      23.374   3.678  48.856  1.00  0.00     0.010 C 
HETATM   17  C12 UNL     1      24.125   2.602  49.253  1.00  0.00     0.012 C 
HETATM   18  C13 UNL     1      23.772   2.384  50.688  1.00  0.00     0.034 C 
HETATM   19  C14 UNL     1      22.852   3.345  50.958  1.00  0.00     0.023 C 
HETATM   20  N4  UNL     1      24.972   0.704  52.024  1.00  0.00     0.165 N 
HETATM   21  C15 UNL     1      26.225   1.146  51.522  1.00  0.00     0.299 C 
HETATM   22  H9  UNL     1      22.013   1.558  52.864  1.00  0.00     0.322 HD
ENDROOT
TORSDOF 0
ENDMDL
MODEL 4
REMARK VINA RESULT:      -6.9      3.111      5.239
REMARK  0 active torsions:
REMARK  status: ('A' for Active; 'I' for Inactive)
ROOT
HETATM    1 BR1  UNL     1      22.313   1.910  47.730  1.00  0.00    -0.085 Br
HETATM    2  C1  UNL     1      21.249   2.426  49.268  1.00  0.00     0.108 C 
HETATM    3  C2  UNL     1      21.017   1.271  50.195  1.00  0.00    -0.011 C 
HETATM    4  C3  UNL     1      22.010   1.014  51.072  1.00  0.00     0.006 C 
HETATM    5  C4  UNL     1      23.172   1.945  50.951  1.00  0.00     0.253 C 
HETATM    6  C5  UNL     1      24.160   1.621  52.030  1.00  0.00     0.070 C 
HETATM    7  C6  UNL     1      24.159   2.785  53.014  1.00  0.00     0.278 C 
HETATM    8  N1  UNL     1      24.614   3.954  52.289  1.00  0.00     0.151 N 
HETATM    9  C7  UNL     1      23.903   4.126  51.038  1.00  0.00     0.475 C 
HETATM   10  N2  UNL     1      24.799   3.684  49.982  1.00  0.00    -0.209 NA
HETATM   11  C8  UNL     1      25.647   4.399  49.350  1.00  0.00     0.234 C 
HETATM   12  N3  UNL     1      26.502   5.334  48.783  1.00  0.00    -0.231 NA
HETATM   13  C9  UNL     1      26.484   6.622  48.853  1.00  0.00     0.253 C 
HETATM   14  O1  UNL     1      25.741   7.708  49.431  1.00  0.00    -0.332 OA
HETATM   15  C10 UNL     1      24.541   7.241  49.820  1.00  0.00     0.176 C 
HETATM   16  C11 UNL     1      23.567   7.870  50.687  1.00  0.00     0.010 C 
HETATM   17  C12 UNL     1      22.742   6.788  50.857  1.00  0.00     0.012 C 
HETATM   18  C13 UNL     1      23.653   5.606  50.925  1.00  0.00     0.034 C 
HETATM   19  C14 UNL     1      24.898   6.133  50.800  1.00  0.00     0.023 C 
HETATM   20  N4  UNL     1      22.731   3.327  51.011  1.00  0.00     0.165 N 
HETATM   21  C15 UNL     1      21.809   3.622  49.973  1.00  0.00     0.299 C 
HETATM   22  H9  UNL     1      25.641   3.891  52.198  1.00  0.00     0.322 HD
ENDROOT
TORSDOF 0
ENDMDL
MODEL 5
REMARK VINA RESULT:      -6.8      2.811      5.493
REMARK  0 active torsions:
REMARK  status: ('A' for Active; 'I' for Inactive)
ROOT
HETATM    1 BR1  UNL     1      25.854   2.269  53.725  1.00  0.00    -0.085 Br
HETATM    2  C1  UNL     1      25.441   0.843  52.475  1.00  0.00     0.108 C 
HETATM    3  C2  UNL     1      24.995  -0.401  53.181  1.00  0.00    -0.011 C 
HETATM    4  C3  UNL     1      23.693  -0.443  53.531  1.00  0.00     0.006 C 
HETATM    5  C4  UNL     1      22.928   0.780  53.141  1.00  0.00     0.253 C 
HETATM    6  C5  UNL     1      21.486   0.578  53.496  1.00  0.00     0.070 C 
HETATM    7  C6  UNL     1      20.708   0.463  52.190  1.00  0.00     0.278 C 
HETATM    8  N1  UNL     1      20.853   1.726  51.497  1.00  0.00     0.151 N 
HETATM    9  C7  UNL     1      22.238   2.148  51.423  1.00  0.00     0.475 C 
HETATM   10  N2  UNL     1      22.413   3.193  52.418  1.00  0.00    -0.209 NA
HETATM   11  C8  UNL     1      22.247   4.448  52.247  1.00  0.00     0.234 C 
HETATM   12  N3  UNL     1      22.016   5.761  51.864  1.00  0.00    -0.231 NA
HETATM   13  C9  UNL     1      21.905   6.272  50.684  1.00  0.00     0.253 C 
HETATM   14  O1  UNL     1      21.934   5.912  49.293  1.00  0.00    -0.332 OA
HETATM   15  C10 UNL     1      22.504   4.698  49.182  1.00  0.00     0.176 C 
HETATM   16  C11 UNL     1      22.509   3.805  48.042  1.00  0.00     0.010 C 
HETATM   17  C12 UNL     1      23.014   2.698  48.674  1.00  0.00     0.012 C 
HETATM   18  C13 UNL     1      22.407   2.712  50.038  1.00  0.00     0.034 C 
HETATM   19  C14 UNL     1      21.612   3.813  50.041  1.00  0.00     0.023 C 
HETATM   20  N4  UNL     1      23.109   1.071  51.730  1.00  0.00     0.165 N 
HETATM   21  C15 UNL     1      24.478   1.276  51.414  1.00  0.00     0.299 C 
HETATM   22  H9  UNL     1      20.218   2.408  51.942  1.00  0.00     0.322 HD
ENDROOT
TORSDOF 0
ENDMDL
MODEL 6
REMARK VINA RESULT:      -6.7      3.882      5.835
REMARK  0 active torsions:
REMARK  status: ('A' for Active; 'I' for Inactive)
ROOT
HETATM    1 BR1  UNL     1      24.377   3.437  53.497  1.00  0.00    -0.085 Br
HETATM    2  C1  UNL     1      24.993   2.320  52.035  1.00  0.00     0.108 C 
HETATM    3  C2  UNL     1      23.989   1.266  51.680  1.00  0.00    -0.011 C 
HETATM    4  C3  UNL     1      22.996   1.656  50.854  1.00  0.00     0.006 C 
HETATM    5  C4  UNL     1      23.087   3.090  50.442  1.00  0.00     0.253 C 
HETATM    6  C5  UNL     1      21.993   3.377  49.460  1.00  0.00     0.070 C 
HETATM    7  C6  UNL     1      22.649   3.618  48.105  1.00  0.00     0.278 C 
HETATM    8  N1  UNL     1      23.486   4.793  48.241  1.00  0.00     0.151 N 
HETATM    9  C7  UNL     1      24.347   4.713  49.403  1.00  0.00     0.475 C 
HETATM   10  N2  UNL     1      23.761   5.571  50.420  1.00  0.00    -0.209 NA
HETATM   11  C8  UNL     1      23.995   6.814  50.600  1.00  0.00     0.234 C 
HETATM   12  N3  UNL     1      24.380   8.146  50.633  1.00  0.00    -0.231 NA
HETATM   13  C9  UNL     1      25.376   8.734  50.062  1.00  0.00     0.253 C 
HETATM   14  O1  UNL     1      26.500   8.471  49.205  1.00  0.00    -0.332 OA
HETATM   15  C10 UNL     1      26.722   7.144  49.194  1.00  0.00     0.176 C 
HETATM   16  C11 UNL     1      27.547   6.375  48.285  1.00  0.00     0.010 C 
HETATM   17  C12 UNL     1      27.131   5.126  48.667  1.00  0.00     0.012 C 
HETATM   18  C13 UNL     1      25.672   5.267  48.953  1.00  0.00     0.034 C 
HETATM   19  C14 UNL     1      25.403   6.572  48.695  1.00  0.00     0.023 C 
HETATM   20  N4  UNL     1      24.401   3.385  49.899  1.00  0.00     0.165 N 
HETATM   21  C15 UNL     1      25.425   3.123  50.847  1.00  0.00     0.299 C 
HETATM   22  H9  UNL     1      22.873   5.624  48.213  1.00  0.00     0.322 HD
ENDROOT
TORSDOF 0
ENDMDL
MODEL 7
REMARK VINA RESULT:      -6.6      3.770      5.485
REMARK  0 active torsions:
REMARK  status: ('A' for Active; 'I' for Inactive)
ROOT
HETATM    1 BR1  UNL     1      21.298   2.418  52.300  1.00  0.00    -0.085 Br
HETATM    2  C1  UNL     1      22.333   1.466  50.963  1.00  0.00     0.108 C 
HETATM    3  C2  UNL     1      21.457   0.651  50.060  1.00  0.00    -0.011 C 
HETATM    4  C3  UNL     1      20.894   1.316  49.031  1.00  0.00     0.006 C 
HETATM    5  C4  UNL     1      21.256   2.765  48.984  1.00  0.00     0.253 C 
HETATM    6  C5  UNL     1      20.651   3.372  47.755  1.00  0.00     0.070 C 
HETATM    7  C6  UNL     1      21.794   3.720  46.809  1.00  0.00     0.278 C 
HETATM    8  N1  UNL     1      22.609   4.715  47.476  1.00  0.00     0.151 N 
HETATM    9  C7  UNL     1      22.948   4.319  48.828  1.00  0.00     0.475 C 
HETATM   10  N2  UNL     1      22.091   5.084  49.718  1.00  0.00    -0.209 NA
HETATM   11  C8  UNL     1      22.341   6.231  50.221  1.00  0.00     0.234 C 
HETATM   12  N3  UNL     1      22.793   7.466  50.664  1.00  0.00    -0.231 NA
HETATM   13  C9  UNL     1      23.977   7.976  50.626  1.00  0.00     0.253 C 
HETATM   14  O1  UNL     1      25.317   7.681  50.198  1.00  0.00    -0.332 OA
HETATM   15  C10 UNL     1      25.416   6.355  49.995  1.00  0.00     0.176 C 
HETATM   16  C11 UNL     1      26.458   5.622  49.308  1.00  0.00     0.010 C 
HETATM   17  C12 UNL     1      25.826   4.407  49.249  1.00  0.00     0.012 C 
HETATM   18  C13 UNL     1      24.386   4.725  49.011  1.00  0.00     0.034 C 
HETATM   19  C14 UNL     1      24.347   6.080  48.947  1.00  0.00     0.023 C 
HETATM   20  N4  UNL     1      22.697   2.936  49.025  1.00  0.00     0.165 N 
HETATM   21  C15 UNL     1      23.253   2.371  50.203  1.00  0.00     0.299 C 
HETATM   22  H9  UNL     1      22.126   5.624  47.401  1.00  0.00     0.322 HD
ENDROOT
TORSDOF 0
ENDMDL
MODEL 8
REMARK VINA RESULT:      -6.4      2.852      5.412
REMARK  0 active torsions:
REMARK  status: ('A' for Active; 'I' for Inactive)
ROOT
HETATM    1 BR1  UNL     1      24.381   0.214  53.049  1.00  0.00    -0.085 Br
HETATM    2  C1  UNL     1      25.012   1.992  53.504  1.00  0.00     0.108 C 
HETATM    3  C2  UNL     1      26.501   2.103  53.372  1.00  0.00    -0.011 C 
HETATM    4  C3  UNL     1      26.964   2.346  52.129  1.00  0.00     0.006 C 
HETATM    5  C4  UNL     1      25.887   2.462  51.100  1.00  0.00     0.253 C 
HETATM    6  C5  UNL     1      26.513   2.823  49.788  1.00  0.00     0.070 C 
HETATM    7  C6  UNL     1      26.088   4.248  49.457  1.00  0.00     0.278 C 
HETATM    8  N1  UNL     1      24.647   4.238  49.308  1.00  0.00     0.151 N 
HETATM    9  C7  UNL     1      23.992   3.579  50.420  1.00  0.00     0.475 C 
HETATM   10  N2  UNL     1      23.594   2.261  49.952  1.00  0.00    -0.209 NA
HETATM   11  C8  UNL     1      22.488   1.949  49.396  1.00  0.00     0.234 C 
HETATM   12  N3  UNL     1      21.236   1.812  48.813  1.00  0.00    -0.231 NA
HETATM   13  C9  UNL     1      20.225   2.613  48.826  1.00  0.00     0.253 C 
HETATM   14  O1  UNL     1      19.808   3.892  49.331  1.00  0.00    -0.332 OA
HETATM   15  C10 UNL     1      20.658   4.261  50.307  1.00  0.00     0.176 C 
HETATM   16  C11 UNL     1      20.819   5.563  50.917  1.00  0.00     0.010 C 
HETATM   17  C12 UNL     1      21.973   5.303  51.611  1.00  0.00     0.012 C 
HETATM   18  C13 UNL     1      22.777   4.417  50.717  1.00  0.00     0.034 C 
HETATM   19  C14 UNL     1      22.009   4.272  49.607  1.00  0.00     0.023 C 
HETATM   20  N4  UNL     1      24.885   3.429  51.512  1.00  0.00     0.165 N 
HETATM   21  C15 UNL     1      24.290   3.064  52.749  1.00  0.00     0.299 C 
HETATM   22  H9  UNL     1      24.426   3.842  48.380  1.00  0.00     0.322 HD
ENDROOT
TORSDOF 0
ENDMDL
MODEL 9
REMARK VINA RESULT:      -6.4      2.614      3.394
REMARK  0 active torsions:
REMARK  status: ('A' for Active; 'I' for Inactive)
ROOT
HETATM    1 BR1  UNL     1      20.434   5.014  47.312  1.00  0.00    -0.085 Br
HETATM    2  C1  UNL     1      22.373   5.090  47.267  1.00  0.00     0.108 C 
HETATM    3  C2  UNL     1      22.868   6.484  47.024  1.00  0.00    -0.011 C 
HETATM    4  C3  UNL     1      22.945   7.278  48.111  1.00  0.00     0.006 C 
HETATM    5  C4  UNL     1      22.514   6.607  49.375  1.00  0.00     0.253 C 
HETATM    6  C5  UNL     1      22.730   7.551  50.518  1.00  0.00     0.070 C 
HETATM    7  C6  UNL     1      23.863   6.987  51.366  1.00  0.00     0.278 C 
HETATM    8  N1  UNL     1      23.412   5.712  51.884  1.00  0.00     0.151 N 
HETATM    9  C7  UNL     1      22.864   4.867  50.842  1.00  0.00     0.475 C 
HETATM   10  N2  UNL     1      21.417   4.919  50.976  1.00  0.00    -0.209 NA
HETATM   11  C8  UNL     1      20.687   4.149  51.685  1.00  0.00     0.234 C 
HETATM   12  N3  UNL     1      20.072   3.218  52.510  1.00  0.00    -0.231 NA
HETATM   13  C9  UNL     1      20.535   2.123  53.012  1.00  0.00     0.253 C 
HETATM   14  O1  UNL     1      21.723   1.315  53.050  1.00  0.00    -0.332 OA
HETATM   15  C10 UNL     1      22.528   1.698  52.042  1.00  0.00     0.176 C 
HETATM   16  C11 UNL     1      23.926   1.384  51.836  1.00  0.00     0.010 C 
HETATM   17  C12 UNL     1      24.168   2.267  50.815  1.00  0.00     0.012 C 
HETATM   18  C13 UNL     1      23.367   3.482  51.149  1.00  0.00     0.034 C 
HETATM   19  C14 UNL     1      22.764   3.175  52.325  1.00  0.00     0.023 C 
HETATM   20  N4  UNL     1      23.224   5.354  49.559  1.00  0.00     0.165 N 
HETATM   21  C15 UNL     1      22.996   4.464  48.476  1.00  0.00     0.299 C 
HETATM   22  H9  UNL     1      22.770   5.898  52.672  1.00  0.00     0.322 HD
ENDROOT
TORSDOF 0
ENDMDL
