MODEL 1
REMARK VINA RESULT:      -7.6      0.000      0.000
REMARK  7 active torsions:
REMARK  status: ('A' for Active; 'I' for Inactive)
REMARK    1  A    between atoms: C2_2  and  C3_3 
REMARK       I    between atoms: C3_3  and  N1_5 
REMARK    2  A    between atoms: N1_5  and  C4_6 
REMARK    3  A    between atoms: N2_9  and  C7_10 
REMARK    4  A    between atoms: C14_20  and  O2_21 
REMARK    5  A    between atoms: N6_24  and  C17_25 
REMARK    6  A    between atoms: C17_25  and  C18_26 
REMARK    7  A    between atoms: C18_26  and  C20_28 
ROOT
HETATM    1  C4  UNL     1      21.394   0.904  52.557  1.00  0.00     0.119 C 
HETATM    2  C5  UNL     1      20.937   2.149  52.340  1.00  0.00     0.043 C 
HETATM    3  C6  UNL     1      21.604   3.446  52.016  1.00  0.00     0.175 C 
HETATM    4  N2  UNL     1      22.818   3.237  51.259  1.00  0.00    -0.181 N 
HETATM    5  C14 UNL     1      24.146   2.946  51.718  1.00  0.00     0.259 C 
HETATM    6  C16 UNL     1      24.200   2.110  52.973  1.00  0.00     0.197 C 
HETATM    7  N6  UNL     1      24.012   0.742  52.819  1.00  0.00    -0.322 N 
HETATM    8  N7  UNL     1      22.699   0.340  52.560  1.00  0.00    -0.288 N 
HETATM    9  H33 UNL     1      22.650  -0.688  52.287  1.00  0.00     0.188 HD
ENDROOT
BRANCH   4  10
HETATM   10  C7  UNL     1      22.585   3.354  49.863  1.00  0.00     0.744 A 
HETATM   11  N3  UNL     1      22.310   2.203  49.210  1.00  0.00    -0.071 NA
HETATM   12  C8  UNL     1      22.075   2.203  47.872  1.00  0.00     0.168 A 
HETATM   13  C9  UNL     1      22.116   3.388  47.174  1.00  0.00     0.077 A 
HETATM   14  C10 UNL     1      21.911   3.631  45.822  1.00  0.00     0.035 A 
HETATM   15  N4  UNL     1      22.393   4.551  47.838  1.00  0.00    -0.222 N 
HETATM   16  C11 UNL     1      22.080   4.996  45.716  1.00  0.00     0.029 A 
HETATM   17  C12 UNL     1      22.374   5.550  46.946  1.00  0.00     0.033 A 
HETATM   18  C13 UNL     1      22.623   6.974  47.245  1.00  0.00     0.070 C 
HETATM   19  N5  UNL     1      22.613   4.483  49.139  1.00  0.00     0.026 NA
ENDBRANCH   4  10
BRANCH   5  20
HETATM   20  O2  UNL     1      24.957   2.523  50.697  1.00  0.00    -0.369 OA
HETATM   21  C15 UNL     1      26.297   2.839  50.913  1.00  0.00     0.204 C 
ENDBRANCH   5  20
BRANCH   1  22
HETATM   22  N1  UNL     1      20.344  -0.042  52.842  1.00  0.00    -0.312 N 
HETATM   23  C3  UNL     1      20.322  -1.015  53.891  1.00  0.00     0.222 C 
HETATM   24  O1  UNL     1      21.312  -1.051  54.638  1.00  0.00    -0.273 OA
HETATM   25  H6  UNL     1      19.642   0.184  52.092  1.00  0.00     0.170 HD
BRANCH  23  26
HETATM   26  C2  UNL     1      19.047  -1.762  53.794  1.00  0.00     0.099 C 
HETATM   27  C1  UNL     1      18.121  -1.012  52.873  1.00  0.00     0.014 C 
ENDBRANCH  23  26
ENDBRANCH   1  22
BRANCH   7  28
HETATM   28  C17 UNL     1      24.823  -0.222  53.401  1.00  0.00     0.146 C 
BRANCH  28  29
HETATM   29  C18 UNL     1      26.307  -0.152  53.200  1.00  0.00     0.001 C 
HETATM   30  C19 UNL     1      26.857  -1.434  52.636  1.00  0.00     0.011 C 
BRANCH  29  31
HETATM   31  C20 UNL     1      26.902   0.125  54.589  1.00  0.00     0.001 C 
HETATM   32  C21 UNL     1      28.388   0.104  54.613  1.00  0.00     0.005 C 
ENDBRANCH  29  31
ENDBRANCH  28  29
ENDBRANCH   7  28
TORSDOF 7
ENDMDL
MODEL 2
REMARK VINA RESULT:      -7.2      2.474      5.996
REMARK  7 active torsions:
REMARK  status: ('A' for Active; 'I' for Inactive)
REMARK    1  A    between atoms: C2_2  and  C3_3 
REMARK       I    between atoms: C3_3  and  N1_5 
REMARK    2  A    between atoms: N1_5  and  C4_6 
REMARK    3  A    between atoms: N2_9  and  C7_10 
REMARK    4  A    between atoms: C14_20  and  O2_21 
REMARK    5  A    between atoms: N6_24  and  C17_25 
REMARK    6  A    between atoms: C17_25  and  C18_26 
REMARK    7  A    between atoms: C18_26  and  C20_28 
ROOT
HETATM    1  C4  UNL     1      24.073   3.138  50.422  1.00  0.00     0.119 C 
HETATM    2  C5  UNL     1      23.218   2.501  49.604  1.00  0.00     0.043 C 
HETATM    3  C6  UNL     1      22.259   1.372  49.798  1.00  0.00     0.175 C 
HETATM    4  N2  UNL     1      21.745   1.347  51.148  1.00  0.00    -0.181 N 
HETATM    5  C14 UNL     1      22.304   0.757  52.331  1.00  0.00     0.259 C 
HETATM    6  C16 UNL     1      23.813   0.772  52.380  1.00  0.00     0.197 C 
HETATM    7  N6  UNL     1      24.411   1.967  52.759  1.00  0.00    -0.322 N 
HETATM    8  N7  UNL     1      24.392   2.982  51.799  1.00  0.00    -0.288 N 
HETATM    9  H33 UNL     1      24.711   3.913  52.205  1.00  0.00     0.188 HD
ENDROOT
BRANCH   4  10
HETATM   10  C7  UNL     1      20.501   2.024  51.242  1.00  0.00     0.744 A 
HETATM   11  N3  UNL     1      20.563   3.373  51.302  1.00  0.00    -0.071 NA
HETATM   12  C8  UNL     1      19.430   4.117  51.397  1.00  0.00     0.168 A 
HETATM   13  C9  UNL     1      18.206   3.491  51.432  1.00  0.00     0.077 A 
HETATM   14  C10 UNL     1      16.931   4.034  51.524  1.00  0.00     0.035 A 
HETATM   15  N4  UNL     1      18.146   2.125  51.371  1.00  0.00    -0.222 N 
HETATM   16  C11 UNL     1      16.112   2.925  51.515  1.00  0.00     0.029 A 
HETATM   17  C12 UNL     1      16.856   1.766  51.422  1.00  0.00     0.033 A 
HETATM   18  C13 UNL     1      16.349   0.381  51.384  1.00  0.00     0.070 C 
HETATM   19  N5  UNL     1      19.284   1.460  51.280  1.00  0.00     0.026 NA
ENDBRANCH   4  10
BRANCH   5  20
HETATM   20  O2  UNL     1      21.676   1.199  53.467  1.00  0.00    -0.369 OA
HETATM   21  C15 UNL     1      21.347   0.159  54.334  1.00  0.00     0.204 C 
ENDBRANCH   5  20
BRANCH   1  22
HETATM   22  N1  UNL     1      24.807   4.191  49.765  1.00  0.00    -0.312 N 
HETATM   23  C3  UNL     1      26.228   4.295  49.629  1.00  0.00     0.222 C 
HETATM   24  O1  UNL     1      26.904   3.383  50.129  1.00  0.00    -0.273 OA
HETATM   25  H6  UNL     1      24.032   4.821  49.435  1.00  0.00     0.170 HD
BRANCH  23  26
HETATM   26  C2  UNL     1      26.525   5.540  48.883  1.00  0.00     0.099 C 
HETATM   27  C1  UNL     1      27.967   5.505  48.448  1.00  0.00     0.014 C 
ENDBRANCH  23  26
ENDBRANCH   1  22
BRANCH   7  28
HETATM   28  C17 UNL     1      25.427   2.060  53.700  1.00  0.00     0.146 C 
BRANCH  28  29
HETATM   29  C18 UNL     1      26.663   1.228  53.532  1.00  0.00     0.001 C 
HETATM   30  C19 UNL     1      26.893   0.323  54.711  1.00  0.00     0.011 C 
BRANCH  29  31
HETATM   31  C20 UNL     1      27.820   2.228  53.386  1.00  0.00     0.001 C 
HETATM   32  C21 UNL     1      29.081   1.773  54.028  1.00  0.00     0.005 C 
ENDBRANCH  29  31
ENDBRANCH  28  29
ENDBRANCH   7  28
TORSDOF 7
ENDMDL
MODEL 3
REMARK VINA RESULT:      -7.2      3.072      5.714
REMARK  7 active torsions:
REMARK  status: ('A' for Active; 'I' for Inactive)
REMARK    1  A    between atoms: C2_2  and  C3_3 
REMARK       I    between atoms: C3_3  and  N1_5 
REMARK    2  A    between atoms: N1_5  and  C4_6 
REMARK    3  A    between atoms: N2_9  and  C7_10 
REMARK    4  A    between atoms: C14_20  and  O2_21 
REMARK    5  A    between atoms: N6_24  and  C17_25 
REMARK    6  A    between atoms: C17_25  and  C18_26 
REMARK    7  A    between atoms: C18_26  and  C20_28 
ROOT
HETATM    1  C4  UNL     1      26.259   2.062  52.115  1.00  0.00     0.119 C 
HETATM    2  C5  UNL     1      26.810   2.346  50.922  1.00  0.00     0.043 C 
HETATM    3  C6  UNL     1      26.254   2.837  49.626  1.00  0.00     0.175 C 
HETATM    4  N2  UNL     1      25.095   3.676  49.836  1.00  0.00    -0.181 N 
HETATM    5  C14 UNL     1      23.718   3.310  50.011  1.00  0.00     0.259 C 
HETATM    6  C16 UNL     1      23.510   1.997  50.724  1.00  0.00     0.197 C 
HETATM    7  N6  UNL     1      23.624   2.015  52.108  1.00  0.00    -0.322 N 
HETATM    8  N7  UNL     1      24.925   2.123  52.604  1.00  0.00    -0.288 N 
HETATM    9  H33 UNL     1      24.933   2.300  53.653  1.00  0.00     0.188 HD
ENDROOT
BRANCH   4  10
HETATM   10  C7  UNL     1      25.448   5.051  49.861  1.00  0.00     0.744 A 
HETATM   11  N3  UNL     1      24.753   5.826  50.723  1.00  0.00    -0.071 NA
HETATM   12  C8  UNL     1      25.010   7.156  50.822  1.00  0.00     0.168 A 
HETATM   13  C9  UNL     1      25.989   7.721  50.039  1.00  0.00     0.077 A 
HETATM   14  C10 UNL     1      26.422   9.039  49.968  1.00  0.00     0.035 A 
HETATM   15  N4  UNL     1      26.691   6.934  49.167  1.00  0.00    -0.222 N 
HETATM   16  C11 UNL     1      27.416   8.995  49.013  1.00  0.00     0.029 A 
HETATM   17  C12 UNL     1      27.575   7.712  48.529  1.00  0.00     0.033 A 
HETATM   18  C13 UNL     1      28.533   7.259  47.501  1.00  0.00     0.070 C 
HETATM   19  N5  UNL     1      26.393   5.648  49.118  1.00  0.00     0.026 NA
ENDBRANCH   4  10
BRANCH   5  20
HETATM   20  O2  UNL     1      22.968   4.358  50.480  1.00  0.00    -0.369 OA
HETATM   21  C15 UNL     1      21.624   4.253  50.126  1.00  0.00     0.204 C 
ENDBRANCH   5  20
BRANCH   1  22
HETATM   22  N1  UNL     1      27.221   1.606  53.087  1.00  0.00    -0.312 N 
HETATM   23  C3  UNL     1      27.135   0.431  53.900  1.00  0.00     0.222 C 
HETATM   24  O1  UNL     1      26.124  -0.274  53.754  1.00  0.00    -0.273 OA
HETATM   25  H6  UNL     1      27.961   2.351  53.024  1.00  0.00     0.170 HD
BRANCH  23  26
HETATM   26  C2  UNL     1      28.348   0.372  54.747  1.00  0.00     0.099 C 
HETATM   27  C1  UNL     1      29.461  -0.252  53.946  1.00  0.00     0.014 C 
ENDBRANCH  23  26
ENDBRANCH   1  22
BRANCH   7  28
HETATM   28  C17 UNL     1      22.709   1.425  52.969  1.00  0.00     0.146 C 
BRANCH  28  29
HETATM   29  C18 UNL     1      22.194   0.050  52.665  1.00  0.00     0.001 C 
HETATM   30  C19 UNL     1      20.709   0.048  52.426  1.00  0.00     0.011 C 
BRANCH  29  31
HETATM   31  C20 UNL     1      22.546  -0.806  53.891  1.00  0.00     0.001 C 
HETATM   32  C21 UNL     1      21.383  -1.542  54.453  1.00  0.00     0.005 C 
ENDBRANCH  29  31
ENDBRANCH  28  29
ENDBRANCH   7  28
TORSDOF 7
ENDMDL
MODEL 4
REMARK VINA RESULT:      -7.0      2.846      8.557
REMARK  7 active torsions:
REMARK  status: ('A' for Active; 'I' for Inactive)
REMARK    1  A    between atoms: C2_2  and  C3_3 
REMARK       I    between atoms: C3_3  and  N1_5 
REMARK    2  A    between atoms: N1_5  and  C4_6 
REMARK    3  A    between atoms: N2_9  and  C7_10 
REMARK    4  A    between atoms: C14_20  and  O2_21 
REMARK    5  A    between atoms: N6_24  and  C17_25 
REMARK    6  A    between atoms: C17_25  and  C18_26 
REMARK    7  A    between atoms: C18_26  and  C20_28 
ROOT
HETATM    1  C4  UNL     1      24.502   6.694  50.377  1.00  0.00     0.119 C 
HETATM    2  C5  UNL     1      24.115   6.207  51.569  1.00  0.00     0.043 C 
HETATM    3  C6  UNL     1      23.213   5.088  51.977  1.00  0.00     0.175 C 
HETATM    4  N2  UNL     1      23.222   4.023  50.999  1.00  0.00    -0.181 N 
HETATM    5  C14 UNL     1      22.458   3.879  49.793  1.00  0.00     0.259 C 
HETATM    6  C16 UNL     1      22.141   5.180  49.099  1.00  0.00     0.197 C 
HETATM    7  N6  UNL     1      23.153   5.736  48.325  1.00  0.00    -0.322 N 
HETATM    8  N7  UNL     1      24.201   6.325  49.037  1.00  0.00    -0.288 N 
HETATM    9  H33 UNL     1      25.015   6.578  48.400  1.00  0.00     0.188 HD
ENDROOT
BRANCH   4  10
HETATM   10  C7  UNL     1      24.148   3.006  51.350  1.00  0.00     0.744 A 
HETATM   11  N3  UNL     1      25.404   3.155  50.872  1.00  0.00    -0.071 NA
HETATM   12  C8  UNL     1      26.365   2.235  51.146  1.00  0.00     0.168 A 
HETATM   13  C9  UNL     1      26.059   1.141  51.921  1.00  0.00     0.077 A 
HETATM   14  C10 UNL     1      26.865   0.086  52.329  1.00  0.00     0.035 A 
HETATM   15  N4  UNL     1      24.788   0.993  52.404  1.00  0.00    -0.222 N 
HETATM   16  C11 UNL     1      26.011  -0.696  53.077  1.00  0.00     0.029 A 
HETATM   17  C12 UNL     1      24.748  -0.139  53.120  1.00  0.00     0.033 A 
HETATM   18  C13 UNL     1      23.561  -0.673  53.817  1.00  0.00     0.070 C 
HETATM   19  N5  UNL     1      23.899   1.922  52.101  1.00  0.00     0.026 NA
ENDBRANCH   4  10
BRANCH   5  20
HETATM   20  O2  UNL     1      22.960   2.890  48.987  1.00  0.00    -0.369 OA
HETATM   21  C15 UNL     1      21.958   2.108  48.414  1.00  0.00     0.204 C 
ENDBRANCH   5  20
BRANCH   1  22
HETATM   22  N1  UNL     1      25.405   7.812  50.489  1.00  0.00    -0.312 N 
HETATM   23  C3  UNL     1      26.662   7.975  49.825  1.00  0.00     0.222 C 
HETATM   24  O1  UNL     1      27.016   7.056  49.070  1.00  0.00    -0.273 OA
HETATM   25  H6  UNL     1      24.893   8.435  51.165  1.00  0.00     0.170 HD
BRANCH  23  26
HETATM   26  C2  UNL     1      27.235   9.274  50.245  1.00  0.00     0.099 C 
HETATM   27  C1  UNL     1      28.588   9.431  49.602  1.00  0.00     0.014 C 
ENDBRANCH  23  26
ENDBRANCH   1  22
BRANCH   7  28
HETATM   28  C17 UNL     1      22.968   6.216  47.037  1.00  0.00     0.146 C 
BRANCH  28  29
HETATM   29  C18 UNL     1      23.029   7.693  46.786  1.00  0.00     0.001 C 
HETATM   30  C19 UNL     1      21.696   8.246  46.365  1.00  0.00     0.011 C 
BRANCH  29  31
HETATM   31  C20 UNL     1      24.069   7.882  45.671  1.00  0.00     0.001 C 
HETATM   32  C21 UNL     1      25.408   8.289  46.173  1.00  0.00     0.005 C 
ENDBRANCH  29  31
ENDBRANCH  28  29
ENDBRANCH   7  28
TORSDOF 7
ENDMDL
MODEL 5
REMARK VINA RESULT:      -7.0      8.576     11.709
REMARK  7 active torsions:
REMARK  status: ('A' for Active; 'I' for Inactive)
REMARK    1  A    between atoms: C2_2  and  C3_3 
REMARK       I    between atoms: C3_3  and  N1_5 
REMARK    2  A    between atoms: N1_5  and  C4_6 
REMARK    3  A    between atoms: N2_9  and  C7_10 
REMARK    4  A    between atoms: C14_20  and  O2_21 
REMARK    5  A    between atoms: N6_24  and  C17_25 
REMARK    6  A    between atoms: C17_25  and  C18_26 
REMARK    7  A    between atoms: C18_26  and  C20_28 
ROOT
HETATM    1  C4  UNL     1      32.457   5.425  47.940  1.00  0.00     0.119 C 
HETATM    2  C5  UNL     1      32.366   6.084  49.108  1.00  0.00     0.043 C 
HETATM    3  C6  UNL     1      32.288   7.532  49.467  1.00  0.00     0.175 C 
HETATM    4  N2  UNL     1      31.633   8.295  48.428  1.00  0.00    -0.181 N 
HETATM    5  C14 UNL     1      32.177   8.869  47.230  1.00  0.00     0.259 C 
HETATM    6  C16 UNL     1      33.306   8.077  46.619  1.00  0.00     0.197 C 
HETATM    7  N6  UNL     1      32.951   6.968  45.861  1.00  0.00    -0.322 N 
HETATM    8  N7  UNL     1      32.512   5.858  46.587  1.00  0.00    -0.288 N 
HETATM    9  H33 UNL     1      32.100   5.112  45.951  1.00  0.00     0.188 HD
ENDROOT
BRANCH   4  10
HETATM   10  C7  UNL     1      30.249   8.461  48.702  1.00  0.00     0.744 A 
HETATM   11  N3  UNL     1      29.859   9.708  49.049  1.00  0.00    -0.071 NA
HETATM   12  C8  UNL     1      28.557   9.973  49.335  1.00  0.00     0.168 A 
HETATM   13  C9  UNL     1      27.626   8.963  49.268  1.00  0.00     0.077 A 
HETATM   14  C10 UNL     1      26.259   8.996  49.512  1.00  0.00     0.035 A 
HETATM   15  N4  UNL     1      28.025   7.703  48.916  1.00  0.00    -0.222 N 
HETATM   16  C11 UNL     1      25.865   7.694  49.287  1.00  0.00     0.029 A 
HETATM   17  C12 UNL     1      26.944   6.911  48.924  1.00  0.00     0.033 A 
HETATM   18  C13 UNL     1      26.932   5.471  48.603  1.00  0.00     0.070 C 
HETATM   19  N5  UNL     1      29.304   7.510  48.651  1.00  0.00     0.026 NA
ENDBRANCH   4  10
BRANCH   5  20
HETATM   20  O2  UNL     1      31.192   9.256  46.358  1.00  0.00    -0.369 OA
HETATM   21  C15 UNL     1      31.535  10.400  45.639  1.00  0.00     0.204 C 
ENDBRANCH   5  20
BRANCH   1  22
HETATM   22  N1  UNL     1      32.507   3.994  48.101  1.00  0.00    -0.312 N 
HETATM   23  C3  UNL     1      33.616   3.133  47.824  1.00  0.00     0.222 C 
HETATM   24  O1  UNL     1      34.649   3.675  47.399  1.00  0.00    -0.273 OA
HETATM   25  H6  UNL     1      31.541   3.784  48.462  1.00  0.00     0.170 HD
BRANCH  23  26
HETATM   26  C2  UNL     1      33.207   1.745  48.137  1.00  0.00     0.099 C 
HETATM   27  C1  UNL     1      32.446   1.192  46.961  1.00  0.00     0.014 C 
ENDBRANCH  23  26
ENDBRANCH   1  22
BRANCH   7  28
HETATM   28  C17 UNL     1      33.474   6.688  44.607  1.00  0.00     0.146 C 
BRANCH  28  29
HETATM   29  C18 UNL     1      33.337   5.305  44.045  1.00  0.00     0.001 C 
HETATM   30  C19 UNL     1      34.632   4.544  44.108  1.00  0.00     0.011 C 
BRANCH  29  31
HETATM   31  C20 UNL     1      32.890   5.492  42.587  1.00  0.00     0.001 C 
HETATM   32  C21 UNL     1      33.237   4.343  41.709  1.00  0.00     0.005 C 
ENDBRANCH  29  31
ENDBRANCH  28  29
ENDBRANCH   7  28
TORSDOF 7
ENDMDL
MODEL 6
REMARK VINA RESULT:      -6.7      2.273      8.067
REMARK  7 active torsions:
REMARK  status: ('A' for Active; 'I' for Inactive)
REMARK    1  A    between atoms: C2_2  and  C3_3 
REMARK       I    between atoms: C3_3  and  N1_5 
REMARK    2  A    between atoms: N1_5  and  C4_6 
REMARK    3  A    between atoms: N2_9  and  C7_10 
REMARK    4  A    between atoms: C14_20  and  O2_21 
REMARK    5  A    between atoms: N6_24  and  C17_25 
REMARK    6  A    between atoms: C17_25  and  C18_26 
REMARK    7  A    between atoms: C18_26  and  C20_28 
ROOT
HETATM    1  C4  UNL     1      24.005   5.203  49.437  1.00  0.00     0.119 C 
HETATM    2  C5  UNL     1      23.693   5.376  50.732  1.00  0.00     0.043 C 
HETATM    3  C6  UNL     1      22.541   4.941  51.578  1.00  0.00     0.175 C 
HETATM    4  N2  UNL     1      21.990   3.689  51.110  1.00  0.00    -0.181 N 
HETATM    5  C14 UNL     1      21.018   3.441  50.084  1.00  0.00     0.259 C 
HETATM    6  C16 UNL     1      21.068   4.416  48.933  1.00  0.00     0.197 C 
HETATM    7  N6  UNL     1      22.053   4.201  47.977  1.00  0.00    -0.322 N 
HETATM    8  N7  UNL     1      23.353   4.532  48.365  1.00  0.00    -0.288 N 
HETATM    9  H33 UNL     1      24.073   4.190  47.661  1.00  0.00     0.188 HD
ENDROOT
BRANCH   4  10
HETATM   10  C7  UNL     1      22.537   2.586  51.817  1.00  0.00     0.744 A 
HETATM   11  N3  UNL     1      21.690   1.931  52.642  1.00  0.00    -0.071 NA
HETATM   12  C8  UNL     1      22.113   0.864  53.368  1.00  0.00     0.168 A 
HETATM   13  C9  UNL     1      23.418   0.443  53.262  1.00  0.00     0.077 A 
HETATM   14  C10 UNL     1      24.069  -0.608  53.895  1.00  0.00     0.035 A 
HETATM   15  N4  UNL     1      24.274   1.108  52.425  1.00  0.00    -0.222 N 
HETATM   16  C11 UNL     1      25.352  -0.535  53.394  1.00  0.00     0.029 A 
HETATM   17  C12 UNL     1      25.471   0.511  52.500  1.00  0.00     0.033 A 
HETATM   18  C13 UNL     1      26.679   0.914  51.756  1.00  0.00     0.070 C 
HETATM   19  N5  UNL     1      23.800   2.138  51.748  1.00  0.00     0.026 NA
ENDBRANCH   4  10
BRANCH   5  20
HETATM   20  O2  UNL     1      20.977   2.118  49.730  1.00  0.00    -0.369 OA
HETATM   21  C15 UNL     1      19.707   1.715  49.317  1.00  0.00     0.204 C 
ENDBRANCH   5  20
BRANCH   1  22
HETATM   22  N1  UNL     1      25.253   5.823  49.068  1.00  0.00    -0.312 N 
HETATM   23  C3  UNL     1      26.525   5.183  48.927  1.00  0.00     0.222 C 
HETATM   24  O1  UNL     1      26.562   3.962  49.146  1.00  0.00    -0.273 OA
HETATM   25  H6  UNL     1      24.965   6.826  48.940  1.00  0.00     0.170 HD
BRANCH  23  26
HETATM   26  C2  UNL     1      27.515   6.213  48.536  1.00  0.00     0.099 C 
HETATM   27  C1  UNL     1      28.839   5.538  48.293  1.00  0.00     0.014 C 
ENDBRANCH  23  26
ENDBRANCH   1  22
BRANCH   7  28
HETATM   28  C17 UNL     1      21.821   4.218  46.608  1.00  0.00     0.146 C 
BRANCH  28  29
HETATM   29  C18 UNL     1      21.222   5.439  45.979  1.00  0.00     0.001 C 
HETATM   30  C19 UNL     1      19.989   5.111  45.182  1.00  0.00     0.011 C 
BRANCH  29  31
HETATM   31  C20 UNL     1      22.316   6.016  45.068  1.00  0.00     0.001 C 
HETATM   32  C21 UNL     1      22.979   7.223  45.630  1.00  0.00     0.005 C 
ENDBRANCH  29  31
ENDBRANCH  28  29
ENDBRANCH   7  28
TORSDOF 7
ENDMDL
MODEL 7
REMARK VINA RESULT:      -6.6      4.966      8.967
REMARK  7 active torsions:
REMARK  status: ('A' for Active; 'I' for Inactive)
REMARK    1  A    between atoms: C2_2  and  C3_3 
REMARK       I    between atoms: C3_3  and  N1_5 
REMARK    2  A    between atoms: N1_5  and  C4_6 
REMARK    3  A    between atoms: N2_9  and  C7_10 
REMARK    4  A    between atoms: C14_20  and  O2_21 
REMARK    5  A    between atoms: N6_24  and  C17_25 
REMARK    6  A    between atoms: C17_25  and  C18_26 
REMARK    7  A    between atoms: C18_26  and  C20_28 
ROOT
HETATM    1  C4  UNL     1      14.878   0.213  52.650  1.00  0.00     0.119 C 
HETATM    2  C5  UNL     1      15.572  -0.535  51.776  1.00  0.00     0.043 C 
HETATM    3  C6  UNL     1      16.665  -0.232  50.804  1.00  0.00     0.175 C 
HETATM    4  N2  UNL     1      17.492   0.858  51.270  1.00  0.00    -0.181 N 
HETATM    5  C14 UNL     1      17.305   2.275  51.132  1.00  0.00     0.259 C 
HETATM    6  C16 UNL     1      15.862   2.715  51.142  1.00  0.00     0.197 C 
HETATM    7  N6  UNL     1      15.248   2.810  52.384  1.00  0.00    -0.322 N 
HETATM    8  N7  UNL     1      14.923   1.594  52.990  1.00  0.00    -0.288 N 
HETATM    9  H33 UNL     1      14.614   1.728  54.000  1.00  0.00     0.188 HD
ENDROOT
BRANCH   4  10
HETATM   10  C7  UNL     1      18.641   0.382  51.954  1.00  0.00     0.744 A 
HETATM   11  N3  UNL     1      18.413  -0.496  52.956  1.00  0.00    -0.071 NA
HETATM   12  C8  UNL     1      19.444  -1.010  53.677  1.00  0.00     0.168 A 
HETATM   13  C9  UNL     1      20.734  -0.634  53.384  1.00  0.00     0.077 A 
HETATM   14  C10 UNL     1      21.930  -1.022  53.974  1.00  0.00     0.035 A 
HETATM   15  N4  UNL     1      20.962   0.254  52.368  1.00  0.00    -0.222 N 
HETATM   16  C11 UNL     1      22.878  -0.321  53.260  1.00  0.00     0.029 A 
HETATM   17  C12 UNL     1      22.284   0.454  52.284  1.00  0.00     0.033 A 
HETATM   18  C13 UNL     1      22.958   1.344  51.319  1.00  0.00     0.070 C 
HETATM   19  N5  UNL     1      19.917   0.717  51.706  1.00  0.00     0.026 NA
ENDBRANCH   4  10
BRANCH   5  20
HETATM   20  O2  UNL     1      18.140   2.982  51.959  1.00  0.00    -0.369 OA
HETATM   21  C15 UNL     1      18.792   4.021  51.298  1.00  0.00     0.204 C 
ENDBRANCH   5  20
BRANCH   1  22
HETATM   22  N1  UNL     1      13.897  -0.542  53.388  1.00  0.00    -0.312 N 
HETATM   23  C3  UNL     1      12.474  -0.413  53.311  1.00  0.00     0.222 C 
HETATM   24  O1  UNL     1      12.034   0.439  52.523  1.00  0.00    -0.273 OA
HETATM   25  H6  UNL     1      14.504  -1.177  53.966  1.00  0.00     0.170 HD
BRANCH  23  26
HETATM   26  C2  UNL     1      11.875  -1.391  54.248  1.00  0.00     0.099 C 
HETATM   27  C1  UNL     1      11.743  -0.740  55.600  1.00  0.00     0.014 C 
ENDBRANCH  23  26
ENDBRANCH   1  22
BRANCH   7  28
HETATM   28  C17 UNL     1      14.488   3.897  52.791  1.00  0.00     0.146 C 
BRANCH  28  29
HETATM   29  C18 UNL     1      12.997   3.848  52.647  1.00  0.00     0.001 C 
HETATM   30  C19 UNL     1      12.515   4.710  51.512  1.00  0.00     0.011 C 
BRANCH  29  31
HETATM   31  C20 UNL     1      12.433   4.350  53.984  1.00  0.00     0.001 C 
HETATM   32  C21 UNL     1      11.856   3.270  54.828  1.00  0.00     0.005 C 
ENDBRANCH  29  31
ENDBRANCH  28  29
ENDBRANCH   7  28
TORSDOF 7
ENDMDL
MODEL 8
REMARK VINA RESULT:      -6.3      8.423     10.933
REMARK  7 active torsions:
REMARK  status: ('A' for Active; 'I' for Inactive)
REMARK    1  A    between atoms: C2_2  and  C3_3 
REMARK       I    between atoms: C3_3  and  N1_5 
REMARK    2  A    between atoms: N1_5  and  C4_6 
REMARK    3  A    between atoms: N2_9  and  C7_10 
REMARK    4  A    between atoms: C14_20  and  O2_21 
REMARK    5  A    between atoms: N6_24  and  C17_25 
REMARK    6  A    between atoms: C17_25  and  C18_26 
REMARK    7  A    between atoms: C18_26  and  C20_28 
ROOT
HETATM    1  C4  UNL     1      29.413   7.437  48.639  1.00  0.00     0.119 C 
HETATM    2  C5  UNL     1      29.436   8.729  49.010  1.00  0.00     0.043 C 
HETATM    3  C6  UNL     1      30.492   9.785  48.986  1.00  0.00     0.175 C 
HETATM    4  N2  UNL     1      31.417   9.579  47.894  1.00  0.00    -0.181 N 
HETATM    5  C14 UNL     1      32.586   8.749  47.827  1.00  0.00     0.259 C 
HETATM    6  C16 UNL     1      32.495   7.481  48.640  1.00  0.00     0.197 C 
HETATM    7  N6  UNL     1      31.783   6.429  48.077  1.00  0.00    -0.322 N 
HETATM    8  N7  UNL     1      30.394   6.575  48.075  1.00  0.00    -0.288 N 
HETATM    9  H33 UNL     1      29.921   5.825  47.486  1.00  0.00     0.188 HD
ENDROOT
BRANCH   4  10
HETATM   10  C7  UNL     1      31.051  10.342  46.754  1.00  0.00     0.744 A 
HETATM   11  N3  UNL     1      31.767  11.468  46.539  1.00  0.00    -0.071 NA
HETATM   12  C8  UNL     1      31.495  12.271  45.477  1.00  0.00     0.168 A 
HETATM   13  C9  UNL     1      30.481  11.935  44.611  1.00  0.00     0.077 A 
HETATM   14  C10 UNL     1      30.028  12.592  43.474  1.00  0.00     0.035 A 
HETATM   15  N4  UNL     1      29.758  10.795  44.831  1.00  0.00    -0.222 N 
HETATM   16  C11 UNL     1      29.001  11.786  43.030  1.00  0.00     0.029 A 
HETATM   17  C12 UNL     1      28.841  10.694  43.860  1.00  0.00     0.033 A 
HETATM   18  C13 UNL     1      27.852   9.607  43.722  1.00  0.00     0.070 C 
HETATM   19  N5  UNL     1      30.071  10.057  45.881  1.00  0.00     0.026 NA
ENDBRANCH   4  10
BRANCH   5  20
HETATM   20  O2  UNL     1      33.023   8.589  46.537  1.00  0.00    -0.369 OA
HETATM   21  C15 UNL     1      34.408   8.446  46.457  1.00  0.00     0.204 C 
ENDBRANCH   5  20
BRANCH   1  22
HETATM   22  N1  UNL     1      28.135   6.808  48.859  1.00  0.00    -0.312 N 
HETATM   23  C3  UNL     1      27.808   5.429  48.663  1.00  0.00     0.222 C 
HETATM   24  O1  UNL     1      28.722   4.692  48.261  1.00  0.00    -0.273 OA
HETATM   25  H6  UNL     1      27.550   7.618  49.187  1.00  0.00     0.170 HD
BRANCH  23  26
HETATM   26  C2  UNL     1      26.381   5.243  49.014  1.00  0.00     0.099 C 
HETATM   27  C1  UNL     1      26.191   3.837  49.519  1.00  0.00     0.014 C 
ENDBRANCH  23  26
ENDBRANCH   1  22
BRANCH   7  28
HETATM   28  C17 UNL     1      32.243   5.121  48.029  1.00  0.00     0.146 C 
BRANCH  28  29
HETATM   29  C18 UNL     1      32.688   4.545  46.719  1.00  0.00     0.001 C 
HETATM   30  C19 UNL     1      32.164   3.150  46.513  1.00  0.00     0.011 C 
BRANCH  29  31
HETATM   31  C20 UNL     1      34.224   4.543  46.767  1.00  0.00     0.001 C 
HETATM   32  C21 UNL     1      34.790   3.440  47.589  1.00  0.00     0.005 C 
ENDBRANCH  29  31
ENDBRANCH  28  29
ENDBRANCH   7  28
TORSDOF 7
ENDMDL
MODEL 9
REMARK VINA RESULT:      -6.3      4.512      8.664
REMARK  7 active torsions:
REMARK  status: ('A' for Active; 'I' for Inactive)
REMARK    1  A    between atoms: C2_2  and  C3_3 
REMARK       I    between atoms: C3_3  and  N1_5 
REMARK    2  A    between atoms: N1_5  and  C4_6 
REMARK    3  A    between atoms: N2_9  and  C7_10 
REMARK    4  A    between atoms: C14_20  and  O2_21 
REMARK    5  A    between atoms: N6_24  and  C17_25 
REMARK    6  A    between atoms: C17_25  and  C18_26 
REMARK    7  A    between atoms: C18_26  and  C20_28 
ROOT
HETATM    1  C4  UNL     1      15.957  -1.111  52.292  1.00  0.00     0.119 C 
HETATM    2  C5  UNL     1      16.629  -1.172  51.129  1.00  0.00     0.043 C 
HETATM    3  C6  UNL     1      17.049  -0.143  50.131  1.00  0.00     0.175 C 
HETATM    4  N2  UNL     1      17.292   1.134  50.764  1.00  0.00    -0.181 N 
HETATM    5  C14 UNL     1      16.371   2.183  51.098  1.00  0.00     0.259 C 
HETATM    6  C16 UNL     1      14.992   1.701  51.477  1.00  0.00     0.197 C 
HETATM    7  N6  UNL     1      14.834   1.224  52.773  1.00  0.00    -0.322 N 
HETATM    8  N7  UNL     1      15.386  -0.034  53.024  1.00  0.00    -0.288 N 
HETATM    9  H33 UNL     1      15.380  -0.265  54.063  1.00  0.00     0.188 HD
ENDROOT
BRANCH   4  10
HETATM   10  C7  UNL     1      18.668   1.306  51.073  1.00  0.00     0.744 A 
HETATM   11  N3  UNL     1      19.390   2.024  50.185  1.00  0.00    -0.071 NA
HETATM   12  C8  UNL     1      20.716   2.244  50.384  1.00  0.00     0.168 A 
HETATM   13  C9  UNL     1      21.330   1.731  51.502  1.00  0.00     0.077 A 
HETATM   14  C10 UNL     1      22.654   1.825  51.912  1.00  0.00     0.035 A 
HETATM   15  N4  UNL     1      20.597   1.004  52.400  1.00  0.00    -0.222 N 
HETATM   16  C11 UNL     1      22.670   1.119  53.097  1.00  0.00     0.029 A 
HETATM   17  C12 UNL     1      21.416   0.622  53.389  1.00  0.00     0.033 A 
HETATM   18  C13 UNL     1      21.027  -0.183  54.563  1.00  0.00     0.070 C 
HETATM   19  N5  UNL     1      19.312   0.826  52.148  1.00  0.00     0.026 NA
ENDBRANCH   4  10
BRANCH   5  20
HETATM   20  O2  UNL     1      16.928   3.098  51.952  1.00  0.00    -0.369 OA
HETATM   21  C15 UNL     1      16.276   4.330  51.915  1.00  0.00     0.204 C 
ENDBRANCH   5  20
BRANCH   1  22
HETATM   22  N1  UNL     1      15.787  -2.400  52.915  1.00  0.00    -0.312 N 
HETATM   23  C3  UNL     1      14.805  -3.389  52.594  1.00  0.00     0.222 C 
HETATM   24  O1  UNL     1      14.012  -3.111  51.681  1.00  0.00    -0.273 OA
HETATM   25  H6  UNL     1      16.556  -2.395  53.633  1.00  0.00     0.170 HD
BRANCH  23  26
HETATM   26  C2  UNL     1      15.012  -4.547  53.494  1.00  0.00     0.099 C 
HETATM   27  C1  UNL     1      16.491  -4.708  53.734  1.00  0.00     0.014 C 
ENDBRANCH  23  26
ENDBRANCH   1  22
BRANCH   7  28
HETATM   28  C17 UNL     1      13.791   1.592  53.611  1.00  0.00     0.146 C 
BRANCH  28  29
HETATM   29  C18 UNL     1      12.813   2.633  53.155  1.00  0.00     0.001 C 
HETATM   30  C19 UNL     1      13.150   3.995  53.698  1.00  0.00     0.011 C 
BRANCH  29  31
HETATM   31  C20 UNL     1      11.442   2.170  53.672  1.00  0.00     0.001 C 
HETATM   32  C21 UNL     1      11.372   2.064  55.153  1.00  0.00     0.005 C 
ENDBRANCH  29  31
ENDBRANCH  28  29
ENDBRANCH   7  28
TORSDOF 7
ENDMDL
