MODEL 1
REMARK VINA RESULT:      -8.8      0.000      0.000
REMARK  7 active torsions:
REMARK  status: ('A' for Active; 'I' for Inactive)
REMARK    1  A    between atoms: C5_7  and  C6_8 
REMARK    2  A    between atoms: C6_8  and  C7_9 
REMARK    3  A    between atoms: C7_9  and  O2_10 
REMARK    4  A    between atoms: O2_10  and  C8_11 
REMARK    5  A    between atoms: C11_14  and  N2_15 
REMARK    6  A    between atoms: N2_15  and  C12_16 
REMARK    7  A    between atoms: C21_29  and  O3_30 
ROOT
HETATM    1  C8  UNL     1      24.654  -0.537  53.564  1.00  0.00     0.102 A 
HETATM    2  C9  UNL     1      25.262   0.298  52.647  1.00  0.00     0.057 A 
HETATM    3  C10 UNL     1      26.404   0.994  52.978  1.00  0.00     0.042 A 
HETATM    4  C11 UNL     1      26.914   1.790  52.001  1.00  0.00     0.142 A 
HETATM    5  N3  UNL     1      28.043   2.490  52.310  1.00  0.00    -0.224 NA
HETATM    6  C18 UNL     1      28.612   2.387  53.524  1.00  0.00     0.236 A 
HETATM    7  N4  UNL     1      28.108   1.601  54.488  1.00  0.00    -0.241 NA
HETATM    8  C19 UNL     1      26.989   0.892  54.219  1.00  0.00     0.075 A 
HETATM    9  C20 UNL     1      26.373   0.056  55.124  1.00  0.00     0.072 A 
HETATM   10  C21 UNL     1      25.235  -0.639  54.802  1.00  0.00     0.101 A 
ENDROOT
BRANCH   1  11
HETATM   11  O2  UNL     1      23.495  -1.269  53.287  1.00  0.00    -0.348 OA
BRANCH  11  12
HETATM   12  C7  UNL     1      22.251  -0.732  53.655  1.00  0.00     0.178 C 
BRANCH  12  13
HETATM   13  C6  UNL     1      22.156   0.766  53.480  1.00  0.00     0.063 C 
BRANCH  13  14
HETATM   14  C5  UNL     1      20.963   1.027  52.578  1.00  0.00     0.230 C 
HETATM   15  C2  UNL     1      21.262   0.681  51.147  1.00  0.00     0.039 C 
HETATM   16  C1  UNL     1      22.408   1.501  50.596  1.00  0.00     0.014 C 
HETATM   17  C3  UNL     1      20.016   0.949  50.335  1.00  0.00     0.176 C 
HETATM   18  O1  UNL     1      19.557   2.257  50.492  1.00  0.00    -0.362 OA
HETATM   19  C4  UNL     1      19.362   2.570  51.836  1.00  0.00     0.438 C 
HETATM   20  N1  UNL     1      20.516   2.382  52.654  1.00  0.00     0.111 N 
HETATM   21  H9  UNL     1      21.226   3.114  52.589  1.00  0.00     0.319 HD
ENDBRANCH  13  14
ENDBRANCH  12  13
ENDBRANCH  11  12
ENDBRANCH   1  11
BRANCH  10  22
HETATM   22  O3  UNL     1      24.684  -1.450  55.763  1.00  0.00    -0.358 OA
HETATM   23  H22 UNL     1      23.724  -1.753  55.696  1.00  0.00     0.217 HD
ENDBRANCH  10  22
BRANCH   4  24
HETATM   24  N2  UNL     1      26.409   1.970  50.661  1.00  0.00    -0.340 N 
HETATM   25  H16 UNL     1      26.237   1.271  49.910  1.00  0.00     0.167 HD
BRANCH  24  26
HETATM   26  C12 UNL     1      26.102   3.340  50.313  1.00  0.00     0.035 A 
HETATM   27  C13 UNL     1      26.866   3.968  49.332  1.00  0.00     0.032 A 
HETATM   28  C14 UNL     1      26.688   5.264  48.891  1.00  0.00     0.046 A 
HETATM   29  C15 UNL     1      25.650   5.987  49.494  1.00  0.00     0.138 A 
HETATM   30  F1  UNL     1      25.448   7.268  49.081  1.00  0.00    -0.204 F 
HETATM   31  C16 UNL     1      24.886   5.398  50.456  1.00  0.00     0.074 A 
HETATM   32 CL1  UNL     1      23.598   6.277  51.213  1.00  0.00    -0.081 Cl
HETATM   33  C17 UNL     1      25.093   4.101  50.871  1.00  0.00     0.056 A 
ENDBRANCH  24  26
ENDBRANCH   4  24
TORSDOF 7
ENDMDL
MODEL 2
REMARK VINA RESULT:      -8.7      1.308      1.911
REMARK  7 active torsions:
REMARK  status: ('A' for Active; 'I' for Inactive)
REMARK    1  A    between atoms: C5_7  and  C6_8 
REMARK    2  A    between atoms: C6_8  and  C7_9 
REMARK    3  A    between atoms: C7_9  and  O2_10 
REMARK    4  A    between atoms: O2_10  and  C8_11 
REMARK    5  A    between atoms: C11_14  and  N2_15 
REMARK    6  A    between atoms: N2_15  and  C12_16 
REMARK    7  A    between atoms: C21_29  and  O3_30 
ROOT
HETATM    1  C8  UNL     1      24.284  -0.467  53.946  1.00  0.00     0.102 A 
HETATM    2  C9  UNL     1      24.743   0.424  52.996  1.00  0.00     0.057 A 
HETATM    3  C10 UNL     1      25.980   1.015  53.125  1.00  0.00     0.042 A 
HETATM    4  C11 UNL     1      26.328   1.880  52.135  1.00  0.00     0.142 A 
HETATM    5  N3  UNL     1      27.547   2.479  52.245  1.00  0.00    -0.224 NA
HETATM    6  C18 UNL     1      28.355   2.218  53.288  1.00  0.00     0.236 A 
HETATM    7  N4  UNL     1      28.012   1.365  54.266  1.00  0.00    -0.241 NA
HETATM    8  C19 UNL     1      26.810   0.752  54.190  1.00  0.00     0.075 A 
HETATM    9  C20 UNL     1      26.341  -0.138  55.131  1.00  0.00     0.072 A 
HETATM   10  C21 UNL     1      25.110  -0.731  55.010  1.00  0.00     0.101 A 
ENDROOT
BRANCH   1  11
HETATM   11  O2  UNL     1      23.040  -1.100  53.870  1.00  0.00    -0.348 OA
BRANCH  11  12
HETATM   12  C7  UNL     1      21.929  -0.485  54.470  1.00  0.00     0.178 C 
BRANCH  12  13
HETATM   13  C6  UNL     1      20.678  -0.521  53.623  1.00  0.00     0.063 C 
BRANCH  13  14
HETATM   14  C5  UNL     1      20.840   0.547  52.556  1.00  0.00     0.230 C 
HETATM   15  C2  UNL     1      19.511   1.072  52.091  1.00  0.00     0.039 C 
HETATM   16  C1  UNL     1      18.654  -0.018  51.486  1.00  0.00     0.014 C 
HETATM   17  C3  UNL     1      19.772   2.141  51.054  1.00  0.00     0.176 C 
HETATM   18  O1  UNL     1      20.568   1.675  50.007  1.00  0.00    -0.362 OA
HETATM   19  C4  UNL     1      21.759   1.125  50.479  1.00  0.00     0.438 C 
HETATM   20  N1  UNL     1      21.583   0.077  51.430  1.00  0.00     0.111 N 
HETATM   21  H9  UNL     1      21.321  -0.831  51.042  1.00  0.00     0.319 HD
ENDBRANCH  13  14
ENDBRANCH  12  13
ENDBRANCH  11  12
ENDBRANCH   1  11
BRANCH  10  22
HETATM   22  O3  UNL     1      24.718  -1.605  55.992  1.00  0.00    -0.358 OA
HETATM   23  H22 UNL     1      23.881  -2.159  55.889  1.00  0.00     0.217 HD
ENDBRANCH  10  22
BRANCH   4  24
HETATM   24  N2  UNL     1      25.560   2.227  50.962  1.00  0.00    -0.340 N 
HETATM   25  H16 UNL     1      25.305   1.652  50.134  1.00  0.00     0.167 HD
BRANCH  24  26
HETATM   26  C12 UNL     1      25.079   3.591  50.941  1.00  0.00     0.035 A 
HETATM   27  C13 UNL     1      24.090   3.965  51.847  1.00  0.00     0.032 A 
HETATM   28  C14 UNL     1      23.538   5.227  51.951  1.00  0.00     0.046 A 
HETATM   29  C15 UNL     1      24.028   6.192  51.059  1.00  0.00     0.138 A 
HETATM   30  F1  UNL     1      23.505   7.445  51.135  1.00  0.00    -0.204 F 
HETATM   31  C16 UNL     1      24.995   5.854  50.161  1.00  0.00     0.074 A 
HETATM   32 CL1  UNL     1      25.611   7.033  49.052  1.00  0.00    -0.081 Cl
HETATM   33  C17 UNL     1      25.523   4.583  50.088  1.00  0.00     0.056 A 
ENDBRANCH  24  26
ENDBRANCH   4  24
TORSDOF 7
ENDMDL
MODEL 3
REMARK VINA RESULT:      -8.6      3.417      5.371
REMARK  7 active torsions:
REMARK  status: ('A' for Active; 'I' for Inactive)
REMARK    1  A    between atoms: C5_7  and  C6_8 
REMARK    2  A    between atoms: C6_8  and  C7_9 
REMARK    3  A    between atoms: C7_9  and  O2_10 
REMARK    4  A    between atoms: O2_10  and  C8_11 
REMARK    5  A    between atoms: C11_14  and  N2_15 
REMARK    6  A    between atoms: N2_15  and  C12_16 
REMARK    7  A    between atoms: C21_29  and  O3_30 
ROOT
HETATM    1  C8  UNL     1      21.075  -0.000  52.329  1.00  0.00     0.102 A 
HETATM    2  C9  UNL     1      22.450   0.006  52.457  1.00  0.00     0.057 A 
HETATM    3  C10 UNL     1      23.054  -0.502  53.586  1.00  0.00     0.042 A 
HETATM    4  C11 UNL     1      24.412  -0.440  53.609  1.00  0.00     0.142 A 
HETATM    5  N3  UNL     1      25.029  -0.935  54.719  1.00  0.00    -0.224 NA
HETATM    6  C18 UNL     1      24.316  -1.456  55.733  1.00  0.00     0.236 A 
HETATM    7  N4  UNL     1      22.976  -1.518  55.711  1.00  0.00    -0.241 NA
HETATM    8  C19 UNL     1      22.329  -1.036  54.626  1.00  0.00     0.075 A 
HETATM    9  C20 UNL     1      20.959  -1.037  54.486  1.00  0.00     0.072 A 
HETATM   10  C21 UNL     1      20.350  -0.531  53.365  1.00  0.00     0.101 A 
ENDROOT
BRANCH   1  11
HETATM   11  O2  UNL     1      20.405   0.499  51.208  1.00  0.00    -0.348 OA
BRANCH  11  12
HETATM   12  C7  UNL     1      21.144   1.175  50.224  1.00  0.00     0.178 C 
BRANCH  12  13
HETATM   13  C6  UNL     1      21.280   2.660  50.473  1.00  0.00     0.063 C 
BRANCH  13  14
HETATM   14  C5  UNL     1      22.612   3.084  49.879  1.00  0.00     0.230 C 
HETATM   15  C2  UNL     1      23.752   2.804  50.817  1.00  0.00     0.039 C 
HETATM   16  C1  UNL     1      23.603   3.552  52.124  1.00  0.00     0.014 C 
HETATM   17  C3  UNL     1      25.030   3.234  50.134  1.00  0.00     0.176 C 
HETATM   18  O1  UNL     1      24.983   4.565  49.719  1.00  0.00    -0.362 OA
HETATM   19  C4  UNL     1      23.872   4.808  48.913  1.00  0.00     0.438 C 
HETATM   20  N1  UNL     1      22.625   4.465  49.516  1.00  0.00     0.111 N 
HETATM   21  H9  UNL     1      22.270   5.133  50.202  1.00  0.00     0.319 HD
ENDBRANCH  13  14
ENDBRANCH  12  13
ENDBRANCH  11  12
ENDBRANCH   1  11
BRANCH  10  22
HETATM   22  O3  UNL     1      18.980  -0.570  53.306  1.00  0.00    -0.358 OA
HETATM   23  H22 UNL     1      18.502  -0.681  52.423  1.00  0.00     0.217 HD
ENDBRANCH  10  22
BRANCH   4  24
HETATM   24  N2  UNL     1      25.285   0.076  52.581  1.00  0.00    -0.340 N 
HETATM   25  H16 UNL     1      25.132   0.168  51.556  1.00  0.00     0.167 HD
BRANCH  24  26
HETATM   26  C12 UNL     1      26.573   0.530  53.058  1.00  0.00     0.035 A 
HETATM   27  C13 UNL     1      26.706   1.856  53.462  1.00  0.00     0.032 A 
HETATM   28  C14 UNL     1      27.866   2.430  53.945  1.00  0.00     0.046 A 
HETATM   29  C15 UNL     1      28.986   1.591  54.023  1.00  0.00     0.138 A 
HETATM   30  F1  UNL     1      30.145   2.126  54.494  1.00  0.00    -0.204 F 
HETATM   31  C16 UNL     1      28.885   0.289  53.634  1.00  0.00     0.074 A 
HETATM   32 CL1  UNL     1      30.259  -0.762  53.724  1.00  0.00    -0.081 Cl
HETATM   33  C17 UNL     1      27.709  -0.249  53.158  1.00  0.00     0.056 A 
ENDBRANCH  24  26
ENDBRANCH   4  24
TORSDOF 7
ENDMDL
MODEL 4
REMARK VINA RESULT:      -8.4      2.134      5.846
REMARK  7 active torsions:
REMARK  status: ('A' for Active; 'I' for Inactive)
REMARK    1  A    between atoms: C5_7  and  C6_8 
REMARK    2  A    between atoms: C6_8  and  C7_9 
REMARK    3  A    between atoms: C7_9  and  O2_10 
REMARK    4  A    between atoms: O2_10  and  C8_11 
REMARK    5  A    between atoms: C11_14  and  N2_15 
REMARK    6  A    between atoms: N2_15  and  C12_16 
REMARK    7  A    between atoms: C21_29  and  O3_30 
ROOT
HETATM    1  C8  UNL     1      22.097  -0.715  53.196  1.00  0.00     0.102 A 
HETATM    2  C9  UNL     1      22.091  -0.028  51.997  1.00  0.00     0.057 A 
HETATM    3  C10 UNL     1      20.910   0.425  51.452  1.00  0.00     0.042 A 
HETATM    4  C11 UNL     1      21.020   1.083  50.267  1.00  0.00     0.142 A 
HETATM    5  N3  UNL     1      19.863   1.537  49.709  1.00  0.00    -0.224 NA
HETATM    6  C18 UNL     1      18.677   1.336  50.312  1.00  0.00     0.236 A 
HETATM    7  N4  UNL     1      18.568   0.686  51.481  1.00  0.00    -0.241 NA
HETATM    8  C19 UNL     1      19.695   0.222  52.064  1.00  0.00     0.075 A 
HETATM    9  C20 UNL     1      19.714  -0.464  53.259  1.00  0.00     0.072 A 
HETATM   10  C21 UNL     1      20.886  -0.920  53.808  1.00  0.00     0.101 A 
ENDROOT
BRANCH   1  11
HETATM   11  O2  UNL     1      23.262  -1.198  53.800  1.00  0.00    -0.348 OA
BRANCH  11  12
HETATM   12  C7  UNL     1      24.371  -0.344  53.907  1.00  0.00     0.178 C 
BRANCH  12  13
HETATM   13  C6  UNL     1      25.577  -0.806  53.121  1.00  0.00     0.063 C 
BRANCH  13  14
HETATM   14  C5  UNL     1      26.736   0.085  53.532  1.00  0.00     0.230 C 
HETATM   15  C2  UNL     1      26.564   1.488  53.025  1.00  0.00     0.039 C 
HETATM   16  C1  UNL     1      26.495   1.538  51.514  1.00  0.00     0.014 C 
HETATM   17  C3  UNL     1      27.747   2.301  53.501  1.00  0.00     0.176 C 
HETATM   18  O1  UNL     1      28.963   1.732  53.122  1.00  0.00    -0.362 OA
HETATM   19  C4  UNL     1      29.058   0.407  53.543  1.00  0.00     0.438 C 
HETATM   20  N1  UNL     1      27.994  -0.429  53.089  1.00  0.00     0.111 N 
HETATM   21  H9  UNL     1      28.058  -0.735  52.117  1.00  0.00     0.319 HD
ENDBRANCH  13  14
ENDBRANCH  12  13
ENDBRANCH  11  12
ENDBRANCH   1  11
BRANCH  10  22
HETATM   22  O3  UNL     1      20.817  -1.594  55.001  1.00  0.00    -0.358 OA
HETATM   23  H22 UNL     1      19.926  -1.812  55.422  1.00  0.00     0.217 HD
ENDBRANCH  10  22
BRANCH   4  24
HETATM   24  N2  UNL     1      22.229   1.375  49.534  1.00  0.00    -0.340 N 
HETATM   25  H16 UNL     1      22.704   0.835  48.782  1.00  0.00     0.167 HD
BRANCH  24  26
HETATM   26  C12 UNL     1      22.879   2.610  49.913  1.00  0.00     0.035 A 
HETATM   27  C13 UNL     1      23.482   3.380  48.922  1.00  0.00     0.032 A 
HETATM   28  C14 UNL     1      24.133   4.581  49.129  1.00  0.00     0.046 A 
HETATM   29  C15 UNL     1      24.177   5.041  50.453  1.00  0.00     0.138 A 
HETATM   30  F1  UNL     1      24.811   6.221  50.690  1.00  0.00    -0.204 F 
HETATM   31  C16 UNL     1      23.595   4.308  51.443  1.00  0.00     0.074 A 
HETATM   32 CL1  UNL     1      23.641   4.861  53.084  1.00  0.00    -0.081 Cl
HETATM   33  C17 UNL     1      22.954   3.114  51.198  1.00  0.00     0.056 A 
ENDBRANCH  24  26
ENDBRANCH   4  24
TORSDOF 7
ENDMDL
MODEL 5
REMARK VINA RESULT:      -8.4      2.903      6.136
REMARK  7 active torsions:
REMARK  status: ('A' for Active; 'I' for Inactive)
REMARK    1  A    between atoms: C5_7  and  C6_8 
REMARK    2  A    between atoms: C6_8  and  C7_9 
REMARK    3  A    between atoms: C7_9  and  O2_10 
REMARK    4  A    between atoms: O2_10  and  C8_11 
REMARK    5  A    between atoms: C11_14  and  N2_15 
REMARK    6  A    between atoms: N2_15  and  C12_16 
REMARK    7  A    between atoms: C21_29  and  O3_30 
ROOT
HETATM    1  C8  UNL     1      23.241   3.054  52.578  1.00  0.00     0.102 A 
HETATM    2  C9  UNL     1      23.616   4.338  52.234  1.00  0.00     0.057 A 
HETATM    3  C10 UNL     1      22.754   5.160  51.542  1.00  0.00     0.042 A 
HETATM    4  C11 UNL     1      23.227   6.401  51.250  1.00  0.00     0.142 A 
HETATM    5  N3  UNL     1      22.391   7.229  50.563  1.00  0.00    -0.224 NA
HETATM    6  C18 UNL     1      21.161   6.826  50.200  1.00  0.00     0.236 A 
HETATM    7  N4  UNL     1      20.693   5.601  50.487  1.00  0.00    -0.241 NA
HETATM    8  C19 UNL     1      21.495   4.752  51.167  1.00  0.00     0.075 A 
HETATM    9  C20 UNL     1      21.133   3.469  51.518  1.00  0.00     0.072 A 
HETATM   10  C21 UNL     1      21.986   2.644  52.205  1.00  0.00     0.101 A 
ENDROOT
BRANCH   1  11
HETATM   11  O2  UNL     1      24.070   2.173  53.280  1.00  0.00    -0.348 OA
BRANCH  11  12
HETATM   12  C7  UNL     1      25.451   2.426  53.313  1.00  0.00     0.178 C 
BRANCH  12  13
HETATM   13  C6  UNL     1      26.218   1.780  52.183  1.00  0.00     0.063 C 
BRANCH  13  14
HETATM   14  C5  UNL     1      27.389   1.044  52.811  1.00  0.00     0.230 C 
HETATM   15  C2  UNL     1      27.299  -0.439  52.584  1.00  0.00     0.039 C 
HETATM   16  C1  UNL     1      26.044  -1.027  53.191  1.00  0.00     0.014 C 
HETATM   17  C3  UNL     1      28.512  -1.079  53.220  1.00  0.00     0.176 C 
HETATM   18  O1  UNL     1      28.639  -0.743  54.568  1.00  0.00    -0.362 OA
HETATM   19  C4  UNL     1      28.643   0.639  54.750  1.00  0.00     0.438 C 
HETATM   20  N1  UNL     1      27.501   1.303  54.211  1.00  0.00     0.111 N 
HETATM   21  H9  UNL     1      26.647   1.235  54.770  1.00  0.00     0.319 HD
ENDBRANCH  13  14
ENDBRANCH  12  13
ENDBRANCH  11  12
ENDBRANCH   1  11
BRANCH  10  22
HETATM   22  O3  UNL     1      21.549   1.381  52.514  1.00  0.00    -0.358 OA
HETATM   23  H22 UNL     1      22.179   0.593  52.488  1.00  0.00     0.217 HD
ENDBRANCH  10  22
BRANCH   4  24
HETATM   24  N2  UNL     1      24.514   6.954  51.599  1.00  0.00    -0.340 N 
HETATM   25  H16 UNL     1      24.854   7.342  52.503  1.00  0.00     0.167 HD
BRANCH  24  26
HETATM   26  C12 UNL     1      25.474   6.975  50.517  1.00  0.00     0.035 A 
HETATM   27  C13 UNL     1      25.721   5.794  49.821  1.00  0.00     0.032 A 
HETATM   28  C14 UNL     1      26.601   5.660  48.765  1.00  0.00     0.046 A 
HETATM   29  C15 UNL     1      27.290   6.819  48.382  1.00  0.00     0.138 A 
HETATM   30  F1  UNL     1      28.165   6.721  47.345  1.00  0.00    -0.204 F 
HETATM   31  C16 UNL     1      27.068   7.988  49.045  1.00  0.00     0.074 A 
HETATM   32 CL1  UNL     1      27.912   9.430  48.586  1.00  0.00    -0.081 Cl
HETATM   33  C17 UNL     1      26.181   8.084  50.095  1.00  0.00     0.056 A 
ENDBRANCH  24  26
ENDBRANCH   4  24
TORSDOF 7
ENDMDL
MODEL 6
REMARK VINA RESULT:      -8.3      3.701      7.587
REMARK  7 active torsions:
REMARK  status: ('A' for Active; 'I' for Inactive)
REMARK    1  A    between atoms: C5_7  and  C6_8 
REMARK    2  A    between atoms: C6_8  and  C7_9 
REMARK    3  A    between atoms: C7_9  and  O2_10 
REMARK    4  A    between atoms: O2_10  and  C8_11 
REMARK    5  A    between atoms: C11_14  and  N2_15 
REMARK    6  A    between atoms: N2_15  and  C12_16 
REMARK    7  A    between atoms: C21_29  and  O3_30 
ROOT
HETATM    1  C8  UNL     1      24.764   3.713  50.141  1.00  0.00     0.102 A 
HETATM    2  C9  UNL     1      23.578   3.004  50.120  1.00  0.00     0.057 A 
HETATM    3  C10 UNL     1      22.371   3.649  50.281  1.00  0.00     0.042 A 
HETATM    4  C11 UNL     1      21.268   2.854  50.250  1.00  0.00     0.142 A 
HETATM    5  N3  UNL     1      20.064   3.472  50.411  1.00  0.00    -0.224 NA
HETATM    6  C18 UNL     1      19.986   4.803  50.590  1.00  0.00     0.236 A 
HETATM    7  N4  UNL     1      21.074   5.587  50.621  1.00  0.00    -0.241 NA
HETATM    8  C19 UNL     1      22.286   5.010  50.465  1.00  0.00     0.075 A 
HETATM    9  C20 UNL     1      23.476   5.704  50.483  1.00  0.00     0.072 A 
HETATM   10  C21 UNL     1      24.682   5.070  50.325  1.00  0.00     0.101 A 
ENDROOT
BRANCH   1  11
HETATM   11  O2  UNL     1      26.018   3.116  49.982  1.00  0.00    -0.348 OA
BRANCH  11  12
HETATM   12  C7  UNL     1      26.784   2.836  51.125  1.00  0.00     0.178 C 
BRANCH  12  13
HETATM   13  C6  UNL     1      26.162   1.809  52.042  1.00  0.00     0.063 C 
BRANCH  13  14
HETATM   14  C5  UNL     1      27.306   1.064  52.707  1.00  0.00     0.230 C 
HETATM   15  C2  UNL     1      27.159  -0.424  52.561  1.00  0.00     0.039 C 
HETATM   16  C1  UNL     1      25.884  -0.930  53.199  1.00  0.00     0.014 C 
HETATM   17  C3  UNL     1      28.348  -1.075  53.229  1.00  0.00     0.176 C 
HETATM   18  O1  UNL     1      28.492  -0.672  54.556  1.00  0.00    -0.362 OA
HETATM   19  C4  UNL     1      28.548   0.717  54.664  1.00  0.00     0.438 C 
HETATM   20  N1  UNL     1      27.431   1.394  54.092  1.00  0.00     0.111 N 
HETATM   21  H9  UNL     1      26.577   1.388  54.654  1.00  0.00     0.319 HD
ENDBRANCH  13  14
ENDBRANCH  12  13
ENDBRANCH  11  12
ENDBRANCH   1  11
BRANCH  10  22
HETATM   22  O3  UNL     1      25.820   5.836  50.357  1.00  0.00    -0.358 OA
HETATM   23  H22 UNL     1      26.650   5.511  50.830  1.00  0.00     0.217 HD
ENDBRANCH  10  22
BRANCH   4  24
HETATM   24  N2  UNL     1      21.221   1.425  50.048  1.00  0.00    -0.340 N 
HETATM   25  H16 UNL     1      21.296   0.870  49.171  1.00  0.00     0.167 HD
BRANCH  24  26
HETATM   26  C12 UNL     1      21.033   0.653  51.256  1.00  0.00     0.035 A 
HETATM   27  C13 UNL     1      22.148   0.345  52.032  1.00  0.00     0.032 A 
HETATM   28  C14 UNL     1      22.126  -0.376  53.210  1.00  0.00     0.046 A 
HETATM   29  C15 UNL     1      20.869  -0.824  53.638  1.00  0.00     0.138 A 
HETATM   30  F1  UNL     1      20.813  -1.538  54.795  1.00  0.00    -0.204 F 
HETATM   31  C16 UNL     1      19.761  -0.538  52.898  1.00  0.00     0.074 A 
HETATM   32 CL1  UNL     1      18.199  -1.086  53.412  1.00  0.00    -0.081 Cl
HETATM   33  C17 UNL     1      19.822   0.185  51.727  1.00  0.00     0.056 A 
ENDBRANCH  24  26
ENDBRANCH   4  24
TORSDOF 7
ENDMDL
MODEL 7
REMARK VINA RESULT:      -8.3      4.092      7.932
REMARK  7 active torsions:
REMARK  status: ('A' for Active; 'I' for Inactive)
REMARK    1  A    between atoms: C5_7  and  C6_8 
REMARK    2  A    between atoms: C6_8  and  C7_9 
REMARK    3  A    between atoms: C7_9  and  O2_10 
REMARK    4  A    between atoms: O2_10  and  C8_11 
REMARK    5  A    between atoms: C11_14  and  N2_15 
REMARK    6  A    between atoms: N2_15  and  C12_16 
REMARK    7  A    between atoms: C21_29  and  O3_30 
ROOT
HETATM    1  C8  UNL     1      23.835   5.424  50.810  1.00  0.00     0.102 A 
HETATM    2  C9  UNL     1      23.795   4.056  50.994  1.00  0.00     0.057 A 
HETATM    3  C10 UNL     1      22.688   3.453  51.549  1.00  0.00     0.042 A 
HETATM    4  C11 UNL     1      22.758   2.103  51.690  1.00  0.00     0.142 A 
HETATM    5  N3  UNL     1      21.674   1.487  52.241  1.00  0.00    -0.224 NA
HETATM    6  C18 UNL     1      20.595   2.194  52.622  1.00  0.00     0.236 A 
HETATM    7  N4  UNL     1      20.526   3.527  52.484  1.00  0.00    -0.241 NA
HETATM    8  C19 UNL     1      21.582   4.172  51.942  1.00  0.00     0.075 A 
HETATM    9  C20 UNL     1      21.635   5.535  51.752  1.00  0.00     0.072 A 
HETATM   10  C21 UNL     1      22.734   6.143  51.201  1.00  0.00     0.101 A 
ENDROOT
BRANCH   1  11
HETATM   11  O2  UNL     1      24.928   6.093  50.250  1.00  0.00    -0.348 OA
BRANCH  11  12
HETATM   12  C7  UNL     1      25.247   5.859  48.903  1.00  0.00     0.178 C 
BRANCH  12  13
HETATM   13  C6  UNL     1      26.708   5.559  48.662  1.00  0.00     0.063 C 
BRANCH  13  14
HETATM   14  C5  UNL     1      27.386   6.885  48.366  1.00  0.00     0.230 C 
HETATM   15  C2  UNL     1      28.663   6.695  47.597  1.00  0.00     0.039 C 
HETATM   16  C1  UNL     1      29.664   5.860  48.364  1.00  0.00     0.014 C 
HETATM   17  C3  UNL     1      29.249   8.062  47.329  1.00  0.00     0.176 C 
HETATM   18  O1  UNL     1      29.425   8.799  48.500  1.00  0.00    -0.362 OA
HETATM   19  C4  UNL     1      28.239   8.891  49.227  1.00  0.00     0.438 C 
HETATM   20  N1  UNL     1      27.654   7.631  49.554  1.00  0.00     0.111 N 
HETATM   21  H9  UNL     1      28.089   7.133  50.332  1.00  0.00     0.319 HD
ENDBRANCH  13  14
ENDBRANCH  12  13
ENDBRANCH  11  12
ENDBRANCH   1  11
BRANCH  10  22
HETATM   22  O3  UNL     1      22.706   7.507  51.048  1.00  0.00    -0.358 OA
HETATM   23  H22 UNL     1      23.103   7.945  50.230  1.00  0.00     0.217 HD
ENDBRANCH  10  22
BRANCH   4  24
HETATM   24  N2  UNL     1      23.846   1.235  51.305  1.00  0.00    -0.340 N 
HETATM   25  H16 UNL     1      24.025   0.744  50.405  1.00  0.00     0.167 HD
BRANCH  24  26
HETATM   26  C12 UNL     1      24.835   1.015  52.337  1.00  0.00     0.035 A 
HETATM   27  C13 UNL     1      24.632  -0.019  53.247  1.00  0.00     0.032 A 
HETATM   28  C14 UNL     1      25.487  -0.353  54.279  1.00  0.00     0.046 A 
HETATM   29  C15 UNL     1      26.645   0.427  54.401  1.00  0.00     0.138 A 
HETATM   30  F1  UNL     1      27.508   0.124  55.408  1.00  0.00    -0.204 F 
HETATM   31  C16 UNL     1      26.870   1.446  53.525  1.00  0.00     0.074 A 
HETATM   32 CL1  UNL     1      28.295   2.421  53.661  1.00  0.00    -0.081 Cl
HETATM   33  C17 UNL     1      25.993   1.750  52.506  1.00  0.00     0.056 A 
ENDBRANCH  24  26
ENDBRANCH   4  24
TORSDOF 7
ENDMDL
MODEL 8
REMARK VINA RESULT:      -8.2      3.504      6.205
REMARK  7 active torsions:
REMARK  status: ('A' for Active; 'I' for Inactive)
REMARK    1  A    between atoms: C5_7  and  C6_8 
REMARK    2  A    between atoms: C6_8  and  C7_9 
REMARK    3  A    between atoms: C7_9  and  O2_10 
REMARK    4  A    between atoms: O2_10  and  C8_11 
REMARK    5  A    between atoms: C11_14  and  N2_15 
REMARK    6  A    between atoms: N2_15  and  C12_16 
REMARK    7  A    between atoms: C21_29  and  O3_30 
ROOT
HETATM    1  C8  UNL     1      21.609   2.512  51.611  1.00  0.00     0.102 A 
HETATM    2  C9  UNL     1      22.763   1.771  51.774  1.00  0.00     0.057 A 
HETATM    3  C10 UNL     1      22.859   0.831  52.776  1.00  0.00     0.042 A 
HETATM    4  C11 UNL     1      24.042   0.164  52.849  1.00  0.00     0.142 A 
HETATM    5  N3  UNL     1      24.159  -0.768  53.837  1.00  0.00    -0.224 NA
HETATM    6  C18 UNL     1      23.147  -1.005  54.689  1.00  0.00     0.236 A 
HETATM    7  N4  UNL     1      21.979  -0.347  54.618  1.00  0.00    -0.241 NA
HETATM    8  C19 UNL     1      21.827   0.585  53.652  1.00  0.00     0.075 A 
HETATM    9  C20 UNL     1      20.681   1.330  53.478  1.00  0.00     0.072 A 
HETATM   10  C21 UNL     1      20.578   2.269  52.483  1.00  0.00     0.101 A 
ENDROOT
BRANCH   1  11
HETATM   11  O2  UNL     1      21.449   3.478  50.612  1.00  0.00    -0.348 OA
BRANCH  11  12
HETATM   12  C7  UNL     1      22.395   4.511  50.514  1.00  0.00     0.178 C 
BRANCH  12  13
HETATM   13  C6  UNL     1      23.182   4.500  49.223  1.00  0.00     0.063 C 
BRANCH  13  14
HETATM   14  C5  UNL     1      24.084   5.721  49.249  1.00  0.00     0.230 C 
HETATM   15  C2  UNL     1      25.495   5.376  48.865  1.00  0.00     0.039 C 
HETATM   16  C1  UNL     1      26.107   4.367  49.812  1.00  0.00     0.014 C 
HETATM   17  C3  UNL     1      26.308   6.650  48.894  1.00  0.00     0.176 C 
HETATM   18  O1  UNL     1      26.224   7.300  50.126  1.00  0.00    -0.362 OA
HETATM   19  C4  UNL     1      24.898   7.536  50.487  1.00  0.00     0.438 C 
HETATM   20  N1  UNL     1      24.084   6.366  50.523  1.00  0.00     0.111 N 
HETATM   21  H9  UNL     1      24.200   5.773  51.348  1.00  0.00     0.319 HD
ENDBRANCH  13  14
ENDBRANCH  12  13
ENDBRANCH  11  12
ENDBRANCH   1  11
BRANCH  10  22
HETATM   22  O3  UNL     1      19.402   2.969  52.379  1.00  0.00    -0.358 OA
HETATM   23  H22 UNL     1      18.786   2.834  51.591  1.00  0.00     0.217 HD
ENDBRANCH  10  22
BRANCH   4  24
HETATM   24  N2  UNL     1      25.190   0.315  51.986  1.00  0.00    -0.340 N 
HETATM   25  H16 UNL     1      25.269   0.220  50.953  1.00  0.00     0.167 HD
BRANCH  24  26
HETATM   26  C12 UNL     1      26.419   0.645  52.673  1.00  0.00     0.035 A 
HETATM   27  C13 UNL     1      26.575   1.932  53.183  1.00  0.00     0.032 A 
HETATM   28  C14 UNL     1      27.685   2.391  53.865  1.00  0.00     0.046 A 
HETATM   29  C15 UNL     1      28.726   1.469  54.046  1.00  0.00     0.138 A 
HETATM   30  F1  UNL     1      29.833   1.890  54.714  1.00  0.00    -0.204 F 
HETATM   31  C16 UNL     1      28.601   0.203  53.558  1.00  0.00     0.074 A 
HETATM   32 CL1  UNL     1      29.877  -0.949  53.771  1.00  0.00    -0.081 Cl
HETATM   33  C17 UNL     1      27.477  -0.219  52.882  1.00  0.00     0.056 A 
ENDBRANCH  24  26
ENDBRANCH   4  24
TORSDOF 7
ENDMDL
MODEL 9
REMARK VINA RESULT:      -8.1      2.415      6.200
REMARK  7 active torsions:
REMARK  status: ('A' for Active; 'I' for Inactive)
REMARK    1  A    between atoms: C5_7  and  C6_8 
REMARK    2  A    between atoms: C6_8  and  C7_9 
REMARK    3  A    between atoms: C7_9  and  O2_10 
REMARK    4  A    between atoms: O2_10  and  C8_11 
REMARK    5  A    between atoms: C11_14  and  N2_15 
REMARK    6  A    between atoms: N2_15  and  C12_16 
REMARK    7  A    between atoms: C21_29  and  O3_30 
ROOT
HETATM    1  C8  UNL     1      22.564  -0.235  53.263  1.00  0.00     0.102 A 
HETATM    2  C9  UNL     1      22.107   0.286  52.068  1.00  0.00     0.057 A 
HETATM    3  C10 UNL     1      20.763   0.271  51.763  1.00  0.00     0.042 A 
HETATM    4  C11 UNL     1      20.425   0.803  50.559  1.00  0.00     0.142 A 
HETATM    5  N3  UNL     1      19.101   0.795  50.236  1.00  0.00    -0.224 NA
HETATM    6  C18 UNL     1      18.186   0.282  51.078  1.00  0.00     0.236 A 
HETATM    7  N4  UNL     1      18.519  -0.244  52.267  1.00  0.00    -0.241 NA
HETATM    8  C19 UNL     1      19.824  -0.253  52.620  1.00  0.00     0.075 A 
HETATM    9  C20 UNL     1      20.293  -0.768  53.809  1.00  0.00     0.072 A 
HETATM   10  C21 UNL     1      21.629  -0.759  54.119  1.00  0.00     0.101 A 
ENDROOT
BRANCH   1  11
HETATM   11  O2  UNL     1      23.913  -0.247  53.630  1.00  0.00    -0.348 OA
BRANCH  11  12
HETATM   12  C7  UNL     1      24.685   0.905  53.407  1.00  0.00     0.178 C 
BRANCH  12  13
HETATM   13  C6  UNL     1      25.717   0.747  52.314  1.00  0.00     0.063 C 
BRANCH  13  14
HETATM   14  C5  UNL     1      27.052   0.515  53.000  1.00  0.00     0.230 C 
HETATM   15  C2  UNL     1      27.727  -0.729  52.495  1.00  0.00     0.039 C 
HETATM   16  C1  UNL     1      26.891  -1.965  52.745  1.00  0.00     0.014 C 
HETATM   17  C3  UNL     1      29.050  -0.862  53.214  1.00  0.00     0.176 C 
HETATM   18  O1  UNL     1      28.899  -0.851  54.601  1.00  0.00    -0.362 OA
HETATM   19  C4  UNL     1      28.203   0.278  55.028  1.00  0.00     0.438 C 
HETATM   20  N1  UNL     1      26.922   0.440  54.421  1.00  0.00     0.111 N 
HETATM   21  H9  UNL     1      26.180  -0.155  54.793  1.00  0.00     0.319 HD
ENDBRANCH  13  14
ENDBRANCH  12  13
ENDBRANCH  11  12
ENDBRANCH   1  11
BRANCH  10  22
HETATM   22  O3  UNL     1      22.013  -1.293  55.324  1.00  0.00    -0.358 OA
HETATM   23  H22 UNL     1      22.268  -2.266  55.401  1.00  0.00     0.217 HD
ENDBRANCH  10  22
BRANCH   4  24
HETATM   24  N2  UNL     1      21.307   1.396  49.582  1.00  0.00    -0.340 N 
HETATM   25  H16 UNL     1      21.519   1.105  48.605  1.00  0.00     0.167 HD
BRANCH  24  26
HETATM   26  C12 UNL     1      22.007   2.576  50.041  1.00  0.00     0.035 A 
HETATM   27  C13 UNL     1      21.276   3.589  50.657  1.00  0.00     0.032 A 
HETATM   28  C14 UNL     1      21.803   4.766  51.150  1.00  0.00     0.046 A 
HETATM   29  C15 UNL     1      23.188   4.932  51.007  1.00  0.00     0.138 A 
HETATM   30  F1  UNL     1      23.739   6.082  51.483  1.00  0.00    -0.204 F 
HETATM   31  C16 UNL     1      23.928   3.958  50.409  1.00  0.00     0.074 A 
HETATM   32 CL1  UNL     1      25.640   4.147  50.223  1.00  0.00    -0.081 Cl
HETATM   33  C17 UNL     1      23.367   2.795  49.928  1.00  0.00     0.056 A 
ENDBRANCH  24  26
ENDBRANCH   4  24
TORSDOF 7
ENDMDL
