MODEL 1
REMARK VINA RESULT:      -9.4      0.000      0.000
REMARK  3 active torsions:
REMARK  status: ('A' for Active; 'I' for Inactive)
REMARK    1  A    between atoms: O1_2  and  C2_3 
REMARK    2  A    between atoms: C6_7  and  N1_8 
REMARK    3  A    between atoms: N1_8  and  C7_9 
ROOT
HETATM    1  C2  UNL     1      26.352  -0.128  52.927  1.00  0.00     0.098 C 
HETATM    2  C3  UNL     1      27.274   0.589  52.308  1.00  0.00     0.017 C 
HETATM    3  C4  UNL     1      26.801   1.770  51.543  1.00  0.00     0.072 C 
HETATM    4  C5  UNL     1      25.424   2.162  51.912  1.00  0.00    -0.006 C 
HETATM    5  C6  UNL     1      24.549   2.755  51.082  1.00  0.00     0.136 C 
HETATM    6  N2  UNL     1      23.275   3.086  51.539  1.00  0.00    -0.224 NA
HETATM    7  C13 UNL     1      22.157   3.022  50.972  1.00  0.00     0.237 C 
HETATM    8  N3  UNL     1      20.987   2.866  50.138  1.00  0.00    -0.220 NA
HETATM    9  C14 UNL     1      20.398   1.700  50.314  1.00  0.00     0.170 C 
HETATM   10  C15 UNL     1      20.992   0.734  51.312  1.00  0.00     0.358 C 
HETATM   11  N4  UNL     1      20.050   0.019  52.058  1.00  0.00     0.098 NA
HETATM   12  C16 UNL     1      20.371  -0.254  53.409  1.00  0.00     0.275 C 
HETATM   13  C17 UNL     1      21.657   0.183  53.976  1.00  0.00     0.057 C 
HETATM   14  C18 UNL     1      22.913  -0.423  53.445  1.00  0.00     0.177 C 
HETATM   15  O2  UNL     1      23.997   0.239  54.110  1.00  0.00    -0.348 OA
HETATM   16  C19 UNL     1      25.164   0.541  53.440  1.00  0.00     0.102 C 
HETATM   17  C20 UNL     1      25.016   1.872  53.284  1.00  0.00     0.050 C 
HETATM   18  C21 UNL     1      18.708   0.529  51.892  1.00  0.00     0.299 C 
HETATM   19  C22 UNL     1      18.347   0.396  50.404  1.00  0.00     0.207 C 
HETATM   20  O3  UNL     1      19.248   1.234  49.662  1.00  0.00    -0.335 OA
ENDROOT
BRANCH   5  21
HETATM   21  N1  UNL     1      25.171   2.935  49.803  1.00  0.00    -0.340 N 
HETATM   22  H7  UNL     1      25.296   2.090  49.204  1.00  0.00     0.167 HD
BRANCH  21  23
HETATM   23  C7  UNL     1      25.611   4.215  49.347  1.00  0.00     0.035 A 
HETATM   24  C8  UNL     1      24.758   5.276  49.219  1.00  0.00     0.032 A 
HETATM   25  C9  UNL     1      25.258   6.485  48.770  1.00  0.00     0.046 A 
HETATM   26  C10 UNL     1      26.593   6.589  48.465  1.00  0.00     0.138 A 
HETATM   27  F1  UNL     1      27.083   7.785  48.024  1.00  0.00    -0.204 F 
HETATM   28  C11 UNL     1      27.478   5.529  48.587  1.00  0.00     0.074 A 
HETATM   29 CL1  UNL     1      29.166   5.633  48.210  1.00  0.00    -0.081 Cl
HETATM   30  C12 UNL     1      26.945   4.355  49.032  1.00  0.00     0.056 A 
ENDBRANCH  21  23
ENDBRANCH   5  21
BRANCH   1  31
HETATM   31  O1  UNL     1      26.261  -1.466  53.212  1.00  0.00    -0.353 OA
HETATM   32  C1  UNL     1      27.154  -2.401  52.672  1.00  0.00     0.210 C 
ENDBRANCH   1  31
TORSDOF 3
ENDMDL
MODEL 2
REMARK VINA RESULT:      -9.4      4.029      7.058
REMARK  3 active torsions:
REMARK  status: ('A' for Active; 'I' for Inactive)
REMARK    1  A    between atoms: O1_2  and  C2_3 
REMARK    2  A    between atoms: C6_7  and  N1_8 
REMARK    3  A    between atoms: N1_8  and  C7_9 
ROOT
HETATM    1  C2  UNL     1      26.293   0.188  54.373  1.00  0.00     0.098 C 
HETATM    2  C3  UNL     1      25.410  -0.581  54.987  1.00  0.00     0.017 C 
HETATM    3  C4  UNL     1      24.033  -0.592  54.435  1.00  0.00     0.072 C 
HETATM    4  C5  UNL     1      23.973  -0.033  53.067  1.00  0.00    -0.006 C 
HETATM    5  C6  UNL     1      22.908   0.600  52.545  1.00  0.00     0.136 C 
HETATM    6  N2  UNL     1      22.960   1.085  51.240  1.00  0.00    -0.224 NA
HETATM    7  C13 UNL     1      22.510   2.143  50.738  1.00  0.00     0.237 C 
HETATM    8  N3  UNL     1      21.916   3.409  50.373  1.00  0.00    -0.220 NA
HETATM    9  C14 UNL     1      22.779   4.404  50.435  1.00  0.00     0.170 C 
HETATM   10  C15 UNL     1      24.199   4.103  50.856  1.00  0.00     0.358 C 
HETATM   11  N4  UNL     1      25.174   4.828  50.165  1.00  0.00     0.098 NA
HETATM   12  C16 UNL     1      26.388   4.162  49.877  1.00  0.00     0.275 C 
HETATM   13  C17 UNL     1      26.604   2.774  50.316  1.00  0.00     0.057 C 
HETATM   14  C18 UNL     1      26.675   2.493  51.780  1.00  0.00     0.177 C 
HETATM   15  O2  UNL     1      26.805   1.071  51.916  1.00  0.00    -0.348 OA
HETATM   16  C19 UNL     1      26.171   0.395  52.936  1.00  0.00     0.102 C 
HETATM   17  C20 UNL     1      25.171  -0.196  52.250  1.00  0.00     0.050 C 
HETATM   18  C21 UNL     1      24.636   5.534  49.024  1.00  0.00     0.299 C 
HETATM   19  C22 UNL     1      23.583   6.522  49.550  1.00  0.00     0.207 C 
HETATM   20  O3  UNL     1      22.526   5.752  50.150  1.00  0.00    -0.335 OA
ENDROOT
BRANCH   5  21
HETATM   21  N1  UNL     1      21.864   0.639  53.527  1.00  0.00    -0.340 N 
HETATM   22  H7  UNL     1      22.034   1.200  54.391  1.00  0.00     0.167 HD
BRANCH  21  23
HETATM   23  C7  UNL     1      20.629  -0.058  53.349  1.00  0.00     0.035 A 
HETATM   24  C8  UNL     1      20.340  -1.212  54.022  1.00  0.00     0.032 A 
HETATM   25  C9  UNL     1      19.123  -1.830  53.798  1.00  0.00     0.046 A 
HETATM   26  C10 UNL     1      18.240  -1.270  52.906  1.00  0.00     0.138 A 
HETATM   27  F1  UNL     1      17.039  -1.883  52.688  1.00  0.00    -0.204 F 
HETATM   28  C11 UNL     1      18.510  -0.101  52.213  1.00  0.00     0.074 A 
HETATM   29 CL1  UNL     1      17.413   0.625  51.083  1.00  0.00    -0.081 Cl
HETATM   30  C12 UNL     1      19.719   0.475  52.462  1.00  0.00     0.056 A 
ENDBRANCH  21  23
ENDBRANCH   5  21
BRANCH   1  31
HETATM   31  O1  UNL     1      27.380   0.889  54.827  1.00  0.00    -0.353 OA
HETATM   32  C1  UNL     1      28.672   0.348  54.806  1.00  0.00     0.210 C 
ENDBRANCH   1  31
TORSDOF 3
ENDMDL
MODEL 3
REMARK VINA RESULT:      -9.0      2.481      5.464
REMARK  3 active torsions:
REMARK  status: ('A' for Active; 'I' for Inactive)
REMARK    1  A    between atoms: O1_2  and  C2_3 
REMARK    2  A    between atoms: C6_7  and  N1_8 
REMARK    3  A    between atoms: N1_8  and  C7_9 
ROOT
HETATM    1  C2  UNL     1      21.458   4.899  50.152  1.00  0.00     0.098 C 
HETATM    2  C3  UNL     1      21.921   5.921  49.453  1.00  0.00     0.017 C 
HETATM    3  C4  UNL     1      23.380   5.942  49.184  1.00  0.00     0.072 C 
HETATM    4  C5  UNL     1      24.012   4.626  49.419  1.00  0.00    -0.006 C 
HETATM    5  C6  UNL     1      25.285   4.447  49.812  1.00  0.00     0.136 C 
HETATM    6  N2  UNL     1      25.779   3.158  50.000  1.00  0.00    -0.224 NA
HETATM    7  C13 UNL     1      26.553   2.693  50.872  1.00  0.00     0.237 C 
HETATM    8  N3  UNL     1      27.447   2.372  51.960  1.00  0.00    -0.220 NA
HETATM    9  C14 UNL     1      26.804   1.936  53.025  1.00  0.00     0.170 C 
HETATM   10  C15 UNL     1      25.298   1.832  52.968  1.00  0.00     0.358 C 
HETATM   11  N4  UNL     1      24.769   0.712  53.616  1.00  0.00     0.098 NA
HETATM   12  C16 UNL     1      23.636   0.102  53.026  1.00  0.00     0.275 C 
HETATM   13  C17 UNL     1      23.042   0.654  51.798  1.00  0.00     0.057 C 
HETATM   14  C18 UNL     1      22.415   2.007  51.855  1.00  0.00     0.177 C 
HETATM   15  O2  UNL     1      22.001   2.320  50.518  1.00  0.00    -0.348 OA
HETATM   16  C19 UNL     1      22.109   3.603  50.023  1.00  0.00     0.102 C 
HETATM   17  C20 UNL     1      23.167   3.455  49.200  1.00  0.00     0.050 C 
HETATM   18  C21 UNL     1      25.786  -0.241  53.996  1.00  0.00     0.299 C 
HETATM   19  C22 UNL     1      26.744   0.470  54.965  1.00  0.00     0.207 C 
HETATM   20  O3  UNL     1      27.371   1.545  54.245  1.00  0.00    -0.335 OA
ENDROOT
BRANCH   5  21
HETATM   21  N1  UNL     1      25.908   5.729  49.962  1.00  0.00    -0.340 N 
HETATM   22  H7  UNL     1      25.666   6.287  50.810  1.00  0.00     0.167 HD
BRANCH  21  23
HETATM   23  C7  UNL     1      26.830   6.242  48.999  1.00  0.00     0.035 A 
HETATM   24  C8  UNL     1      26.577   7.377  48.280  1.00  0.00     0.032 A 
HETATM   25  C9  UNL     1      27.517   7.813  47.364  1.00  0.00     0.046 A 
HETATM   26  C10 UNL     1      28.677   7.095  47.200  1.00  0.00     0.138 A 
HETATM   27  F1  UNL     1      29.604   7.528  46.295  1.00  0.00    -0.204 F 
HETATM   28  C11 UNL     1      28.957   5.942  47.916  1.00  0.00     0.074 A 
HETATM   29 CL1  UNL     1      30.412   5.019  47.729  1.00  0.00    -0.081 Cl
HETATM   30  C12 UNL     1      28.004   5.547  48.808  1.00  0.00     0.056 A 
ENDBRANCH  21  23
ENDBRANCH   5  21
BRANCH   1  31
HETATM   31  O1  UNL     1      20.420   4.784  51.040  1.00  0.00    -0.353 OA
HETATM   32  C1  UNL     1      19.160   4.311  50.651  1.00  0.00     0.210 C 
ENDBRANCH   1  31
TORSDOF 3
ENDMDL
MODEL 4
REMARK VINA RESULT:      -8.8      2.486      2.890
REMARK  3 active torsions:
REMARK  status: ('A' for Active; 'I' for Inactive)
REMARK    1  A    between atoms: O1_2  and  C2_3 
REMARK    2  A    between atoms: C6_7  and  N1_8 
REMARK    3  A    between atoms: N1_8  and  C7_9 
ROOT
HETATM    1  C2  UNL     1      26.255   0.608  52.218  1.00  0.00     0.098 C 
HETATM    2  C3  UNL     1      26.944   1.611  51.701  1.00  0.00     0.017 C 
HETATM    3  C4  UNL     1      26.181   2.837  51.356  1.00  0.00     0.072 C 
HETATM    4  C5  UNL     1      24.849   2.868  51.997  1.00  0.00    -0.006 C 
HETATM    5  C6  UNL     1      23.767   3.477  51.483  1.00  0.00     0.136 C 
HETATM    6  N2  UNL     1      22.559   3.446  52.177  1.00  0.00    -0.224 NA
HETATM    7  C13 UNL     1      21.379   3.321  51.768  1.00  0.00     0.237 C 
HETATM    8  N3  UNL     1      20.114   3.164  51.086  1.00  0.00    -0.220 NA
HETATM    9  C14 UNL     1      19.737   1.903  51.014  1.00  0.00     0.170 C 
HETATM   10  C15 UNL     1      20.628   0.846  51.624  1.00  0.00     0.358 C 
HETATM   11  N4  UNL     1      19.942  -0.190  52.266  1.00  0.00     0.098 NA
HETATM   12  C16 UNL     1      20.532  -0.724  53.436  1.00  0.00     0.275 C 
HETATM   13  C17 UNL     1      21.822  -0.213  53.925  1.00  0.00     0.057 C 
HETATM   14  C18 UNL     1      23.038  -0.429  53.088  1.00  0.00     0.177 C 
HETATM   15  O2  UNL     1      24.118   0.235  53.758  1.00  0.00    -0.348 OA
HETATM   16  C19 UNL     1      25.093   0.901  53.047  1.00  0.00     0.102 C 
HETATM   17  C20 UNL     1      24.734   2.179  53.280  1.00  0.00     0.050 C 
HETATM   18  C21 UNL     1      18.534   0.091  52.424  1.00  0.00     0.299 C 
HETATM   19  C22 UNL     1      17.939   0.265  51.018  1.00  0.00     0.207 C 
HETATM   20  O3  UNL     1      18.568   1.411  50.418  1.00  0.00    -0.335 OA
ENDROOT
BRANCH   5  21
HETATM   21  N1  UNL     1      24.123   4.077  50.231  1.00  0.00    -0.340 N 
HETATM   22  H7  UNL     1      24.959   4.701  50.215  1.00  0.00     0.167 HD
BRANCH  21  23
HETATM   23  C7  UNL     1      23.374   3.842  49.038  1.00  0.00     0.035 A 
HETATM   24  C8  UNL     1      23.008   2.586  48.642  1.00  0.00     0.032 A 
HETATM   25  C9  UNL     1      22.283   2.437  47.473  1.00  0.00     0.046 A 
HETATM   26  C10 UNL     1      21.952   3.551  46.742  1.00  0.00     0.138 A 
HETATM   27  F1  UNL     1      21.235   3.401  45.589  1.00  0.00    -0.204 F 
HETATM   28  C11 UNL     1      22.311   4.835  47.122  1.00  0.00     0.074 A 
HETATM   29 CL1  UNL     1      21.906   6.258  46.218  1.00  0.00    -0.081 Cl
HETATM   30  C12 UNL     1      23.024   4.938  48.279  1.00  0.00     0.056 A 
ENDBRANCH  21  23
ENDBRANCH   5  21
BRANCH   1  31
HETATM   31  O1  UNL     1      26.407  -0.752  52.138  1.00  0.00    -0.353 OA
HETATM   32  C1  UNL     1      27.305  -1.448  52.959  1.00  0.00     0.210 C 
ENDBRANCH   1  31
TORSDOF 3
ENDMDL
MODEL 5
REMARK VINA RESULT:      -8.8      5.586      9.231
REMARK  3 active torsions:
REMARK  status: ('A' for Active; 'I' for Inactive)
REMARK    1  A    between atoms: O1_2  and  C2_3 
REMARK    2  A    between atoms: C6_7  and  N1_8 
REMARK    3  A    between atoms: N1_8  and  C7_9 
ROOT
HETATM    1  C2  UNL     1      29.345  10.854  48.784  1.00  0.00     0.098 C 
HETATM    2  C3  UNL     1      30.651  10.657  48.840  1.00  0.00     0.017 C 
HETATM    3  C4  UNL     1      31.123   9.259  48.679  1.00  0.00     0.072 C 
HETATM    4  C5  UNL     1      30.083   8.378  48.108  1.00  0.00    -0.006 C 
HETATM    5  C6  UNL     1      29.974   7.061  48.357  1.00  0.00     0.136 C 
HETATM    6  N2  UNL     1      28.953   6.325  47.759  1.00  0.00    -0.224 NA
HETATM    7  C13 UNL     1      28.237   5.397  48.209  1.00  0.00     0.237 C 
HETATM    8  N3  UNL     1      27.532   4.357  48.922  1.00  0.00    -0.220 NA
HETATM    9  C14 UNL     1      26.435   4.802  49.502  1.00  0.00     0.170 C 
HETATM   10  C15 UNL     1      26.079   6.262  49.350  1.00  0.00     0.358 C 
HETATM   11  N4  UNL     1      24.712   6.511  49.193  1.00  0.00     0.098 NA
HETATM   12  C16 UNL     1      24.346   7.566  48.323  1.00  0.00     0.275 C 
HETATM   13  C17 UNL     1      25.375   8.368  47.643  1.00  0.00     0.057 C 
HETATM   14  C18 UNL     1      26.275   9.223  48.472  1.00  0.00     0.177 C 
HETATM   15  O2  UNL     1      27.218   9.816  47.568  1.00  0.00    -0.348 OA
HETATM   16  C19 UNL     1      28.536   9.993  47.932  1.00  0.00     0.102 C 
HETATM   17  C20 UNL     1      29.119   9.012  47.213  1.00  0.00     0.050 C 
HETATM   18  C21 UNL     1      23.950   5.305  48.965  1.00  0.00     0.299 C 
HETATM   19  C22 UNL     1      24.138   4.403  50.194  1.00  0.00     0.207 C 
HETATM   20  O3  UNL     1      25.531   4.056  50.270  1.00  0.00    -0.335 OA
ENDROOT
BRANCH   5  21
HETATM   21  N1  UNL     1      31.020   6.670  49.255  1.00  0.00    -0.340 N 
HETATM   22  H7  UNL     1      30.929   6.955  50.255  1.00  0.00     0.167 HD
BRANCH  21  23
HETATM   23  C7  UNL     1      32.153   5.919  48.818  1.00  0.00     0.035 A 
HETATM   24  C8  UNL     1      33.436   6.346  49.026  1.00  0.00     0.032 A 
HETATM   25  C9  UNL     1      34.483   5.564  48.574  1.00  0.00     0.046 A 
HETATM   26  C10 UNL     1      34.209   4.383  47.929  1.00  0.00     0.138 A 
HETATM   27  F1  UNL     1      35.246   3.612  47.485  1.00  0.00    -0.204 F 
HETATM   28  C11 UNL     1      32.919   3.928  47.707  1.00  0.00     0.074 A 
HETATM   29 CL1  UNL     1      32.546   2.441  46.897  1.00  0.00    -0.081 Cl
HETATM   30  C12 UNL     1      31.916   4.728  48.168  1.00  0.00     0.056 A 
ENDBRANCH  21  23
ENDBRANCH   5  21
BRANCH   1  31
HETATM   31  O1  UNL     1      28.522  11.761  49.400  1.00  0.00    -0.353 OA
HETATM   32  C1  UNL     1      28.225  13.004  48.825  1.00  0.00     0.210 C 
ENDBRANCH   1  31
TORSDOF 3
ENDMDL
MODEL 6
REMARK VINA RESULT:      -8.7      3.571      5.728
REMARK  3 active torsions:
REMARK  status: ('A' for Active; 'I' for Inactive)
REMARK    1  A    between atoms: O1_2  and  C2_3 
REMARK    2  A    between atoms: C6_7  and  N1_8 
REMARK    3  A    between atoms: N1_8  and  C7_9 
ROOT
HETATM    1  C2  UNL     1      20.518  -0.365  53.056  1.00  0.00     0.098 C 
HETATM    2  C3  UNL     1      21.542  -1.052  53.532  1.00  0.00     0.017 C 
HETATM    3  C4  UNL     1      22.883  -0.429  53.404  1.00  0.00     0.072 C 
HETATM    4  C5  UNL     1      22.803   1.017  53.107  1.00  0.00    -0.006 C 
HETATM    5  C6  UNL     1      23.720   1.706  52.406  1.00  0.00     0.136 C 
HETATM    6  N2  UNL     1      23.545   3.072  52.190  1.00  0.00    -0.224 NA
HETATM    7  C13 UNL     1      23.780   3.780  51.181  1.00  0.00     0.237 C 
HETATM    8  N3  UNL     1      24.122   4.400  49.921  1.00  0.00    -0.220 NA
HETATM    9  C14 UNL     1      23.094   4.464  49.098  1.00  0.00     0.170 C 
HETATM   10  C15 UNL     1      21.765   3.911  49.559  1.00  0.00     0.358 C 
HETATM   11  N4  UNL     1      20.656   4.661  49.156  1.00  0.00     0.098 NA
HETATM   12  C16 UNL     1      19.576   4.753  50.066  1.00  0.00     0.275 C 
HETATM   13  C17 UNL     1      19.629   4.061  51.364  1.00  0.00     0.057 C 
HETATM   14  C18 UNL     1      19.651   2.569  51.376  1.00  0.00     0.177 C 
HETATM   15  O2  UNL     1      19.787   2.175  52.749  1.00  0.00    -0.348 OA
HETATM   16  C19 UNL     1      20.561   1.090  53.103  1.00  0.00     0.102 C 
HETATM   17  C20 UNL     1      21.633   1.719  53.627  1.00  0.00     0.050 C 
HETATM   18  C21 UNL     1      21.024   5.939  48.592  1.00  0.00     0.299 C 
HETATM   19  C22 UNL     1      21.893   5.662  47.355  1.00  0.00     0.207 C 
HETATM   20  O3  UNL     1      23.088   4.999  47.804  1.00  0.00    -0.335 OA
ENDROOT
BRANCH   5  21
HETATM   21  N1  UNL     1      24.766   0.812  52.004  1.00  0.00    -0.340 N 
HETATM   22  H7  UNL     1      24.530   0.083  51.295  1.00  0.00     0.167 HD
BRANCH  21  23
HETATM   23  C7  UNL     1      26.086   0.898  52.541  1.00  0.00     0.035 A 
HETATM   24  C8  UNL     1      26.631   2.084  52.949  1.00  0.00     0.032 A 
HETATM   25  C9  UNL     1      27.917   2.089  53.459  1.00  0.00     0.046 A 
HETATM   26  C10 UNL     1      28.611   0.907  53.542  1.00  0.00     0.138 A 
HETATM   27  F1  UNL     1      29.880   0.915  54.046  1.00  0.00    -0.204 F 
HETATM   28  C11 UNL     1      28.081  -0.308  53.135  1.00  0.00     0.074 A 
HETATM   29 CL1  UNL     1      28.935  -1.813  53.229  1.00  0.00    -0.081 Cl
HETATM   30  C12 UNL     1      26.812  -0.269  52.639  1.00  0.00     0.056 A 
ENDBRANCH  21  23
ENDBRANCH   5  21
BRANCH   1  31
HETATM   31  O1  UNL     1      19.334  -0.752  52.484  1.00  0.00    -0.353 OA
HETATM   32  C1  UNL     1      18.199  -1.042  53.253  1.00  0.00     0.210 C 
ENDBRANCH   1  31
TORSDOF 3
ENDMDL
MODEL 7
REMARK VINA RESULT:      -8.5      3.626      5.882
REMARK  3 active torsions:
REMARK  status: ('A' for Active; 'I' for Inactive)
REMARK    1  A    between atoms: O1_2  and  C2_3 
REMARK    2  A    between atoms: C6_7  and  N1_8 
REMARK    3  A    between atoms: N1_8  and  C7_9 
ROOT
HETATM    1  C2  UNL     1      22.445   5.757  50.948  1.00  0.00     0.098 C 
HETATM    2  C3  UNL     1      23.699   5.793  51.366  1.00  0.00     0.017 C 
HETATM    3  C4  UNL     1      24.311   4.499  51.756  1.00  0.00     0.072 C 
HETATM    4  C5  UNL     1      23.541   3.340  51.256  1.00  0.00    -0.006 C 
HETATM    5  C6  UNL     1      23.478   2.143  51.864  1.00  0.00     0.136 C 
HETATM    6  N2  UNL     1      22.722   1.117  51.300  1.00  0.00    -0.224 NA
HETATM    7  C13 UNL     1      21.990   0.247  51.832  1.00  0.00     0.237 C 
HETATM    8  N3  UNL     1      21.208  -0.656  52.645  1.00  0.00    -0.220 NA
HETATM    9  C14 UNL     1      19.962  -0.249  52.787  1.00  0.00     0.170 C 
HETATM   10  C15 UNL     1      19.540   1.037  52.114  1.00  0.00     0.358 C 
HETATM   11  N4  UNL     1      18.251   1.012  51.574  1.00  0.00     0.098 NA
HETATM   12  C16 UNL     1      18.048   1.715  50.362  1.00  0.00     0.275 C 
HETATM   13  C17 UNL     1      19.153   2.453  49.730  1.00  0.00     0.057 C 
HETATM   14  C18 UNL     1      19.721   3.634  50.442  1.00  0.00     0.177 C 
HETATM   15  O2  UNL     1      20.820   4.099  49.647  1.00  0.00    -0.348 OA
HETATM   16  C19 UNL     1      21.971   4.577  50.237  1.00  0.00     0.102 C 
HETATM   17  C20 UNL     1      22.806   3.542  50.010  1.00  0.00     0.050 C 
HETATM   18  C21 UNL     1      17.682  -0.316  51.555  1.00  0.00     0.299 C 
HETATM   19  C22 UNL     1      17.604  -0.803  53.010  1.00  0.00     0.207 C 
HETATM   20  O3  UNL     1      18.949  -0.890  53.512  1.00  0.00    -0.335 OA
ENDROOT
BRANCH   5  21
HETATM   21  N1  UNL     1      24.271   2.186  53.057  1.00  0.00    -0.340 N 
HETATM   22  H7  UNL     1      23.886   2.710  53.874  1.00  0.00     0.167 HD
BRANCH  21  23
HETATM   23  C7  UNL     1      25.543   1.543  53.147  1.00  0.00     0.035 A 
HETATM   24  C8  UNL     1      26.655   2.188  53.612  1.00  0.00     0.032 A 
HETATM   25  C9  UNL     1      27.853   1.499  53.669  1.00  0.00     0.046 A 
HETATM   26  C10 UNL     1      27.895   0.189  53.258  1.00  0.00     0.138 A 
HETATM   27  F1  UNL     1      29.079  -0.489  53.316  1.00  0.00    -0.204 F 
HETATM   28  C11 UNL     1      26.782  -0.487  52.783  1.00  0.00     0.074 A 
HETATM   29 CL1  UNL     1      26.807  -2.139  52.258  1.00  0.00    -0.081 Cl
HETATM   30  C12 UNL     1      25.622   0.228  52.742  1.00  0.00     0.056 A 
ENDBRANCH  21  23
ENDBRANCH   5  21
BRANCH   1  31
HETATM   31  O1  UNL     1      21.414   6.655  51.046  1.00  0.00    -0.353 OA
HETATM   32  C1  UNL     1      21.210   7.657  50.088  1.00  0.00     0.210 C 
ENDBRANCH   1  31
TORSDOF 3
ENDMDL
MODEL 8
REMARK VINA RESULT:      -8.5      3.457      6.654
REMARK  3 active torsions:
REMARK  status: ('A' for Active; 'I' for Inactive)
REMARK    1  A    between atoms: O1_2  and  C2_3 
REMARK    2  A    between atoms: C6_7  and  N1_8 
REMARK    3  A    between atoms: N1_8  and  C7_9 
ROOT
HETATM    1  C2  UNL     1      19.511   0.870  51.321  1.00  0.00     0.098 C 
HETATM    2  C3  UNL     1      20.151  -0.091  51.965  1.00  0.00     0.017 C 
HETATM    3  C4  UNL     1      21.538   0.204  52.400  1.00  0.00     0.072 C 
HETATM    4  C5  UNL     1      21.838   1.652  52.374  1.00  0.00    -0.006 C 
HETATM    5  C6  UNL     1      23.055   2.178  52.154  1.00  0.00     0.136 C 
HETATM    6  N2  UNL     1      23.224   3.561  52.156  1.00  0.00    -0.224 NA
HETATM    7  C13 UNL     1      23.932   4.304  51.433  1.00  0.00     0.237 C 
HETATM    8  N3  UNL     1      24.811   4.963  50.494  1.00  0.00    -0.220 NA
HETATM    9  C14 UNL     1      24.178   5.363  49.410  1.00  0.00     0.170 C 
HETATM   10  C15 UNL     1      22.694   5.096  49.300  1.00  0.00     0.358 C 
HETATM   11  N4  UNL     1      21.962   6.129  48.709  1.00  0.00     0.098 NA
HETATM   12  C16 UNL     1      20.664   6.371  49.218  1.00  0.00     0.275 C 
HETATM   13  C17 UNL     1      20.120   5.543  50.306  1.00  0.00     0.057 C 
HETATM   14  C18 UNL     1      19.860   4.098  50.041  1.00  0.00     0.177 C 
HETATM   15  O2  UNL     1      19.420   3.529  51.281  1.00  0.00    -0.348 OA
HETATM   16  C19 UNL     1      19.802   2.258  51.655  1.00  0.00     0.102 C 
HETATM   17  C20 UNL     1      20.710   2.549  52.608  1.00  0.00     0.050 C 
HETATM   18  C21 UNL     1      22.737   7.338  48.548  1.00  0.00     0.299 C 
HETATM   19  C22 UNL     1      23.925   7.004  47.633  1.00  0.00     0.207 C 
HETATM   20  O3  UNL     1      24.736   6.029  48.311  1.00  0.00    -0.335 OA
ENDROOT
BRANCH   5  21
HETATM   21  N1  UNL     1      23.992   1.111  51.952  1.00  0.00    -0.340 N 
HETATM   22  H7  UNL     1      23.875   0.522  51.098  1.00  0.00     0.167 HD
BRANCH  21  23
HETATM   23  C7  UNL     1      25.052   0.848  52.871  1.00  0.00     0.035 A 
HETATM   24  C8  UNL     1      24.986  -0.161  53.792  1.00  0.00     0.032 A 
HETATM   25  C9  UNL     1      26.054  -0.355  54.650  1.00  0.00     0.046 A 
HETATM   26  C10 UNL     1      27.148   0.470  54.557  1.00  0.00     0.138 A 
HETATM   27  F1  UNL     1      28.201   0.275  55.405  1.00  0.00    -0.204 F 
HETATM   28  C11 UNL     1      27.239   1.499  53.633  1.00  0.00     0.074 A 
HETATM   29 CL1  UNL     1      28.609   2.552  53.494  1.00  0.00    -0.081 Cl
HETATM   30  C12 UNL     1      26.167   1.656  52.807  1.00  0.00     0.056 A 
ENDBRANCH  21  23
ENDBRANCH   5  21
BRANCH   1  31
HETATM   31  O1  UNL     1      18.562   0.845  50.333  1.00  0.00    -0.353 OA
HETATM   32  C1  UNL     1      17.227   0.507  50.594  1.00  0.00     0.210 C 
ENDBRANCH   1  31
TORSDOF 3
ENDMDL
MODEL 9
REMARK VINA RESULT:      -8.4      3.857      8.096
REMARK  3 active torsions:
REMARK  status: ('A' for Active; 'I' for Inactive)
REMARK    1  A    between atoms: O1_2  and  C2_3 
REMARK    2  A    between atoms: C6_7  and  N1_8 
REMARK    3  A    between atoms: N1_8  and  C7_9 
ROOT
HETATM    1  C2  UNL     1      19.231   3.883  49.110  1.00  0.00     0.098 C 
HETATM    2  C3  UNL     1      18.758   2.826  49.749  1.00  0.00     0.017 C 
HETATM    3  C4  UNL     1      19.667   2.170  50.722  1.00  0.00     0.072 C 
HETATM    4  C5  UNL     1      20.811   3.032  51.089  1.00  0.00    -0.006 C 
HETATM    5  C6  UNL     1      22.025   2.581  51.447  1.00  0.00     0.136 C 
HETATM    6  N2  UNL     1      23.032   3.486  51.779  1.00  0.00    -0.224 NA
HETATM    7  C13 UNL     1      24.262   3.473  51.531  1.00  0.00     0.237 C 
HETATM    8  N3  UNL     1      25.636   3.259  51.138  1.00  0.00    -0.220 NA
HETATM    9  C14 UNL     1      25.927   3.846  49.994  1.00  0.00     0.170 C 
HETATM   10  C15 UNL     1      24.843   4.625  49.285  1.00  0.00     0.358 C 
HETATM   11  N4  UNL     1      25.282   5.802  48.673  1.00  0.00     0.098 NA
HETATM   12  C16 UNL     1      24.398   6.907  48.694  1.00  0.00     0.275 C 
HETATM   13  C17 UNL     1      23.069   6.792  49.317  1.00  0.00     0.057 C 
HETATM   14  C18 UNL     1      22.071   5.870  48.701  1.00  0.00     0.177 C 
HETATM   15  O2  UNL     1      20.916   5.894  49.551  1.00  0.00    -0.348 OA
HETATM   16  C19 UNL     1      20.185   4.750  49.789  1.00  0.00     0.102 C 
HETATM   17  C20 UNL     1      20.573   4.472  51.050  1.00  0.00     0.050 C 
HETATM   18  C21 UNL     1      26.631   6.155  49.051  1.00  0.00     0.299 C 
HETATM   19  C22 UNL     1      27.549   5.007  48.603  1.00  0.00     0.207 C 
HETATM   20  O3  UNL     1      27.163   3.831  49.335  1.00  0.00    -0.335 OA
ENDROOT
BRANCH   5  21
HETATM   21  N1  UNL     1      22.017   1.147  51.410  1.00  0.00    -0.340 N 
HETATM   22  H7  UNL     1      21.847   0.690  50.488  1.00  0.00     0.167 HD
BRANCH  21  23
HETATM   23  C7  UNL     1      22.232   0.357  52.580  1.00  0.00     0.035 A 
HETATM   24  C8  UNL     1      21.200  -0.200  53.283  1.00  0.00     0.032 A 
HETATM   25  C9  UNL     1      21.487  -0.954  54.407  1.00  0.00     0.046 A 
HETATM   26  C10 UNL     1      22.796  -1.121  54.788  1.00  0.00     0.138 A 
HETATM   27  F1  UNL     1      23.075  -1.867  55.898  1.00  0.00    -0.204 F 
HETATM   28  C11 UNL     1      23.859  -0.567  54.092  1.00  0.00     0.074 A 
HETATM   29 CL1  UNL     1      25.519  -0.763  54.551  1.00  0.00    -0.081 Cl
HETATM   30  C12 UNL     1      23.533   0.168  52.991  1.00  0.00     0.056 A 
ENDBRANCH  21  23
ENDBRANCH   5  21
BRANCH   1  31
HETATM   31  O1  UNL     1      19.003   4.378  47.853  1.00  0.00    -0.353 OA
HETATM   32  C1  UNL     1      19.561   3.788  46.710  1.00  0.00     0.210 C 
ENDBRANCH   1  31
TORSDOF 3
ENDMDL
