MODEL 1
REMARK VINA RESULT:      -8.8      0.000      0.000
REMARK  2 active torsions:
REMARK  status: ('A' for Active; 'I' for Inactive)
REMARK    1  A    between atoms: C4_7  and  N4_8 
REMARK    2  A    between atoms: N4_8  and  C5_9 
ROOT
HETATM    1  C1  UNL     1      27.623   1.847  52.499  1.00  0.00    -0.001 C 
HETATM    2  C2  UNL     1      26.603   1.990  51.672  1.00  0.00     0.117 C 
HETATM    3  N1  UNL     1      25.243   2.085  51.971  1.00  0.00    -0.223 N 
HETATM    4  N2  UNL     1      24.703   3.274  51.620  1.00  0.00    -0.159 NA
HETATM    5  C3  UNL     1      23.489   3.644  51.771  1.00  0.00     0.258 A 
HETATM    6  N3  UNL     1      22.427   2.883  52.346  1.00  0.00    -0.219 NA
HETATM    7  C4  UNL     1      22.767   1.710  52.741  1.00  0.00     0.177 A 
HETATM    8  C11 UNL     1      24.148   1.388  52.529  1.00  0.00     0.192 A 
HETATM    9  N5  UNL     1      24.848   0.450  52.741  1.00  0.00    -0.266 NA
HETATM   10  C12 UNL     1      25.051  -0.819  53.215  1.00  0.00     0.170 C 
HETATM   11  C13 UNL     1      26.453  -1.342  52.857  1.00  0.00     0.138 C 
HETATM   12  N6  UNL     1      27.405  -0.474  53.379  1.00  0.00    -0.410 N 
HETATM   13  C14 UNL     1      28.765  -0.839  53.431  1.00  0.00     0.117 C 
HETATM   14  C15 UNL     1      29.709   0.296  53.600  1.00  0.00     0.020 C 
HETATM   15  C16 UNL     1      29.205   1.476  54.374  1.00  0.00     0.012 C 
HETATM   16  C17 UNL     1      27.745   1.734  53.970  1.00  0.00     0.027 C 
HETATM   17  C18 UNL     1      27.083   0.420  54.420  1.00  0.00     0.125 C 
ENDROOT
BRANCH   7  18
HETATM   18  N4  UNL     1      21.996   0.698  53.345  1.00  0.00    -0.338 N 
HETATM   19  H4  UNL     1      22.344   0.233  54.208  1.00  0.00     0.167 HD
BRANCH  18  20
HETATM   20  C5  UNL     1      20.764   0.365  52.740  1.00  0.00     0.033 A 
HETATM   21  C6  UNL     1      19.918  -0.391  53.544  1.00  0.00     0.029 A 
HETATM   22  C7  UNL     1      18.671  -0.823  53.155  1.00  0.00     0.002 A 
HETATM   23  C8  UNL     1      18.187  -0.523  51.924  1.00  0.00     0.000 A 
HETATM   24  C9  UNL     1      18.988   0.228  51.086  1.00  0.00     0.002 A 
HETATM   25  C10 UNL     1      20.226   0.631  51.529  1.00  0.00     0.029 A 
ENDBRANCH  18  20
ENDBRANCH   7  18
TORSDOF 2
ENDMDL
MODEL 2
REMARK VINA RESULT:      -8.8      1.963      3.829
REMARK  2 active torsions:
REMARK  status: ('A' for Active; 'I' for Inactive)
REMARK    1  A    between atoms: C4_7  and  N4_8 
REMARK    2  A    between atoms: N4_8  and  C5_9 
ROOT
HETATM    1  C1  UNL     1      25.908  -1.077  54.155  1.00  0.00    -0.001 C 
HETATM    2  C2  UNL     1      24.743  -0.746  54.684  1.00  0.00     0.117 C 
HETATM    3  N1  UNL     1      23.582  -0.316  54.039  1.00  0.00    -0.223 N 
HETATM    4  N2  UNL     1      22.542  -1.166  54.194  1.00  0.00    -0.159 NA
HETATM    5  C3  UNL     1      21.362  -1.036  53.720  1.00  0.00     0.258 A 
HETATM    6  N3  UNL     1      20.876   0.040  52.917  1.00  0.00    -0.219 NA
HETATM    7  C4  UNL     1      21.744   0.952  52.668  1.00  0.00     0.177 A 
HETATM    8  C11 UNL     1      23.037   0.716  53.243  1.00  0.00     0.192 A 
HETATM    9  N5  UNL     1      24.082   1.282  53.254  1.00  0.00    -0.266 NA
HETATM   10  C12 UNL     1      24.888   2.331  52.896  1.00  0.00     0.170 C 
HETATM   11  C13 UNL     1      26.242   2.281  53.625  1.00  0.00     0.138 C 
HETATM   12  N6  UNL     1      26.866   1.072  53.336  1.00  0.00    -0.410 N 
HETATM   13  C14 UNL     1      28.223   0.865  53.652  1.00  0.00     0.117 C 
HETATM   14  C15 UNL     1      28.643  -0.559  53.692  1.00  0.00     0.020 C 
HETATM   15  C16 UNL     1      27.923  -1.495  52.770  1.00  0.00     0.012 C 
HETATM   16  C17 UNL     1      26.431  -1.127  52.772  1.00  0.00     0.027 C 
HETATM   17  C18 UNL     1      26.487   0.307  52.214  1.00  0.00     0.125 C 
ENDROOT
BRANCH   7  18
HETATM   18  N4  UNL     1      21.622   2.140  51.922  1.00  0.00    -0.338 N 
HETATM   19  H4  UNL     1      21.382   3.028  52.408  1.00  0.00     0.167 HD
BRANCH  18  20
HETATM   20  C5  UNL     1      21.840   2.064  50.529  1.00  0.00     0.033 A 
HETATM   21  C6  UNL     1      22.679   3.052  50.027  1.00  0.00     0.029 A 
HETATM   22  C7  UNL     1      23.027   3.164  48.700  1.00  0.00     0.002 A 
HETATM   23  C8  UNL     1      22.552   2.284  47.783  1.00  0.00     0.000 A 
HETATM   24  C9  UNL     1      21.715   1.282  48.231  1.00  0.00     0.002 A 
HETATM   25  C10 UNL     1      21.401   1.220  49.568  1.00  0.00     0.029 A 
ENDBRANCH  18  20
ENDBRANCH   7  18
TORSDOF 2
ENDMDL
MODEL 3
REMARK VINA RESULT:      -8.3      1.887      7.168
REMARK  2 active torsions:
REMARK  status: ('A' for Active; 'I' for Inactive)
REMARK    1  A    between atoms: C4_7  and  N4_8 
REMARK    2  A    between atoms: N4_8  and  C5_9 
ROOT
HETATM    1  C1  UNL     1      20.257   1.243  51.810  1.00  0.00    -0.001 C 
HETATM    2  C2  UNL     1      20.938   0.125  51.991  1.00  0.00     0.117 C 
HETATM    3  N1  UNL     1      22.068  -0.090  52.784  1.00  0.00    -0.223 N 
HETATM    4  N2  UNL     1      21.850  -0.966  53.791  1.00  0.00    -0.159 NA
HETATM    5  C3  UNL     1      22.692  -1.353  54.671  1.00  0.00     0.258 A 
HETATM    6  N3  UNL     1      24.056  -0.949  54.787  1.00  0.00    -0.219 NA
HETATM    7  C4  UNL     1      24.439  -0.106  53.898  1.00  0.00     0.177 A 
HETATM    8  C11 UNL     1      23.422   0.267  52.956  1.00  0.00     0.192 A 
HETATM    9  N5  UNL     1      23.356   0.991  52.015  1.00  0.00    -0.266 NA
HETATM   10  C12 UNL     1      23.914   1.889  51.144  1.00  0.00     0.170 C 
HETATM   11  C13 UNL     1      22.969   2.205  49.972  1.00  0.00     0.138 C 
HETATM   12  N6  UNL     1      21.773   2.702  50.477  1.00  0.00    -0.410 N 
HETATM   13  C14 UNL     1      20.830   3.316  49.630  1.00  0.00     0.117 C 
HETATM   14  C15 UNL     1      19.458   3.411  50.190  1.00  0.00     0.020 C 
HETATM   15  C16 UNL     1      19.351   3.549  51.678  1.00  0.00     0.012 C 
HETATM   16  C17 UNL     1      20.391   2.624  52.328  1.00  0.00     0.027 C 
HETATM   17  C18 UNL     1      21.697   3.229  51.782  1.00  0.00     0.125 C 
ENDROOT
BRANCH   7  18
HETATM   18  N4  UNL     1      25.694   0.502  53.705  1.00  0.00    -0.338 N 
HETATM   19  H4  UNL     1      25.771   1.539  53.728  1.00  0.00     0.167 HD
BRANCH  18  20
HETATM   20  C5  UNL     1      26.805  -0.344  53.493  1.00  0.00     0.033 A 
HETATM   21  C6  UNL     1      27.984   0.102  54.080  1.00  0.00     0.029 A 
HETATM   22  C7  UNL     1      29.183  -0.568  54.001  1.00  0.00     0.002 A 
HETATM   23  C8  UNL     1      29.280  -1.738  53.322  1.00  0.00     0.000 A 
HETATM   24  C9  UNL     1      28.136  -2.226  52.721  1.00  0.00     0.002 A 
HETATM   25  C10 UNL     1      26.966  -1.514  52.833  1.00  0.00     0.029 A 
ENDBRANCH  18  20
ENDBRANCH   7  18
TORSDOF 2
ENDMDL
MODEL 4
REMARK VINA RESULT:      -8.3      2.054      6.854
REMARK  2 active torsions:
REMARK  status: ('A' for Active; 'I' for Inactive)
REMARK    1  A    between atoms: C4_7  and  N4_8 
REMARK    2  A    between atoms: N4_8  and  C5_9 
ROOT
HETATM    1  C1  UNL     1      21.516   2.450  50.863  1.00  0.00    -0.001 C 
HETATM    2  C2  UNL     1      21.991   1.223  50.990  1.00  0.00     0.117 C 
HETATM    3  N1  UNL     1      22.807   0.702  51.996  1.00  0.00    -0.223 N 
HETATM    4  N2  UNL     1      22.211  -0.281  52.708  1.00  0.00    -0.159 NA
HETATM    5  C3  UNL     1      22.710  -0.937  53.684  1.00  0.00     0.258 A 
HETATM    6  N3  UNL     1      24.015  -0.780  54.243  1.00  0.00    -0.219 NA
HETATM    7  C4  UNL     1      24.729   0.125  53.680  1.00  0.00     0.177 A 
HETATM    8  C11 UNL     1      24.081   0.805  52.596  1.00  0.00     0.192 A 
HETATM    9  N5  UNL     1      24.372   1.675  51.839  1.00  0.00    -0.266 NA
HETATM   10  C12 UNL     1      25.254   2.604  51.353  1.00  0.00     0.170 C 
HETATM   11  C13 UNL     1      24.736   3.254  50.058  1.00  0.00     0.138 C 
HETATM   12  N6  UNL     1      23.504   3.847  50.313  1.00  0.00    -0.410 N 
HETATM   13  C14 UNL     1      22.923   4.734  49.386  1.00  0.00     0.117 C 
HETATM   14  C15 UNL     1      21.464   4.954  49.563  1.00  0.00     0.020 C 
HETATM   15  C16 UNL     1      20.939   4.860  50.963  1.00  0.00     0.012 C 
HETATM   16  C17 UNL     1      21.638   3.687  51.667  1.00  0.00     0.027 C 
HETATM   17  C18 UNL     1      23.103   4.157  51.628  1.00  0.00     0.125 C 
ENDROOT
BRANCH   7  18
HETATM   18  N4  UNL     1      26.042   0.548  53.961  1.00  0.00    -0.338 N 
HETATM   19  H4  UNL     1      26.201   1.487  54.378  1.00  0.00     0.167 HD
BRANCH  18  20
HETATM   20  C5  UNL     1      27.096  -0.344  53.660  1.00  0.00     0.033 A 
HETATM   21  C6  UNL     1      28.329   0.032  54.177  1.00  0.00     0.029 A 
HETATM   22  C7  UNL     1      29.488  -0.691  54.007  1.00  0.00     0.002 A 
HETATM   23  C8  UNL     1      29.484  -1.849  53.301  1.00  0.00     0.000 A 
HETATM   24  C9  UNL     1      28.282  -2.269  52.766  1.00  0.00     0.002 A 
HETATM   25  C10 UNL     1      27.157  -1.505  52.968  1.00  0.00     0.029 A 
ENDBRANCH  18  20
ENDBRANCH   7  18
TORSDOF 2
ENDMDL
MODEL 5
REMARK VINA RESULT:      -8.2      1.318      6.751
REMARK  2 active torsions:
REMARK  status: ('A' for Active; 'I' for Inactive)
REMARK    1  A    between atoms: C4_7  and  N4_8 
REMARK    2  A    between atoms: N4_8  and  C5_9 
ROOT
HETATM    1  C1  UNL     1      20.800   2.150  52.110  1.00  0.00    -0.001 C 
HETATM    2  C2  UNL     1      21.818   2.924  52.445  1.00  0.00     0.117 C 
HETATM    3  N1  UNL     1      23.122   2.916  51.944  1.00  0.00    -0.223 N 
HETATM    4  N2  UNL     1      23.453   4.064  51.310  1.00  0.00    -0.159 NA
HETATM    5  C3  UNL     1      24.570   4.342  50.754  1.00  0.00     0.258 A 
HETATM    6  N3  UNL     1      25.722   3.502  50.679  1.00  0.00    -0.219 NA
HETATM    7  C4  UNL     1      25.582   2.356  51.239  1.00  0.00     0.177 A 
HETATM    8  C11 UNL     1      24.294   2.138  51.834  1.00  0.00     0.192 A 
HETATM    9  N5  UNL     1      23.767   1.252  52.425  1.00  0.00    -0.266 NA
HETATM   10  C12 UNL     1      23.775  -0.005  52.971  1.00  0.00     0.170 C 
HETATM   11  C13 UNL     1      22.512  -0.268  53.809  1.00  0.00     0.138 C 
HETATM   12  N6  UNL     1      21.392  -0.099  53.003  1.00  0.00    -0.410 N 
HETATM   13  C14 UNL     1      20.120  -0.528  53.432  1.00  0.00     0.117 C 
HETATM   14  C15 UNL     1      18.978   0.077  52.699  1.00  0.00     0.020 C 
HETATM   15  C16 UNL     1      19.219   0.437  51.265  1.00  0.00     0.012 C 
HETATM   16  C17 UNL     1      20.625   1.042  51.145  1.00  0.00     0.027 C 
HETATM   17  C18 UNL     1      21.492  -0.146  51.597  1.00  0.00     0.125 C 
ENDROOT
BRANCH   7  18
HETATM   18  N4  UNL     1      26.492   1.289  51.359  1.00  0.00    -0.338 N 
HETATM   19  H4  UNL     1      26.501   0.538  50.639  1.00  0.00     0.167 HD
BRANCH  18  20
HETATM   20  C5  UNL     1      27.366   1.295  52.469  1.00  0.00     0.033 A 
HETATM   21  C6  UNL     1      27.546   0.051  53.062  1.00  0.00     0.029 A 
HETATM   22  C7  UNL     1      28.356  -0.170  54.153  1.00  0.00     0.002 A 
HETATM   23  C8  UNL     1      29.042   0.850  54.724  1.00  0.00     0.000 A 
HETATM   24  C9  UNL     1      28.899   2.107  54.172  1.00  0.00     0.002 A 
HETATM   25  C10 UNL     1      28.076   2.269  53.082  1.00  0.00     0.029 A 
ENDBRANCH  18  20
ENDBRANCH   7  18
TORSDOF 2
ENDMDL
MODEL 6
REMARK VINA RESULT:      -7.9      1.710      4.251
REMARK  2 active torsions:
REMARK  status: ('A' for Active; 'I' for Inactive)
REMARK    1  A    between atoms: C4_7  and  N4_8 
REMARK    2  A    between atoms: N4_8  and  C5_9 
ROOT
HETATM    1  C1  UNL     1      25.926  -0.680  53.856  1.00  0.00    -0.001 C 
HETATM    2  C2  UNL     1      24.770  -0.063  54.032  1.00  0.00     0.117 C 
HETATM    3  N1  UNL     1      23.828   0.315  53.074  1.00  0.00    -0.223 N 
HETATM    4  N2  UNL     1      22.639  -0.313  53.221  1.00  0.00    -0.159 NA
HETATM    5  C3  UNL     1      21.596  -0.168  52.496  1.00  0.00     0.258 A 
HETATM    6  N3  UNL     1      21.452   0.692  51.366  1.00  0.00    -0.219 NA
HETATM    7  C4  UNL     1      22.500   1.374  51.078  1.00  0.00     0.177 A 
HETATM    8  C11 UNL     1      23.617   1.142  51.949  1.00  0.00     0.192 A 
HETATM    9  N5  UNL     1      24.732   1.547  52.032  1.00  0.00    -0.266 NA
HETATM   10  C12 UNL     1      25.763   2.337  51.595  1.00  0.00     0.170 C 
HETATM   11  C13 UNL     1      26.947   2.317  52.576  1.00  0.00     0.138 C 
HETATM   12  N6  UNL     1      27.380   1.005  52.736  1.00  0.00    -0.410 N 
HETATM   13  C14 UNL     1      28.606   0.720  53.368  1.00  0.00     0.117 C 
HETATM   14  C15 UNL     1      28.748  -0.678  53.851  1.00  0.00     0.020 C 
HETATM   15  C16 UNL     1      28.029  -1.733  53.067  1.00  0.00     0.012 C 
HETATM   16  C17 UNL     1      26.650  -1.187  52.668  1.00  0.00     0.027 C 
HETATM   17  C18 UNL     1      27.055   0.011  51.791  1.00  0.00     0.125 C 
ENDROOT
BRANCH   7  18
HETATM   18  N4  UNL     1      22.720   2.308  50.049  1.00  0.00    -0.338 N 
HETATM   19  H4  UNL     1      22.995   1.975  49.103  1.00  0.00     0.167 HD
BRANCH  18  20
HETATM   20  C5  UNL     1      22.546   3.676  50.358  1.00  0.00     0.033 A 
HETATM   21  C6  UNL     1      23.396   4.531  49.666  1.00  0.00     0.029 A 
HETATM   22  C7  UNL     1      23.395   5.899  49.812  1.00  0.00     0.002 A 
HETATM   23  C8  UNL     1      22.536   6.504  50.669  1.00  0.00     0.000 A 
HETATM   24  C9  UNL     1      21.668   5.699  51.381  1.00  0.00     0.002 A 
HETATM   25  C10 UNL     1      21.714   4.337  51.194  1.00  0.00     0.029 A 
ENDBRANCH  18  20
ENDBRANCH   7  18
TORSDOF 2
ENDMDL
MODEL 7
REMARK VINA RESULT:      -7.9      2.728      7.140
REMARK  2 active torsions:
REMARK  status: ('A' for Active; 'I' for Inactive)
REMARK    1  A    between atoms: C4_7  and  N4_8 
REMARK    2  A    between atoms: N4_8  and  C5_9 
ROOT
HETATM    1  C1  UNL     1      22.636  -0.159  53.321  1.00  0.00    -0.001 C 
HETATM    2  C2  UNL     1      23.776  -0.217  52.655  1.00  0.00     0.117 C 
HETATM    3  N1  UNL     1      24.555   0.833  52.164  1.00  0.00    -0.223 N 
HETATM    4  N2  UNL     1      25.779   0.898  52.734  1.00  0.00    -0.159 NA
HETATM    5  C3  UNL     1      26.701   1.748  52.486  1.00  0.00     0.258 A 
HETATM    6  N3  UNL     1      26.644   2.823  51.548  1.00  0.00    -0.219 NA
HETATM    7  C4  UNL     1      25.536   2.912  50.907  1.00  0.00     0.177 A 
HETATM    8  C11 UNL     1      24.566   1.914  51.256  1.00  0.00     0.192 A 
HETATM    9  N5  UNL     1      23.457   1.648  50.919  1.00  0.00    -0.266 NA
HETATM   10  C12 UNL     1      22.340   1.880  50.160  1.00  0.00     0.170 C 
HETATM   11  C13 UNL     1      21.309   0.748  50.308  1.00  0.00     0.138 C 
HETATM   12  N6  UNL     1      20.964   0.624  51.649  1.00  0.00    -0.410 N 
HETATM   13  C14 UNL     1      19.853  -0.149  52.041  1.00  0.00     0.117 C 
HETATM   14  C15 UNL     1      19.845  -0.545  53.473  1.00  0.00     0.020 C 
HETATM   15  C16 UNL     1      20.492   0.404  54.434  1.00  0.00     0.012 C 
HETATM   16  C17 UNL     1      21.774   0.950  53.788  1.00  0.00     0.027 C 
HETATM   17  C18 UNL     1      21.195   1.674  52.560  1.00  0.00     0.125 C 
ENDROOT
BRANCH   7  18
HETATM   18  N4  UNL     1      25.131   3.831  49.921  1.00  0.00    -0.338 N 
HETATM   19  H4  UNL     1      24.128   3.887  49.652  1.00  0.00     0.167 HD
BRANCH  18  20
HETATM   20  C5  UNL     1      26.125   4.650  49.341  1.00  0.00     0.033 A 
HETATM   21  C6  UNL     1      25.756   5.982  49.195  1.00  0.00     0.029 A 
HETATM   22  C7  UNL     1      26.571   6.951  48.656  1.00  0.00     0.002 A 
HETATM   23  C8  UNL     1      27.820   6.645  48.225  1.00  0.00     0.000 A 
HETATM   24  C9  UNL     1      28.236   5.334  48.350  1.00  0.00     0.002 A 
HETATM   25  C10 UNL     1      27.379   4.408  48.895  1.00  0.00     0.029 A 
ENDBRANCH  18  20
ENDBRANCH   7  18
TORSDOF 2
ENDMDL
MODEL 8
REMARK VINA RESULT:      -7.9      3.422      6.857
REMARK  2 active torsions:
REMARK  status: ('A' for Active; 'I' for Inactive)
REMARK    1  A    between atoms: C4_7  and  N4_8 
REMARK    2  A    between atoms: N4_8  and  C5_9 
ROOT
HETATM    1  C1  UNL     1      23.925   1.590  53.279  1.00  0.00    -0.001 C 
HETATM    2  C2  UNL     1      23.957   2.858  52.909  1.00  0.00     0.117 C 
HETATM    3  N1  UNL     1      24.340   3.399  51.680  1.00  0.00    -0.223 N 
HETATM    4  N2  UNL     1      23.332   4.037  51.043  1.00  0.00    -0.159 NA
HETATM    5  C3  UNL     1      23.385   4.624  49.909  1.00  0.00     0.258 A 
HETATM    6  N3  UNL     1      24.526   4.739  49.058  1.00  0.00    -0.219 NA
HETATM    7  C4  UNL     1      25.589   4.182  49.514  1.00  0.00     0.177 A 
HETATM    8  C11 UNL     1      25.427   3.550  50.792  1.00  0.00     0.192 A 
HETATM    9  N5  UNL     1      26.126   2.942  51.537  1.00  0.00    -0.266 NA
HETATM   10  C12 UNL     1      27.335   2.396  51.879  1.00  0.00     0.170 C 
HETATM   11  C13 UNL     1      27.329   1.864  53.323  1.00  0.00     0.138 C 
HETATM   12  N6  UNL     1      26.318   0.918  53.452  1.00  0.00    -0.410 N 
HETATM   13  C14 UNL     1      26.250   0.082  54.584  1.00  0.00     0.117 C 
HETATM   14  C15 UNL     1      24.930  -0.561  54.805  1.00  0.00     0.020 C 
HETATM   15  C16 UNL     1      24.119  -0.865  53.582  1.00  0.00     0.012 C 
HETATM   16  C17 UNL     1      24.254   0.314  52.605  1.00  0.00     0.027 C 
HETATM   17  C18 UNL     1      25.766   0.283  52.321  1.00  0.00     0.125 C 
ENDROOT
BRANCH   7  18
HETATM   18  N4  UNL     1      26.878   4.098  48.956  1.00  0.00    -0.338 N 
HETATM   19  H4  UNL     1      27.335   3.168  48.855  1.00  0.00     0.167 HD
BRANCH  18  20
HETATM   20  C5  UNL     1      27.496   5.301  48.550  1.00  0.00     0.033 A 
HETATM   21  C6  UNL     1      28.862   5.194  48.319  1.00  0.00     0.029 A 
HETATM   22  C7  UNL     1      29.658   6.241  47.915  1.00  0.00     0.002 A 
HETATM   23  C8  UNL     1      29.131   7.475  47.715  1.00  0.00     0.000 A 
HETATM   24  C9  UNL     1      27.777   7.635  47.929  1.00  0.00     0.002 A 
HETATM   25  C10 UNL     1      27.031   6.553  48.333  1.00  0.00     0.029 A 
ENDBRANCH  18  20
ENDBRANCH   7  18
TORSDOF 2
ENDMDL
MODEL 9
REMARK VINA RESULT:      -7.6      2.925      4.714
REMARK  2 active torsions:
REMARK  status: ('A' for Active; 'I' for Inactive)
REMARK    1  A    between atoms: C4_7  and  N4_8 
REMARK    2  A    between atoms: N4_8  and  C5_9 
ROOT
HETATM    1  C1  UNL     1      26.789   1.830  51.389  1.00  0.00    -0.001 C 
HETATM    2  C2  UNL     1      26.245   2.520  50.403  1.00  0.00     0.117 C 
HETATM    3  N1  UNL     1      25.639   3.777  50.447  1.00  0.00    -0.223 N 
HETATM    4  N2  UNL     1      26.290   4.708  49.713  1.00  0.00    -0.159 NA
HETATM    5  C3  UNL     1      25.971   5.936  49.566  1.00  0.00     0.258 A 
HETATM    6  N3  UNL     1      24.851   6.605  50.147  1.00  0.00    -0.219 NA
HETATM    7  C4  UNL     1      24.113   5.861  50.888  1.00  0.00     0.177 A 
HETATM    8  C11 UNL     1      24.553   4.500  50.989  1.00  0.00     0.192 A 
HETATM    9  N5  UNL     1      24.177   3.521  51.550  1.00  0.00    -0.266 NA
HETATM   10  C12 UNL     1      23.295   2.866  52.369  1.00  0.00     0.170 C 
HETATM   11  C13 UNL     1      23.559   1.350  52.388  1.00  0.00     0.138 C 
HETATM   12  N6  UNL     1      24.865   1.124  52.806  1.00  0.00    -0.410 N 
HETATM   13  C14 UNL     1      25.296  -0.168  53.167  1.00  0.00     0.117 C 
HETATM   14  C15 UNL     1      26.770  -0.354  53.177  1.00  0.00     0.020 C 
HETATM   15  C16 UNL     1      27.593   0.849  53.521  1.00  0.00     0.012 C 
HETATM   16  C17 UNL     1      26.971   2.076  52.838  1.00  0.00     0.027 C 
HETATM   17  C18 UNL     1      25.586   2.110  53.509  1.00  0.00     0.125 C 
ENDROOT
BRANCH   7  18
HETATM   18  N4  UNL     1      22.945   6.175  51.608  1.00  0.00    -0.338 N 
HETATM   19  H4  UNL     1      22.956   6.133  52.647  1.00  0.00     0.167 HD
BRANCH  18  20
HETATM   20  C5  UNL     1      21.798   6.542  50.869  1.00  0.00     0.033 A 
HETATM   21  C6  UNL     1      21.004   5.471  50.476  1.00  0.00     0.029 A 
HETATM   22  C7  UNL     1      19.842   5.601  49.750  1.00  0.00     0.002 A 
HETATM   23  C8  UNL     1      19.397   6.824  49.369  1.00  0.00     0.000 A 
HETATM   24  C9  UNL     1      20.150   7.922  49.735  1.00  0.00     0.002 A 
HETATM   25  C10 UNL     1      21.302   7.732  50.460  1.00  0.00     0.029 A 
ENDBRANCH  18  20
ENDBRANCH   7  18
TORSDOF 2
ENDMDL
