MODEL 1
REMARK VINA RESULT:      -9.0      0.000      0.000
REMARK  7 active torsions:
REMARK  status: ('A' for Active; 'I' for Inactive)
REMARK    1  A    between atoms: O1_2  and  C2_3 
REMARK    2  A    between atoms: C7_8  and  N1_9 
REMARK       I    between atoms: N1_9  and  C8_10 
REMARK    3  A    between atoms: C8_10  and  C9_12 
REMARK    4  A    between atoms: C10_13  and  C11_14 
REMARK    5  A    between atoms: C11_14  and  N2_15 
REMARK    6  A    between atoms: C16_21  and  N3_22 
REMARK    7  A    between atoms: N3_22  and  C17_23 
ROOT
HETATM    1  C2  UNL     1      26.954   1.452  52.829  1.00  0.00     0.097 A 
HETATM    2  C3  UNL     1      26.426   0.482  53.664  1.00  0.00     0.071 A 
HETATM    3  C4  UNL     1      25.070   0.261  53.782  1.00  0.00     0.068 A 
HETATM    4  C5  UNL     1      24.210   1.036  53.040  1.00  0.00     0.023 A 
HETATM    5  C6  UNL     1      24.773   1.991  52.221  1.00  0.00     0.048 A 
HETATM    6  C7  UNL     1      26.116   2.244  52.073  1.00  0.00     0.069 A 
HETATM    7  C16 UNL     1      22.890   1.056  52.961  1.00  0.00     0.069 A 
HETATM    8  C22 UNL     1      22.047   0.161  53.738  1.00  0.00     0.054 A 
HETATM    9  C23 UNL     1      20.579   0.319  53.564  1.00  0.00     0.072 C 
HETATM   10  N4  UNL     1      22.312  -0.773  54.578  1.00  0.00    -0.271 NA
HETATM   11  C24 UNL     1      23.558  -1.294  55.076  1.00  0.00     0.298 A 
HETATM   12  N5  UNL     1      24.735  -0.672  54.591  1.00  0.00    -0.268 NA
ENDROOT
BRANCH   6  13
HETATM   13  N1  UNL     1      26.719   3.219  51.243  1.00  0.00    -0.321 N 
HETATM   14  C8  UNL     1      26.404   3.556  49.910  1.00  0.00     0.245 C 
HETATM   15  O2  UNL     1      25.485   2.967  49.303  1.00  0.00    -0.268 OA
HETATM   16  H6  UNL     1      27.508   3.804  51.588  1.00  0.00     0.169 HD
BRANCH  14  17
HETATM   17  C9  UNL     1      27.072   4.575  49.126  1.00  0.00     0.072 C 
HETATM   18  C10 UNL     1      26.874   5.820  48.744  1.00  0.00     0.008 C 
BRANCH  18  19
HETATM   19  C11 UNL     1      27.375   6.972  48.002  1.00  0.00     0.300 C 
BRANCH  19  20
HETATM   20  N2  UNL     1      26.665   8.196  48.162  1.00  0.00     0.096 N 
HETATM   21  C12 UNL     1      27.300   9.367  47.652  1.00  0.00     0.299 C 
HETATM   22  C13 UNL     1      28.714   9.405  48.198  1.00  0.00     0.198 C 
HETATM   23  O3  UNL     1      28.696   9.105  49.538  1.00  0.00    -0.388 OA
HETATM   24  C14 UNL     1      27.493   9.262  50.177  1.00  0.00     0.198 C 
HETATM   25  C15 UNL     1      26.387   8.414  49.566  1.00  0.00     0.299 C 
ENDBRANCH  19  20
ENDBRANCH  18  19
ENDBRANCH  14  17
ENDBRANCH   6  13
BRANCH   1  26
HETATM   26  O1  UNL     1      28.326   1.640  52.742  1.00  0.00    -0.354 OA
HETATM   27  C1  UNL     1      29.006   2.189  53.851  1.00  0.00     0.210 C 
ENDBRANCH   1  26
BRANCH   7  28
HETATM   28  N3  UNL     1      22.253   1.969  52.102  1.00  0.00    -0.357 N 
HETATM   29  H19 UNL     1      21.957   2.801  52.669  1.00  0.00     0.166 HD
BRANCH  28  30
HETATM   30  C17 UNL     1      21.997   1.879  50.729  1.00  0.00     0.014 A 
HETATM   31  C18 UNL     1      21.590   0.868  49.984  1.00  0.00     0.026 A 
HETATM   32  C19 UNL     1      21.445   1.197  48.575  1.00  0.00     0.021 A 
HETATM   33  C20 UNL     1      21.786   2.471  48.494  1.00  0.00     0.017 A 
HETATM   34 CL1  UNL     1      21.807   3.439  47.016  1.00  0.00    -0.089 Cl
HETATM   35  C21 UNL     1      22.162   3.041  49.790  1.00  0.00     0.108 A 
ENDBRANCH  28  30
ENDBRANCH   7  28
TORSDOF 7
ENDMDL
MODEL 2
REMARK VINA RESULT:      -8.9      2.705      4.755
REMARK  7 active torsions:
REMARK  status: ('A' for Active; 'I' for Inactive)
REMARK    1  A    between atoms: O1_2  and  C2_3 
REMARK    2  A    between atoms: C7_8  and  N1_9 
REMARK       I    between atoms: N1_9  and  C8_10 
REMARK    3  A    between atoms: C8_10  and  C9_12 
REMARK    4  A    between atoms: C10_13  and  C11_14 
REMARK    5  A    between atoms: C11_14  and  N2_15 
REMARK    6  A    between atoms: C16_21  and  N3_22 
REMARK    7  A    between atoms: N3_22  and  C17_23 
ROOT
HETATM    1  C2  UNL     1      22.465   2.225  50.142  1.00  0.00     0.097 A 
HETATM    2  C3  UNL     1      21.524   1.430  50.773  1.00  0.00     0.071 A 
HETATM    3  C4  UNL     1      21.804   0.709  51.915  1.00  0.00     0.068 A 
HETATM    4  C5  UNL     1      23.070   0.785  52.446  1.00  0.00     0.023 A 
HETATM    5  C6  UNL     1      23.980   1.586  51.790  1.00  0.00     0.048 A 
HETATM    6  C7  UNL     1      23.743   2.320  50.652  1.00  0.00     0.069 A 
HETATM    7  C16 UNL     1      23.616   0.207  53.502  1.00  0.00     0.069 A 
HETATM    8  C22 UNL     1      22.880  -0.707  54.362  1.00  0.00     0.054 A 
HETATM    9  C23 UNL     1      23.635  -1.300  55.496  1.00  0.00     0.072 C 
HETATM   10  N4  UNL     1      21.667  -1.127  54.348  1.00  0.00    -0.271 NA
HETATM   11  C24 UNL     1      20.563  -0.852  53.465  1.00  0.00     0.298 A 
HETATM   12  N5  UNL     1      20.830   0.023  52.383  1.00  0.00    -0.268 NA
ENDROOT
BRANCH   6  13
HETATM   13  N1  UNL     1      24.658   3.147  49.958  1.00  0.00    -0.321 N 
HETATM   14  C8  UNL     1      24.930   4.518  50.154  1.00  0.00     0.245 C 
HETATM   15  O2  UNL     1      24.328   5.166  51.036  1.00  0.00    -0.268 OA
HETATM   16  H6  UNL     1      25.244   2.769  49.185  1.00  0.00     0.169 HD
BRANCH  14  17
HETATM   17  C9  UNL     1      25.890   5.295  49.399  1.00  0.00     0.072 C 
HETATM   18  C10 UNL     1      27.133   5.194  48.974  1.00  0.00     0.008 C 
BRANCH  18  19
HETATM   19  C11 UNL     1      28.236   5.809  48.244  1.00  0.00     0.300 C 
BRANCH  19  20
HETATM   20  N2  UNL     1      28.016   7.118  47.731  1.00  0.00     0.096 N 
HETATM   21  C12 UNL     1      28.911   7.556  46.709  1.00  0.00     0.299 C 
HETATM   22  C13 UNL     1      30.326   7.321  47.199  1.00  0.00     0.198 C 
HETATM   23  O3  UNL     1      30.438   7.744  48.500  1.00  0.00    -0.388 OA
HETATM   24  C14 UNL     1      29.484   8.629  48.932  1.00  0.00     0.198 C 
HETATM   25  C15 UNL     1      28.071   8.077  48.813  1.00  0.00     0.299 C 
ENDBRANCH  19  20
ENDBRANCH  18  19
ENDBRANCH  14  17
ENDBRANCH   6  13
BRANCH   1  26
HETATM   26  O1  UNL     1      22.138   2.933  48.994  1.00  0.00    -0.354 OA
HETATM   27  C1  UNL     1      21.363   2.295  48.002  1.00  0.00     0.210 C 
ENDBRANCH   1  26
BRANCH   7  28
HETATM   28  N3  UNL     1      24.960   0.465  53.826  1.00  0.00    -0.357 N 
HETATM   29  H19 UNL     1      24.998   1.350  54.387  1.00  0.00     0.166 HD
BRANCH  28  30
HETATM   30  C17 UNL     1      26.115  -0.257  53.501  1.00  0.00     0.014 A 
HETATM   31  C18 UNL     1      26.285  -1.345  52.773  1.00  0.00     0.026 A 
HETATM   32  C19 UNL     1      27.670  -1.780  52.681  1.00  0.00     0.021 A 
HETATM   33  C20 UNL     1      28.344  -0.896  53.394  1.00  0.00     0.017 A 
HETATM   34 CL1  UNL     1      30.092  -0.901  53.654  1.00  0.00    -0.089 Cl
HETATM   35  C21 UNL     1      27.485   0.136  53.979  1.00  0.00     0.108 A 
ENDBRANCH  28  30
ENDBRANCH   7  28
TORSDOF 7
ENDMDL
MODEL 3
REMARK VINA RESULT:      -8.8      1.611      1.905
REMARK  7 active torsions:
REMARK  status: ('A' for Active; 'I' for Inactive)
REMARK    1  A    between atoms: O1_2  and  C2_3 
REMARK    2  A    between atoms: C7_8  and  N1_9 
REMARK       I    between atoms: N1_9  and  C8_10 
REMARK    3  A    between atoms: C8_10  and  C9_12 
REMARK    4  A    between atoms: C10_13  and  C11_14 
REMARK    5  A    between atoms: C11_14  and  N2_15 
REMARK    6  A    between atoms: C16_21  and  N3_22 
REMARK    7  A    between atoms: N3_22  and  C17_23 
ROOT
HETATM    1  C2  UNL     1      26.858   1.634  52.728  1.00  0.00     0.097 A 
HETATM    2  C3  UNL     1      26.380   0.644  53.568  1.00  0.00     0.071 A 
HETATM    3  C4  UNL     1      25.035   0.377  53.714  1.00  0.00     0.068 A 
HETATM    4  C5  UNL     1      24.134   1.127  52.994  1.00  0.00     0.023 A 
HETATM    5  C6  UNL     1      24.648   2.103  52.168  1.00  0.00     0.048 A 
HETATM    6  C7  UNL     1      25.979   2.402  51.993  1.00  0.00     0.069 A 
HETATM    7  C16 UNL     1      22.814   1.104  52.943  1.00  0.00     0.069 A 
HETATM    8  C22 UNL     1      22.016   0.179  53.734  1.00  0.00     0.054 A 
HETATM    9  C23 UNL     1      20.541   0.289  53.592  1.00  0.00     0.072 C 
HETATM   10  N4  UNL     1      22.330  -0.750  54.563  1.00  0.00    -0.271 NA
HETATM   11  C24 UNL     1      23.603  -1.232  55.032  1.00  0.00     0.298 A 
HETATM   12  N5  UNL     1      24.749  -0.570  54.526  1.00  0.00    -0.268 NA
ENDROOT
BRANCH   6  13
HETATM   13  N1  UNL     1      26.532   3.399  51.155  1.00  0.00    -0.321 N 
HETATM   14  C8  UNL     1      26.188   3.722  49.826  1.00  0.00     0.245 C 
HETATM   15  O2  UNL     1      25.288   3.094  49.230  1.00  0.00    -0.268 OA
HETATM   16  H6  UNL     1      27.299   4.018  51.492  1.00  0.00     0.169 HD
BRANCH  14  17
HETATM   17  C9  UNL     1      26.804   4.766  49.034  1.00  0.00     0.072 C 
HETATM   18  C10 UNL     1      28.007   5.138  48.645  1.00  0.00     0.008 C 
BRANCH  18  19
HETATM   19  C11 UNL     1      28.816   6.092  47.895  1.00  0.00     0.300 C 
BRANCH  19  20
HETATM   20  N2  UNL     1      29.790   6.825  48.631  1.00  0.00     0.096 N 
HETATM   21  C12 UNL     1      30.176   8.086  48.088  1.00  0.00     0.299 C 
HETATM   22  C13 UNL     1      30.541   7.874  46.632  1.00  0.00     0.198 C 
HETATM   23  O3  UNL     1      31.328   6.755  46.514  1.00  0.00    -0.388 OA
HETATM   24  C14 UNL     1      31.957   6.336  47.658  1.00  0.00     0.198 C 
HETATM   25  C15 UNL     1      30.985   6.021  48.785  1.00  0.00     0.299 C 
ENDBRANCH  19  20
ENDBRANCH  18  19
ENDBRANCH  14  17
ENDBRANCH   6  13
BRANCH   1  26
HETATM   26  O1  UNL     1      28.222   1.868  52.613  1.00  0.00    -0.354 OA
HETATM   27  C1  UNL     1      28.910   2.418  53.715  1.00  0.00     0.210 C 
ENDBRANCH   1  26
BRANCH   7  28
HETATM   28  N3  UNL     1      22.128   2.000  52.103  1.00  0.00    -0.357 N 
HETATM   29  H19 UNL     1      21.800   2.809  52.684  1.00  0.00     0.166 HD
BRANCH  28  30
HETATM   30  C17 UNL     1      21.865   1.917  50.730  1.00  0.00     0.014 A 
HETATM   31  C18 UNL     1      21.586   0.884  49.959  1.00  0.00     0.026 A 
HETATM   32  C19 UNL     1      21.376   1.233  48.562  1.00  0.00     0.021 A 
HETATM   33  C20 UNL     1      21.540   2.542  48.518  1.00  0.00     0.017 A 
HETATM   34 CL1  UNL     1      21.407   3.549  47.072  1.00  0.00    -0.089 Cl
HETATM   35  C21 UNL     1      21.857   3.118  49.828  1.00  0.00     0.108 A 
ENDBRANCH  28  30
ENDBRANCH   7  28
TORSDOF 7
ENDMDL
MODEL 4
REMARK VINA RESULT:      -8.6      3.115      5.058
REMARK  7 active torsions:
REMARK  status: ('A' for Active; 'I' for Inactive)
REMARK    1  A    between atoms: O1_2  and  C2_3 
REMARK    2  A    between atoms: C7_8  and  N1_9 
REMARK       I    between atoms: N1_9  and  C8_10 
REMARK    3  A    between atoms: C8_10  and  C9_12 
REMARK    4  A    between atoms: C10_13  and  C11_14 
REMARK    5  A    between atoms: C11_14  and  N2_15 
REMARK    6  A    between atoms: C16_21  and  N3_22 
REMARK    7  A    between atoms: N3_22  and  C17_23 
ROOT
HETATM    1  C2  UNL     1      23.628   5.309  50.741  1.00  0.00     0.097 A 
HETATM    2  C3  UNL     1      22.455   4.862  51.325  1.00  0.00     0.071 A 
HETATM    3  C4  UNL     1      22.313   3.585  51.826  1.00  0.00     0.068 A 
HETATM    4  C5  UNL     1      23.381   2.724  51.742  1.00  0.00     0.023 A 
HETATM    5  C6  UNL     1      24.532   3.204  51.154  1.00  0.00     0.048 A 
HETATM    6  C7  UNL     1      24.716   4.467  50.642  1.00  0.00     0.069 A 
HETATM    7  C16 UNL     1      23.528   1.465  52.119  1.00  0.00     0.069 A 
HETATM    8  C22 UNL     1      22.457   0.709  52.751  1.00  0.00     0.054 A 
HETATM    9  C23 UNL     1      22.761  -0.704  53.095  1.00  0.00     0.072 C 
HETATM   10  N4  UNL     1      21.257   1.016  53.087  1.00  0.00    -0.271 NA
HETATM   11  C24 UNL     1      20.505   2.238  52.963  1.00  0.00     0.298 A 
HETATM   12  N5  UNL     1      21.171   3.321  52.338  1.00  0.00    -0.268 NA
ENDROOT
BRANCH   6  13
HETATM   13  N1  UNL     1      25.883   4.985  50.032  1.00  0.00    -0.321 N 
HETATM   14  C8  UNL     1      26.852   4.303  49.267  1.00  0.00     0.245 C 
HETATM   15  O2  UNL     1      26.746   3.078  49.049  1.00  0.00    -0.268 OA
HETATM   16  H6  UNL     1      26.130   5.993  50.114  1.00  0.00     0.169 HD
BRANCH  14  17
HETATM   17  C9  UNL     1      28.024   4.910  48.670  1.00  0.00     0.072 C 
HETATM   18  C10 UNL     1      28.435   6.099  48.280  1.00  0.00     0.008 C 
BRANCH  18  19
HETATM   19  C11 UNL     1      29.503   6.898  47.690  1.00  0.00     0.300 C 
BRANCH  19  20
HETATM   20  N2  UNL     1      30.808   6.330  47.697  1.00  0.00     0.096 N 
HETATM   21  C12 UNL     1      31.523   6.399  48.930  1.00  0.00     0.299 C 
HETATM   22  C13 UNL     1      31.479   7.836  49.412  1.00  0.00     0.198 C 
HETATM   23  O3  UNL     1      31.745   8.681  48.364  1.00  0.00    -0.388 OA
HETATM   24  C14 UNL     1      32.387   8.125  47.288  1.00  0.00     0.198 C 
HETATM   25  C15 UNL     1      31.617   6.964  46.677  1.00  0.00     0.299 C 
ENDBRANCH  19  20
ENDBRANCH  18  19
ENDBRANCH  14  17
ENDBRANCH   6  13
BRANCH   1  26
HETATM   26  O1  UNL     1      23.725   6.603  50.248  1.00  0.00    -0.354 OA
HETATM   27  C1  UNL     1      22.758   7.553  50.642  1.00  0.00     0.210 C 
ENDBRANCH   1  26
BRANCH   7  28
HETATM   28  N3  UNL     1      24.753   0.808  51.910  1.00  0.00    -0.357 N 
HETATM   29  H19 UNL     1      24.775   0.460  50.921  1.00  0.00     0.166 HD
BRANCH  28  30
HETATM   30  C17 UNL     1      25.816   0.591  52.796  1.00  0.00     0.014 A 
HETATM   31  C18 UNL     1      26.015   1.004  54.034  1.00  0.00     0.026 A 
HETATM   32  C19 UNL     1      27.270   0.549  54.610  1.00  0.00     0.021 A 
HETATM   33  C20 UNL     1      27.833  -0.171  53.656  1.00  0.00     0.017 A 
HETATM   34 CL1  UNL     1      29.393  -0.993  53.771  1.00  0.00    -0.089 Cl
HETATM   35  C21 UNL     1      27.020  -0.233  52.439  1.00  0.00     0.108 A 
ENDBRANCH  28  30
ENDBRANCH   7  28
TORSDOF 7
ENDMDL
MODEL 5
REMARK VINA RESULT:      -8.5      1.302      1.583
REMARK  7 active torsions:
REMARK  status: ('A' for Active; 'I' for Inactive)
REMARK    1  A    between atoms: O1_2  and  C2_3 
REMARK    2  A    between atoms: C7_8  and  N1_9 
REMARK       I    between atoms: N1_9  and  C8_10 
REMARK    3  A    between atoms: C8_10  and  C9_12 
REMARK    4  A    between atoms: C10_13  and  C11_14 
REMARK    5  A    between atoms: C11_14  and  N2_15 
REMARK    6  A    between atoms: C16_21  and  N3_22 
REMARK    7  A    between atoms: N3_22  and  C17_23 
ROOT
HETATM    1  C2  UNL     1      27.371   1.818  53.033  1.00  0.00     0.097 A 
HETATM    2  C3  UNL     1      26.969   0.932  54.018  1.00  0.00     0.071 A 
HETATM    3  C4  UNL     1      25.707   0.377  54.049  1.00  0.00     0.068 A 
HETATM    4  C5  UNL     1      24.813   0.720  53.062  1.00  0.00     0.023 A 
HETATM    5  C6  UNL     1      25.250   1.604  52.099  1.00  0.00     0.048 A 
HETATM    6  C7  UNL     1      26.497   2.179  52.030  1.00  0.00     0.069 A 
HETATM    7  C16 UNL     1      23.559   0.362  52.849  1.00  0.00     0.069 A 
HETATM    8  C22 UNL     1      22.846  -0.551  53.729  1.00  0.00     0.054 A 
HETATM    9  C23 UNL     1      21.431  -0.840  53.376  1.00  0.00     0.072 C 
HETATM   10  N4  UNL     1      23.193  -1.186  54.789  1.00  0.00    -0.271 NA
HETATM   11  C24 UNL     1      24.433  -1.234  55.519  1.00  0.00     0.298 A 
HETATM   12  N5  UNL     1      25.485  -0.426  55.020  1.00  0.00    -0.268 NA
ENDROOT
BRANCH   6  13
HETATM   13  N1  UNL     1      26.969   3.091  51.055  1.00  0.00    -0.321 N 
HETATM   14  C8  UNL     1      26.291   3.605  49.930  1.00  0.00     0.245 C 
HETATM   15  O2  UNL     1      25.116   3.263  49.682  1.00  0.00    -0.268 OA
HETATM   16  H6  UNL     1      27.934   3.478  51.106  1.00  0.00     0.169 HD
BRANCH  14  17
HETATM   17  C9  UNL     1      26.848   4.543  48.977  1.00  0.00     0.072 C 
HETATM   18  C10 UNL     1      27.971   5.199  48.771  1.00  0.00     0.008 C 
BRANCH  18  19
HETATM   19  C11 UNL     1      28.712   6.137  47.935  1.00  0.00     0.300 C 
BRANCH  19  20
HETATM   20  N2  UNL     1      28.042   7.337  47.568  1.00  0.00     0.096 N 
HETATM   21  C12 UNL     1      28.802   8.283  46.818  1.00  0.00     0.299 C 
HETATM   22  C13 UNL     1      30.110   8.512  47.549  1.00  0.00     0.198 C 
HETATM   23  O3  UNL     1      29.865   8.669  48.890  1.00  0.00    -0.388 OA
HETATM   24  C14 UNL     1      28.584   9.014  49.234  1.00  0.00     0.198 C 
HETATM   25  C15 UNL     1      27.553   8.001  48.758  1.00  0.00     0.299 C 
ENDBRANCH  19  20
ENDBRANCH  18  19
ENDBRANCH  14  17
ENDBRANCH   6  13
BRANCH   1  26
HETATM   26  O1  UNL     1      28.652   2.352  53.041  1.00  0.00    -0.354 OA
HETATM   27  C1  UNL     1      29.443   2.196  54.199  1.00  0.00     0.210 C 
ENDBRANCH   1  26
BRANCH   7  28
HETATM   28  N3  UNL     1      22.863   0.871  51.738  1.00  0.00    -0.357 N 
HETATM   29  H19 UNL     1      22.957   0.186  50.949  1.00  0.00     0.166 HD
BRANCH  28  30
HETATM   30  C17 UNL     1      22.150   2.068  51.599  1.00  0.00     0.014 A 
HETATM   31  C18 UNL     1      21.782   2.969  52.490  1.00  0.00     0.026 A 
HETATM   32  C19 UNL     1      21.043   4.087  51.924  1.00  0.00     0.021 A 
HETATM   33  C20 UNL     1      20.978   3.823  50.632  1.00  0.00     0.017 A 
HETATM   34 CL1  UNL     1      20.192   4.832  49.412  1.00  0.00    -0.089 Cl
HETATM   35  C21 UNL     1      21.641   2.566  50.276  1.00  0.00     0.108 A 
ENDBRANCH  28  30
ENDBRANCH   7  28
TORSDOF 7
ENDMDL
MODEL 6
REMARK VINA RESULT:      -8.2      3.268      9.987
REMARK  7 active torsions:
REMARK  status: ('A' for Active; 'I' for Inactive)
REMARK    1  A    between atoms: O1_2  and  C2_3 
REMARK    2  A    between atoms: C7_8  and  N1_9 
REMARK       I    between atoms: N1_9  and  C8_10 
REMARK    3  A    between atoms: C8_10  and  C9_12 
REMARK    4  A    between atoms: C10_13  and  C11_14 
REMARK    5  A    between atoms: C11_14  and  N2_15 
REMARK    6  A    between atoms: C16_21  and  N3_22 
REMARK    7  A    between atoms: N3_22  and  C17_23 
ROOT
HETATM    1  C2  UNL     1      31.064   6.261  47.521  1.00  0.00     0.097 A 
HETATM    2  C3  UNL     1      31.911   7.263  47.083  1.00  0.00     0.071 A 
HETATM    3  C4  UNL     1      31.767   8.580  47.467  1.00  0.00     0.068 A 
HETATM    4  C5  UNL     1      30.738   8.907  48.318  1.00  0.00     0.023 A 
HETATM    5  C6  UNL     1      29.915   7.882  48.733  1.00  0.00     0.048 A 
HETATM    6  C7  UNL     1      30.024   6.559  48.376  1.00  0.00     0.069 A 
HETATM    7  C16 UNL     1      30.357  10.064  48.833  1.00  0.00     0.069 A 
HETATM    8  C22 UNL     1      31.043  11.313  48.542  1.00  0.00     0.054 A 
HETATM    9  C23 UNL     1      30.483  12.537  49.173  1.00  0.00     0.072 C 
HETATM   10  N4  UNL     1      32.070  11.595  47.826  1.00  0.00    -0.271 NA
HETATM   11  C24 UNL     1      32.943  10.772  47.029  1.00  0.00     0.298 A 
HETATM   12  N5  UNL     1      32.629   9.391  46.980  1.00  0.00    -0.268 NA
ENDROOT
BRANCH   6  13
HETATM   13  N1  UNL     1      29.192   5.489  48.784  1.00  0.00    -0.321 N 
HETATM   14  C8  UNL     1      27.795   5.355  48.640  1.00  0.00     0.245 C 
HETATM   15  O2  UNL     1      27.123   6.252  48.091  1.00  0.00    -0.268 OA
HETATM   16  H6  UNL     1      29.589   4.653  49.263  1.00  0.00     0.169 HD
BRANCH  14  17
HETATM   17  C9  UNL     1      27.015   4.218  49.084  1.00  0.00     0.072 C 
HETATM   18  C10 UNL     1      26.584   3.691  50.211  1.00  0.00     0.008 C 
BRANCH  18  19
HETATM   19  C11 UNL     1      25.832   2.623  50.861  1.00  0.00     0.300 C 
BRANCH  19  20
HETATM   20  N2  UNL     1      26.591   1.581  51.466  1.00  0.00     0.096 N 
HETATM   21  C12 UNL     1      25.847   0.552  52.116  1.00  0.00     0.299 C 
HETATM   22  C13 UNL     1      24.860   1.215  53.056  1.00  0.00     0.198 C 
HETATM   23  O3  UNL     1      25.491   2.214  53.754  1.00  0.00    -0.388 OA
HETATM   24  C14 UNL     1      26.858   2.141  53.810  1.00  0.00     0.198 C 
HETATM   25  C15 UNL     1      27.506   2.149  52.433  1.00  0.00     0.299 C 
ENDBRANCH  19  20
ENDBRANCH  18  19
ENDBRANCH  14  17
ENDBRANCH   6  13
BRANCH   1  26
HETATM   26  O1  UNL     1      31.247   4.948  47.109  1.00  0.00    -0.354 OA
HETATM   27  C1  UNL     1      32.374   4.240  47.581  1.00  0.00     0.210 C 
ENDBRANCH   1  26
BRANCH   7  28
HETATM   28  N3  UNL     1      29.247  10.116  49.696  1.00  0.00    -0.357 N 
HETATM   29  H19 UNL     1      29.594  10.309  50.666  1.00  0.00     0.166 HD
BRANCH  28  30
HETATM   30  C17 UNL     1      27.886   9.946  49.415  1.00  0.00     0.014 A 
HETATM   31  C18 UNL     1      27.127  10.438  48.454  1.00  0.00     0.026 A 
HETATM   32  C19 UNL     1      25.740  10.007  48.521  1.00  0.00     0.021 A 
HETATM   33  C20 UNL     1      25.687   9.218  49.579  1.00  0.00     0.017 A 
HETATM   34 CL1  UNL     1      24.246   8.386  50.174  1.00  0.00    -0.089 Cl
HETATM   35  C21 UNL     1      26.982   9.085  50.252  1.00  0.00     0.108 A 
ENDBRANCH  28  30
ENDBRANCH   7  28
TORSDOF 7
ENDMDL
MODEL 7
REMARK VINA RESULT:      -8.1      2.892      4.705
REMARK  7 active torsions:
REMARK  status: ('A' for Active; 'I' for Inactive)
REMARK    1  A    between atoms: O1_2  and  C2_3 
REMARK    2  A    between atoms: C7_8  and  N1_9 
REMARK       I    between atoms: N1_9  and  C8_10 
REMARK    3  A    between atoms: C8_10  and  C9_12 
REMARK    4  A    between atoms: C10_13  and  C11_14 
REMARK    5  A    between atoms: C11_14  and  N2_15 
REMARK    6  A    between atoms: C16_21  and  N3_22 
REMARK    7  A    between atoms: N3_22  and  C17_23 
ROOT
HETATM    1  C2  UNL     1      22.990   5.094  51.394  1.00  0.00     0.097 A 
HETATM    2  C3  UNL     1      21.866   4.503  51.946  1.00  0.00     0.071 A 
HETATM    3  C4  UNL     1      21.829   3.175  52.314  1.00  0.00     0.068 A 
HETATM    4  C5  UNL     1      22.954   2.408  52.124  1.00  0.00     0.023 A 
HETATM    5  C6  UNL     1      24.053   3.031  51.573  1.00  0.00     0.048 A 
HETATM    6  C7  UNL     1      24.134   4.350  51.193  1.00  0.00     0.069 A 
HETATM    7  C16 UNL     1      23.200   1.132  52.367  1.00  0.00     0.069 A 
HETATM    8  C22 UNL     1      22.201   0.237  52.932  1.00  0.00     0.054 A 
HETATM    9  C23 UNL     1      22.614  -1.177  53.122  1.00  0.00     0.072 C 
HETATM   10  N4  UNL     1      20.989   0.418  53.315  1.00  0.00    -0.271 NA
HETATM   11  C24 UNL     1      20.149   1.587  53.330  1.00  0.00     0.298 A 
HETATM   12  N5  UNL     1      20.720   2.775  52.812  1.00  0.00    -0.268 NA
ENDROOT
BRANCH   6  13
HETATM   13  N1  UNL     1      25.247   5.013  50.623  1.00  0.00    -0.321 N 
HETATM   14  C8  UNL     1      26.091   4.578  49.579  1.00  0.00     0.245 C 
HETATM   15  O2  UNL     1      25.904   3.473  49.028  1.00  0.00    -0.268 OA
HETATM   16  H6  UNL     1      25.547   5.949  50.966  1.00  0.00     0.169 HD
BRANCH  14  17
HETATM   17  C9  UNL     1      27.213   5.323  49.048  1.00  0.00     0.072 C 
HETATM   18  C10 UNL     1      27.436   6.344  48.247  1.00  0.00     0.008 C 
BRANCH  18  19
HETATM   19  C11 UNL     1      28.417   7.215  47.609  1.00  0.00     0.300 C 
BRANCH  19  20
HETATM   20  N2  UNL     1      28.464   8.565  48.055  1.00  0.00     0.096 N 
HETATM   21  C12 UNL     1      28.635   9.560  47.047  1.00  0.00     0.299 C 
HETATM   22  C13 UNL     1      29.820   9.157  46.192  1.00  0.00     0.198 C 
HETATM   23  O3  UNL     1      30.852   8.750  47.001  1.00  0.00    -0.388 OA
HETATM   24  C14 UNL     1      30.799   9.170  48.305  1.00  0.00     0.198 C 
HETATM   25  C15 UNL     1      29.533   8.719  49.019  1.00  0.00     0.299 C 
ENDBRANCH  19  20
ENDBRANCH  18  19
ENDBRANCH  14  17
ENDBRANCH   6  13
BRANCH   1  26
HETATM   26  O1  UNL     1      22.983   6.435  51.038  1.00  0.00    -0.354 OA
HETATM   27  C1  UNL     1      21.953   6.906  50.195  1.00  0.00     0.210 C 
ENDBRANCH   1  26
BRANCH   7  28
HETATM   28  N3  UNL     1      24.465   0.593  52.073  1.00  0.00    -0.357 N 
HETATM   29  H19 UNL     1      24.487   0.344  51.054  1.00  0.00     0.166 HD
BRANCH  28  30
HETATM   30  C17 UNL     1      25.563   0.373  52.914  1.00  0.00     0.014 A 
HETATM   31  C18 UNL     1      25.749   0.650  54.191  1.00  0.00     0.026 A 
HETATM   32  C19 UNL     1      27.055   0.251  54.693  1.00  0.00     0.021 A 
HETATM   33  C20 UNL     1      27.662  -0.289  53.652  1.00  0.00     0.017 A 
HETATM   34 CL1  UNL     1      29.295  -0.964  53.648  1.00  0.00    -0.089 Cl
HETATM   35  C21 UNL     1      26.832  -0.281  52.445  1.00  0.00     0.108 A 
ENDBRANCH  28  30
ENDBRANCH   7  28
TORSDOF 7
ENDMDL
MODEL 8
REMARK VINA RESULT:      -8.0      2.785      3.372
REMARK  7 active torsions:
REMARK  status: ('A' for Active; 'I' for Inactive)
REMARK    1  A    between atoms: O1_2  and  C2_3 
REMARK    2  A    between atoms: C7_8  and  N1_9 
REMARK       I    between atoms: N1_9  and  C8_10 
REMARK    3  A    between atoms: C8_10  and  C9_12 
REMARK    4  A    between atoms: C10_13  and  C11_14 
REMARK    5  A    between atoms: C11_14  and  N2_15 
REMARK    6  A    between atoms: C16_21  and  N3_22 
REMARK    7  A    between atoms: N3_22  and  C17_23 
ROOT
HETATM    1  C2  UNL     1      26.705   2.274  51.839  1.00  0.00     0.097 A 
HETATM    2  C3  UNL     1      25.933   1.449  52.638  1.00  0.00     0.071 A 
HETATM    3  C4  UNL     1      24.613   1.166  52.359  1.00  0.00     0.068 A 
HETATM    4  C5  UNL     1      24.043   1.729  51.241  1.00  0.00     0.023 A 
HETATM    5  C6  UNL     1      24.843   2.544  50.470  1.00  0.00     0.048 A 
HETATM    6  C7  UNL     1      26.161   2.852  50.712  1.00  0.00     0.069 A 
HETATM    7  C16 UNL     1      22.821   1.647  50.742  1.00  0.00     0.069 A 
HETATM    8  C22 UNL     1      21.769   0.865  51.372  1.00  0.00     0.054 A 
HETATM    9  C23 UNL     1      20.439   0.891  50.710  1.00  0.00     0.072 C 
HETATM   10  N4  UNL     1      21.745   0.127  52.422  1.00  0.00    -0.271 NA
HETATM   11  C24 UNL     1      22.760  -0.208  53.387  1.00  0.00     0.298 A 
HETATM   12  N5  UNL     1      24.032   0.385  53.189  1.00  0.00    -0.268 NA
ENDROOT
BRANCH   6  13
HETATM   13  N1  UNL     1      27.003   3.687  49.940  1.00  0.00    -0.321 N 
HETATM   14  C8  UNL     1      26.670   4.864  49.236  1.00  0.00     0.245 C 
HETATM   15  O2  UNL     1      25.499   5.298  49.239  1.00  0.00    -0.268 OA
HETATM   16  H6  UNL     1      28.015   3.471  49.827  1.00  0.00     0.169 HD
BRANCH  14  17
HETATM   17  C9  UNL     1      27.598   5.668  48.468  1.00  0.00     0.072 C 
HETATM   18  C10 UNL     1      28.898   5.841  48.350  1.00  0.00     0.008 C 
BRANCH  18  19
HETATM   19  C11 UNL     1      29.989   6.547  47.687  1.00  0.00     0.300 C 
BRANCH  19  20
HETATM   20  N2  UNL     1      31.294   6.362  48.226  1.00  0.00     0.096 N 
HETATM   21  C12 UNL     1      32.301   7.263  47.767  1.00  0.00     0.299 C 
HETATM   22  C13 UNL     1      32.261   7.273  46.252  1.00  0.00     0.198 C 
HETATM   23  O3  UNL     1      32.163   5.985  45.787  1.00  0.00    -0.388 OA
HETATM   24  C14 UNL     1      32.543   4.997  46.658  1.00  0.00     0.198 C 
HETATM   25  C15 UNL     1      31.743   5.013  47.952  1.00  0.00     0.299 C 
ENDBRANCH  19  20
ENDBRANCH  18  19
ENDBRANCH  14  17
ENDBRANCH   6  13
BRANCH   1  26
HETATM   26  O1  UNL     1      28.032   2.531  52.160  1.00  0.00    -0.354 OA
HETATM   27  C1  UNL     1      28.454   2.346  53.494  1.00  0.00     0.210 C 
ENDBRANCH   1  26
BRANCH   7  28
HETATM   28  N3  UNL     1      22.499   2.337  49.559  1.00  0.00    -0.357 N 
HETATM   29  H19 UNL     1      22.706   1.709  48.746  1.00  0.00     0.166 HD
BRANCH  28  30
HETATM   30  C17 UNL     1      21.998   3.633  49.386  1.00  0.00     0.014 A 
HETATM   31  C18 UNL     1      21.374   4.196  48.369  1.00  0.00     0.026 A 
HETATM   32  C19 UNL     1      21.014   5.587  48.597  1.00  0.00     0.021 A 
HETATM   33  C20 UNL     1      21.452   5.849  49.816  1.00  0.00     0.017 A 
HETATM   34 CL1  UNL     1      21.303   7.397  50.654  1.00  0.00    -0.089 Cl
HETATM   35  C21 UNL     1      22.103   4.696  50.444  1.00  0.00     0.108 A 
ENDBRANCH  28  30
ENDBRANCH   7  28
TORSDOF 7
ENDMDL
MODEL 9
REMARK VINA RESULT:      -7.8      4.643      8.514
REMARK  7 active torsions:
REMARK  status: ('A' for Active; 'I' for Inactive)
REMARK    1  A    between atoms: O1_2  and  C2_3 
REMARK    2  A    between atoms: C7_8  and  N1_9 
REMARK       I    between atoms: N1_9  and  C8_10 
REMARK    3  A    between atoms: C8_10  and  C9_12 
REMARK    4  A    between atoms: C10_13  and  C11_14 
REMARK    5  A    between atoms: C11_14  and  N2_15 
REMARK    6  A    between atoms: C16_21  and  N3_22 
REMARK    7  A    between atoms: N3_22  and  C17_23 
ROOT
HETATM    1  C2  UNL     1      21.988   0.544  53.217  1.00  0.00     0.097 A 
HETATM    2  C3  UNL     1      23.335   0.226  53.227  1.00  0.00     0.071 A 
HETATM    3  C4  UNL     1      24.269   0.923  52.490  1.00  0.00     0.068 A 
HETATM    4  C5  UNL     1      23.842   1.976  51.715  1.00  0.00     0.023 A 
HETATM    5  C6  UNL     1      22.494   2.262  51.732  1.00  0.00     0.048 A 
HETATM    6  C7  UNL     1      21.531   1.594  52.450  1.00  0.00     0.069 A 
HETATM    7  C16 UNL     1      24.495   2.799  50.913  1.00  0.00     0.069 A 
HETATM    8  C22 UNL     1      25.931   2.705  50.697  1.00  0.00     0.054 A 
HETATM    9  C23 UNL     1      26.522   3.682  49.746  1.00  0.00     0.072 C 
HETATM   10  N4  UNL     1      26.832   1.924  51.173  1.00  0.00    -0.271 NA
HETATM   11  C24 UNL     1      26.764   0.832  52.109  1.00  0.00     0.298 A 
HETATM   12  N5  UNL     1      25.475   0.512  52.604  1.00  0.00    -0.268 NA
ENDROOT
BRANCH   6  13
HETATM   13  N1  UNL     1      20.142   1.865  52.483  1.00  0.00    -0.321 N 
HETATM   14  C8  UNL     1      19.209   1.809  51.426  1.00  0.00     0.245 C 
HETATM   15  O2  UNL     1      19.570   1.487  50.274  1.00  0.00    -0.268 OA
HETATM   16  H6  UNL     1      19.671   2.151  53.366  1.00  0.00     0.169 HD
BRANCH  14  17
HETATM   17  C9  UNL     1      17.795   2.099  51.543  1.00  0.00     0.072 C 
HETATM   18  C10 UNL     1      17.007   3.141  51.704  1.00  0.00     0.008 C 
BRANCH  18  19
HETATM   19  C11 UNL     1      15.643   3.643  51.841  1.00  0.00     0.300 C 
BRANCH  19  20
HETATM   20  N2  UNL     1      14.920   3.228  52.995  1.00  0.00     0.096 N 
HETATM   21  C12 UNL     1      13.940   2.210  52.796  1.00  0.00     0.299 C 
HETATM   22  C13 UNL     1      13.056   2.636  51.641  1.00  0.00     0.198 C 
HETATM   23  O3  UNL     1      12.719   3.959  51.784  1.00  0.00    -0.388 OA
HETATM   24  C14 UNL     1      12.845   4.482  53.045  1.00  0.00     0.198 C 
HETATM   25  C15 UNL     1      14.262   4.371  53.590  1.00  0.00     0.299 C 
ENDBRANCH  19  20
ENDBRANCH  18  19
ENDBRANCH  14  17
ENDBRANCH   6  13
BRANCH   1  26
HETATM   26  O1  UNL     1      21.082  -0.187  53.975  1.00  0.00    -0.354 OA
HETATM   27  C1  UNL     1      21.448  -1.481  54.405  1.00  0.00     0.210 C 
ENDBRANCH   1  26
BRANCH   7  28
HETATM   28  N3  UNL     1      23.799   3.811  50.227  1.00  0.00    -0.357 N 
HETATM   29  H19 UNL     1      23.808   4.675  50.821  1.00  0.00     0.166 HD
BRANCH  28  30
HETATM   30  C17 UNL     1      23.163   3.773  48.981  1.00  0.00     0.014 A 
HETATM   31  C18 UNL     1      22.674   2.765  48.284  1.00  0.00     0.026 A 
HETATM   32  C19 UNL     1      22.085   3.160  47.014  1.00  0.00     0.021 A 
HETATM   33  C20 UNL     1      22.238   4.471  46.969  1.00  0.00     0.017 A 
HETATM   34 CL1  UNL     1      21.714   5.525  45.651  1.00  0.00    -0.089 Cl
HETATM   35  C21 UNL     1      22.912   5.004  48.156  1.00  0.00     0.108 A 
ENDBRANCH  28  30
ENDBRANCH   7  28
TORSDOF 7
ENDMDL
