MODEL 1
REMARK VINA RESULT:     -10.2      0.000      0.000
REMARK  3 active torsions:
REMARK  status: ('A' for Active; 'I' for Inactive)
REMARK    1  A    between atoms: N1_7  and  C7_8 
REMARK    2  A    between atoms: C8_10  and  N3_11 
REMARK    3  A    between atoms: C13_17  and  C14_18 
ROOT
HETATM    1  C7  UNL     1      26.171   0.604  52.552  1.00  0.00     0.150 A 
HETATM    2  N2  UNL     1      26.369   1.734  51.858  1.00  0.00    -0.199 NA
HETATM    3  C8  UNL     1      25.373   2.642  51.652  1.00  0.00     0.201 A 
HETATM    4  N4  UNL     1      24.140   2.425  52.150  1.00  0.00    -0.221 NA
HETATM    5  C9  UNL     1      23.893   1.304  52.854  1.00  0.00     0.064 A 
HETATM    6  C10 UNL     1      24.923   0.381  53.059  1.00  0.00     0.036 A 
HETATM    7  C11 UNL     1      24.387  -0.736  53.850  1.00  0.00     0.014 A 
HETATM    8  C12 UNL     1      23.110  -0.473  54.091  1.00  0.00    -0.010 A 
HETATM    9  C13 UNL     1      22.659   0.803  53.513  1.00  0.00     0.094 A 
ENDROOT
BRANCH   9  10
HETATM   10  C14 UNL     1      21.523   0.700  52.587  1.00  0.00    -0.044 A 
HETATM   11  C15 UNL     1      21.466   1.161  51.305  1.00  0.00     0.009 A 
HETATM   12  C16 UNL     1      20.291   0.970  50.573  1.00  0.00     0.013 A 
HETATM   13  C17 UNL     1      19.193   0.337  51.087  1.00  0.00    -0.026 A 
HETATM   14  C18 UNL     1      18.052   0.168  50.333  1.00  0.00     0.012 A 
HETATM   15  C22 UNL     1      19.242  -0.132  52.383  1.00  0.00    -0.025 A 
HETATM   16  C19 UNL     1      16.968  -0.481  50.907  1.00  0.00     0.001 A 
HETATM   17  C20 UNL     1      17.001  -0.955  52.195  1.00  0.00     0.001 A 
HETATM   18  C21 UNL     1      18.147  -0.779  52.938  1.00  0.00     0.012 A 
HETATM   19  C23 UNL     1      20.391   0.055  53.100  1.00  0.00     0.020 A 
ENDBRANCH   9  10
BRANCH   3  20
HETATM   20  N3  UNL     1      25.824   3.753  50.889  1.00  0.00    -0.271 NA
HETATM   21  H7  UNL     1      26.806   3.899  51.268  1.00  0.00     0.127 HD
HETATM   22  H8  UNL     1      26.701   4.317  50.838  1.00  0.00     0.127 HD
ENDBRANCH   3  20
BRANCH   1  23
HETATM   23  N1  UNL     1      27.178  -0.366  52.790  1.00  0.00    -0.307 N 
HETATM   24  C2  UNL     1      28.370  -0.002  53.477  1.00  0.00     0.031 A 
HETATM   25  C1  UNL     1      28.493   1.250  53.875  1.00  0.00     0.043 C 
HETATM   26  C3  UNL     1      29.443  -0.949  53.754  1.00  0.00     0.029 A 
HETATM   27  C4  UNL     1      29.303  -2.222  53.344  1.00  0.00     0.004 A 
HETATM   28  C5  UNL     1      28.068  -2.603  52.630  1.00  0.00     0.018 A 
HETATM   29  C6  UNL     1      27.097  -1.731  52.383  1.00  0.00     0.099 A 
ENDBRANCH   1  23
TORSDOF 3
ENDMDL
MODEL 2
REMARK VINA RESULT:     -10.1      4.200      8.287
REMARK  3 active torsions:
REMARK  status: ('A' for Active; 'I' for Inactive)
REMARK    1  A    between atoms: N1_7  and  C7_8 
REMARK    2  A    between atoms: C8_10  and  N3_11 
REMARK    3  A    between atoms: C13_17  and  C14_18 
ROOT
HETATM    1  C7  UNL     1      24.710   2.796  52.460  1.00  0.00     0.150 A 
HETATM    2  N2  UNL     1      23.774   3.691  52.806  1.00  0.00    -0.199 NA
HETATM    3  C8  UNL     1      23.439   4.738  51.999  1.00  0.00     0.201 A 
HETATM    4  N4  UNL     1      24.051   4.905  50.810  1.00  0.00    -0.221 NA
HETATM    5  C9  UNL     1      24.998   4.031  50.420  1.00  0.00     0.064 A 
HETATM    6  C10 UNL     1      25.332   2.962  51.256  1.00  0.00     0.036 A 
HETATM    7  C11 UNL     1      26.382   2.173  50.594  1.00  0.00     0.014 A 
HETATM    8  C12 UNL     1      26.642   2.757  49.432  1.00  0.00    -0.010 A 
HETATM    9  C13 UNL     1      25.828   3.959  49.190  1.00  0.00     0.094 A 
ENDROOT
BRANCH   9  10
HETATM   10  C14 UNL     1      26.592   5.190  48.946  1.00  0.00    -0.044 A 
HETATM   11  C15 UNL     1      26.143   6.471  49.068  1.00  0.00     0.009 A 
HETATM   12  C16 UNL     1      27.022   7.522  48.791  1.00  0.00     0.013 A 
HETATM   13  C17 UNL     1      28.318   7.321  48.405  1.00  0.00    -0.026 A 
HETATM   14  C18 UNL     1      29.155   8.383  48.143  1.00  0.00     0.012 A 
HETATM   15  C22 UNL     1      28.781   6.027  48.280  1.00  0.00    -0.025 A 
HETATM   16  C19 UNL     1      30.461   8.119  47.754  1.00  0.00     0.001 A 
HETATM   17  C20 UNL     1      30.937   6.838  47.625  1.00  0.00     0.001 A 
HETATM   18  C21 UNL     1      30.091   5.784  47.891  1.00  0.00     0.012 A 
HETATM   19  C23 UNL     1      27.922   4.999  48.550  1.00  0.00     0.020 A 
ENDBRANCH   9  10
BRANCH   3  20
HETATM   20  N3  UNL     1      22.425   5.547  52.581  1.00  0.00    -0.271 NA
HETATM   21  H7  UNL     1      22.031   4.904  53.330  1.00  0.00     0.127 HD
HETATM   22  H8  UNL     1      21.728   5.431  53.349  1.00  0.00     0.127 HD
ENDBRANCH   3  20
BRANCH   1  23
HETATM   23  N1  UNL     1      25.089   1.694  53.268  1.00  0.00    -0.307 N 
HETATM   24  C2  UNL     1      24.275   0.527  53.308  1.00  0.00     0.031 A 
HETATM   25  C1  UNL     1      23.178   0.517  52.576  1.00  0.00     0.043 C 
HETATM   26  C3  UNL     1      24.607  -0.641  54.116  1.00  0.00     0.029 A 
HETATM   27  C4  UNL     1      25.729  -0.616  54.856  1.00  0.00     0.004 A 
HETATM   28  C5  UNL     1      26.576   0.593  54.817  1.00  0.00     0.018 A 
HETATM   29  C6  UNL     1      26.263   1.650  54.077  1.00  0.00     0.099 A 
ENDBRANCH   1  23
TORSDOF 3
ENDMDL
MODEL 3
REMARK VINA RESULT:      -9.9      2.591      8.198
REMARK  3 active torsions:
REMARK  status: ('A' for Active; 'I' for Inactive)
REMARK    1  A    between atoms: N1_7  and  C7_8 
REMARK    2  A    between atoms: C8_10  and  N3_11 
REMARK    3  A    between atoms: C13_17  and  C14_18 
ROOT
HETATM    1  C7  UNL     1      21.115   1.909  51.621  1.00  0.00     0.150 A 
HETATM    2  N2  UNL     1      20.469   1.008  52.375  1.00  0.00    -0.199 NA
HETATM    3  C8  UNL     1      21.068   0.381  53.428  1.00  0.00     0.201 A 
HETATM    4  N4  UNL     1      22.350   0.653  53.743  1.00  0.00    -0.221 NA
HETATM    5  C9  UNL     1      23.039   1.551  53.014  1.00  0.00     0.064 A 
HETATM    6  C10 UNL     1      22.413   2.188  51.938  1.00  0.00     0.036 A 
HETATM    7  C11 UNL     1      23.382   3.107  51.323  1.00  0.00     0.014 A 
HETATM    8  C12 UNL     1      24.512   3.008  52.009  1.00  0.00    -0.010 A 
HETATM    9  C13 UNL     1      24.435   2.047  53.121  1.00  0.00     0.094 A 
ENDROOT
BRANCH   9  10
HETATM   10  C14 UNL     1      25.428   0.964  53.079  1.00  0.00    -0.044 A 
HETATM   11  C15 UNL     1      25.201  -0.344  52.770  1.00  0.00     0.009 A 
HETATM   12  C16 UNL     1      26.277  -1.235  52.782  1.00  0.00     0.013 A 
HETATM   13  C17 UNL     1      27.553  -0.851  53.089  1.00  0.00    -0.026 A 
HETATM   14  C18 UNL     1      28.589  -1.759  53.089  1.00  0.00     0.012 A 
HETATM   15  C22 UNL     1      27.792   0.471  53.402  1.00  0.00    -0.025 A 
HETATM   16  C19 UNL     1      29.863  -1.312  53.409  1.00  0.00     0.001 A 
HETATM   17  C20 UNL     1      30.118  -0.000  53.722  1.00  0.00     0.001 A 
HETATM   18  C21 UNL     1      29.074   0.898  53.718  1.00  0.00     0.012 A 
HETATM   19  C23 UNL     1      26.739   1.344  53.391  1.00  0.00     0.020 A 
ENDBRANCH   9  10
BRANCH   3  20
HETATM   20  N3  UNL     1      20.185  -0.528  54.071  1.00  0.00    -0.271 NA
HETATM   21  H7  UNL     1      19.662   0.108  54.743  1.00  0.00     0.127 HD
HETATM   22  H8  UNL     1      19.451  -0.458  54.809  1.00  0.00     0.127 HD
ENDBRANCH   3  20
BRANCH   1  23
HETATM   23  N1  UNL     1      20.530   2.584  50.519  1.00  0.00    -0.307 N 
HETATM   24  C2  UNL     1      20.653   2.045  49.208  1.00  0.00     0.031 A 
HETATM   25  C1  UNL     1      21.320   0.916  49.066  1.00  0.00     0.043 C 
HETATM   26  C3  UNL     1      20.076   2.687  48.032  1.00  0.00     0.029 A 
HETATM   27  C4  UNL     1      19.398   3.837  48.192  1.00  0.00     0.004 A 
HETATM   28  C5  UNL     1      19.269   4.399  49.552  1.00  0.00     0.018 A 
HETATM   29  C6  UNL     1      19.799   3.805  50.614  1.00  0.00     0.099 A 
ENDBRANCH   1  23
TORSDOF 3
ENDMDL
MODEL 4
REMARK VINA RESULT:      -9.6      3.267      5.107
REMARK  3 active torsions:
REMARK  status: ('A' for Active; 'I' for Inactive)
REMARK    1  A    between atoms: N1_7  and  C7_8 
REMARK    2  A    between atoms: C8_10  and  N3_11 
REMARK    3  A    between atoms: C13_17  and  C14_18 
ROOT
HETATM    1  C7  UNL     1      25.723   0.947  52.735  1.00  0.00     0.150 A 
HETATM    2  N2  UNL     1      24.616   0.508  53.349  1.00  0.00    -0.199 NA
HETATM    3  C8  UNL     1      23.366   0.861  52.931  1.00  0.00     0.201 A 
HETATM    4  N4  UNL     1      23.209   1.675  51.869  1.00  0.00    -0.221 NA
HETATM    5  C9  UNL     1      24.293   2.141  51.220  1.00  0.00     0.064 A 
HETATM    6  C10 UNL     1      25.567   1.772  51.658  1.00  0.00     0.036 A 
HETATM    7  C11 UNL     1      26.558   2.414  50.781  1.00  0.00     0.014 A 
HETATM    8  C12 UNL     1      25.889   3.119  49.880  1.00  0.00    -0.010 A 
HETATM    9  C13 UNL     1      24.429   3.036  50.041  1.00  0.00     0.094 A 
ENDROOT
BRANCH   9  10
HETATM   10  C14 UNL     1      23.748   4.325  50.224  1.00  0.00    -0.044 A 
HETATM   11  C15 UNL     1      24.195   5.393  50.943  1.00  0.00     0.009 A 
HETATM   12  C16 UNL     1      23.403   6.543  51.003  1.00  0.00     0.013 A 
HETATM   13  C17 UNL     1      22.196   6.645  50.369  1.00  0.00    -0.026 A 
HETATM   14  C18 UNL     1      21.444   7.796  50.451  1.00  0.00     0.012 A 
HETATM   15  C22 UNL     1      21.737   5.568  49.639  1.00  0.00    -0.025 A 
HETATM   16  C19 UNL     1      20.226   7.843  49.787  1.00  0.00     0.001 A 
HETATM   17  C20 UNL     1      19.755   6.781  49.055  1.00  0.00     0.001 A 
HETATM   18  C21 UNL     1      20.516   5.635  48.981  1.00  0.00     0.012 A 
HETATM   19  C23 UNL     1      22.510   4.443  49.579  1.00  0.00     0.020 A 
ENDBRANCH   9  10
BRANCH   3  20
HETATM   20  N3  UNL     1      22.356   0.273  53.739  1.00  0.00    -0.271 NA
HETATM   21  H7  UNL     1      22.636   0.592  54.713  1.00  0.00     0.127 HD
HETATM   22  H8  UNL     1      22.133   0.253  54.758  1.00  0.00     0.127 HD
ENDBRANCH   3  20
BRANCH   1  23
HETATM   23  N1  UNL     1      27.040   0.604  53.137  1.00  0.00    -0.307 N 
HETATM   24  C2  UNL     1      27.533  -0.712  52.914  1.00  0.00     0.031 A 
HETATM   25  C1  UNL     1      26.729  -1.579  52.331  1.00  0.00     0.043 C 
HETATM   26  C3  UNL     1      28.875  -1.129  53.302  1.00  0.00     0.029 A 
HETATM   27  C4  UNL     1      29.683  -0.233  53.895  1.00  0.00     0.004 A 
HETATM   28  C5  UNL     1      29.175   1.134  54.128  1.00  0.00     0.018 A 
HETATM   29  C6  UNL     1      27.950   1.502  53.770  1.00  0.00     0.099 A 
ENDBRANCH   1  23
TORSDOF 3
ENDMDL
MODEL 5
REMARK VINA RESULT:      -9.6      3.569      7.957
REMARK  3 active torsions:
REMARK  status: ('A' for Active; 'I' for Inactive)
REMARK    1  A    between atoms: N1_7  and  C7_8 
REMARK    2  A    between atoms: C8_10  and  N3_11 
REMARK    3  A    between atoms: C13_17  and  C14_18 
ROOT
HETATM    1  C7  UNL     1      23.167   4.659  49.743  1.00  0.00     0.150 A 
HETATM    2  N2  UNL     1      22.811   3.786  48.791  1.00  0.00    -0.199 NA
HETATM    3  C8  UNL     1      22.675   2.452  49.044  1.00  0.00     0.201 A 
HETATM    4  N4  UNL     1      22.898   1.968  50.282  1.00  0.00    -0.221 NA
HETATM    5  C9  UNL     1      23.258   2.808  51.271  1.00  0.00     0.064 A 
HETATM    6  C10 UNL     1      23.394   4.173  50.998  1.00  0.00     0.036 A 
HETATM    7  C11 UNL     1      23.790   4.852  52.241  1.00  0.00     0.014 A 
HETATM    8  C12 UNL     1      23.878   3.926  53.186  1.00  0.00    -0.010 A 
HETATM    9  C13 UNL     1      23.564   2.571  52.705  1.00  0.00     0.094 A 
ENDROOT
BRANCH   9  10
HETATM   10  C14 UNL     1      24.629   1.578  52.903  1.00  0.00    -0.044 A 
HETATM   11  C15 UNL     1      24.499   0.221  52.870  1.00  0.00     0.009 A 
HETATM   12  C16 UNL     1      25.633  -0.568  53.082  1.00  0.00     0.013 A 
HETATM   13  C17 UNL     1      26.871  -0.038  53.319  1.00  0.00    -0.026 A 
HETATM   14  C18 UNL     1      27.966  -0.849  53.522  1.00  0.00     0.012 A 
HETATM   15  C22 UNL     1      27.010   1.334  53.352  1.00  0.00    -0.025 A 
HETATM   16  C19 UNL     1      29.197  -0.255  53.759  1.00  0.00     0.001 A 
HETATM   17  C20 UNL     1      29.353   1.108  53.794  1.00  0.00     0.001 A 
HETATM   18  C21 UNL     1      28.251   1.909  53.589  1.00  0.00     0.012 A 
HETATM   19  C23 UNL     1      25.902   2.107  53.146  1.00  0.00     0.020 A 
ENDBRANCH   9  10
BRANCH   3  20
HETATM   20  N3  UNL     1      22.293   1.732  47.880  1.00  0.00    -0.271 NA
HETATM   21  H7  UNL     1      21.448   2.283  47.545  1.00  0.00     0.127 HD
HETATM   22  H8  UNL     1      21.541   1.820  47.162  1.00  0.00     0.127 HD
ENDBRANCH   3  20
BRANCH   1  23
HETATM   23  N1  UNL     1      23.320   6.052  49.522  1.00  0.00    -0.307 N 
HETATM   24  C2  UNL     1      24.580   6.574  49.116  1.00  0.00     0.031 A 
HETATM   25  C1  UNL     1      25.576   5.725  48.957  1.00  0.00     0.043 C 
HETATM   26  C3  UNL     1      24.805   7.994  48.871  1.00  0.00     0.029 A 
HETATM   27  C4  UNL     1      23.780   8.848  49.036  1.00  0.00     0.004 A 
HETATM   28  C5  UNL     1      22.470   8.310  49.458  1.00  0.00     0.018 A 
HETATM   29  C6  UNL     1      22.278   7.015  49.678  1.00  0.00     0.099 A 
ENDBRANCH   1  23
TORSDOF 3
ENDMDL
MODEL 6
REMARK VINA RESULT:      -9.6      1.512      1.832
REMARK  3 active torsions:
REMARK  status: ('A' for Active; 'I' for Inactive)
REMARK    1  A    between atoms: N1_7  and  C7_8 
REMARK    2  A    between atoms: C8_10  and  N3_11 
REMARK    3  A    between atoms: C13_17  and  C14_18 
ROOT
HETATM    1  C7  UNL     1      26.399   0.720  52.311  1.00  0.00     0.150 A 
HETATM    2  N2  UNL     1      26.759   1.790  51.588  1.00  0.00    -0.199 NA
HETATM    3  C8  UNL     1      25.887   2.801  51.307  1.00  0.00     0.201 A 
HETATM    4  N4  UNL     1      24.618   2.750  51.756  1.00  0.00    -0.221 NA
HETATM    5  C9  UNL     1      24.211   1.694  52.486  1.00  0.00     0.064 A 
HETATM    6  C10 UNL     1      25.114   0.665  52.768  1.00  0.00     0.036 A 
HETATM    7  C11 UNL     1      24.417  -0.350  53.572  1.00  0.00     0.014 A 
HETATM    8  C12 UNL     1      23.172   0.072  53.746  1.00  0.00    -0.010 A 
HETATM    9  C13 UNL     1      22.900   1.368  53.105  1.00  0.00     0.094 A 
ENDROOT
BRANCH   9  10
HETATM   10  C14 UNL     1      21.798   1.364  52.133  1.00  0.00    -0.044 A 
HETATM   11  C15 UNL     1      21.541   0.413  51.191  1.00  0.00     0.009 A 
HETATM   12  C16 UNL     1      20.438   0.581  50.349  1.00  0.00     0.013 A 
HETATM   13  C17 UNL     1      19.602   1.660  50.430  1.00  0.00    -0.026 A 
HETATM   14  C18 UNL     1      18.524   1.791  49.582  1.00  0.00     0.012 A 
HETATM   15  C22 UNL     1      19.856   2.627  51.382  1.00  0.00    -0.025 A 
HETATM   16  C19 UNL     1      17.710   2.908  49.710  1.00  0.00     0.001 A 
HETATM   17  C20 UNL     1      17.948   3.878  50.652  1.00  0.00     0.001 A 
HETATM   18  C21 UNL     1      19.029   3.736  51.494  1.00  0.00     0.012 A 
HETATM   19  C23 UNL     1      20.934   2.463  52.205  1.00  0.00     0.020 A 
ENDBRANCH   9  10
BRANCH   3  20
HETATM   20  N3  UNL     1      26.498   3.821  50.528  1.00  0.00    -0.271 NA
HETATM   21  H7  UNL     1      27.278   3.290  50.039  1.00  0.00     0.127 HD
HETATM   22  H8  UNL     1      27.299   3.871  49.861  1.00  0.00     0.127 HD
ENDBRANCH   3  20
BRANCH   1  23
HETATM   23  N1  UNL     1      27.273  -0.352  52.626  1.00  0.00    -0.307 N 
HETATM   24  C2  UNL     1      28.511  -0.093  53.278  1.00  0.00     0.031 A 
HETATM   25  C1  UNL     1      28.803   1.159  53.570  1.00  0.00     0.043 C 
HETATM   26  C3  UNL     1      29.454  -1.149  53.631  1.00  0.00     0.029 A 
HETATM   27  C4  UNL     1      29.142  -2.421  53.328  1.00  0.00     0.004 A 
HETATM   28  C5  UNL     1      27.858  -2.693  52.651  1.00  0.00     0.018 A 
HETATM   29  C6  UNL     1      27.008  -1.723  52.334  1.00  0.00     0.099 A 
ENDBRANCH   1  23
TORSDOF 3
ENDMDL
MODEL 7
REMARK VINA RESULT:      -9.6      2.517      7.839
REMARK  3 active torsions:
REMARK  status: ('A' for Active; 'I' for Inactive)
REMARK    1  A    between atoms: N1_7  and  C7_8 
REMARK    2  A    between atoms: C8_10  and  N3_11 
REMARK    3  A    between atoms: C13_17  and  C14_18 
ROOT
HETATM    1  C7  UNL     1      22.012   1.271  51.463  1.00  0.00     0.150 A 
HETATM    2  N2  UNL     1      21.588   0.203  52.154  1.00  0.00    -0.199 NA
HETATM    3  C8  UNL     1      22.227  -0.234  53.277  1.00  0.00     0.201 A 
HETATM    4  N4  UNL     1      23.322   0.408  53.730  1.00  0.00    -0.221 NA
HETATM    5  C9  UNL     1      23.785   1.486  53.069  1.00  0.00     0.064 A 
HETATM    6  C10 UNL     1      23.120   1.923  51.919  1.00  0.00     0.036 A 
HETATM    7  C11 UNL     1      23.828   3.104  51.402  1.00  0.00     0.014 A 
HETATM    8  C12 UNL     1      24.851   3.338  52.213  1.00  0.00    -0.010 A 
HETATM    9  C13 UNL     1      24.944   2.379  53.325  1.00  0.00     0.094 A 
ENDROOT
BRANCH   9  10
HETATM   10  C14 UNL     1      26.216   1.648  53.411  1.00  0.00    -0.044 A 
HETATM   11  C15 UNL     1      27.431   2.156  53.765  1.00  0.00     0.009 A 
HETATM   12  C16 UNL     1      28.536   1.301  53.791  1.00  0.00     0.013 A 
HETATM   13  C17 UNL     1      28.453  -0.027  53.479  1.00  0.00    -0.026 A 
HETATM   14  C18 UNL     1      29.566  -0.838  53.517  1.00  0.00     0.012 A 
HETATM   15  C22 UNL     1      27.227  -0.549  53.120  1.00  0.00    -0.025 A 
HETATM   16  C19 UNL     1      29.421  -2.179  53.189  1.00  0.00     0.001 A 
HETATM   17  C20 UNL     1      28.209  -2.715  52.831  1.00  0.00     0.001 A 
HETATM   18  C21 UNL     1      27.104  -1.894  52.796  1.00  0.00     0.012 A 
HETATM   19  C23 UNL     1      26.146   0.286  53.094  1.00  0.00     0.020 A 
ENDBRANCH   9  10
BRANCH   3  20
HETATM   20  N3  UNL     1      21.593  -1.378  53.831  1.00  0.00    -0.271 NA
HETATM   21  H7  UNL     1      22.411  -1.892  54.275  1.00  0.00     0.127 HD
HETATM   22  H8  UNL     1      21.904  -2.214  54.373  1.00  0.00     0.127 HD
ENDBRANCH   3  20
BRANCH   1  23
HETATM   23  N1  UNL     1      21.378   1.758  50.291  1.00  0.00    -0.307 N 
HETATM   24  C2  UNL     1      20.263   2.636  50.398  1.00  0.00     0.031 A 
HETATM   25  C1  UNL     1      19.855   2.969  51.607  1.00  0.00     0.043 C 
HETATM   26  C3  UNL     1      19.566   3.173  49.234  1.00  0.00     0.029 A 
HETATM   27  C4  UNL     1      19.994   2.825  48.008  1.00  0.00     0.004 A 
HETATM   28  C5  UNL     1      21.150   1.914  47.894  1.00  0.00     0.018 A 
HETATM   29  C6  UNL     1      21.776   1.431  48.961  1.00  0.00     0.099 A 
ENDBRANCH   1  23
TORSDOF 3
ENDMDL
MODEL 8
REMARK VINA RESULT:      -9.4      2.487      8.357
REMARK  3 active torsions:
REMARK  status: ('A' for Active; 'I' for Inactive)
REMARK    1  A    between atoms: N1_7  and  C7_8 
REMARK    2  A    between atoms: C8_10  and  N3_11 
REMARK    3  A    between atoms: C13_17  and  C14_18 
ROOT
HETATM    1  C7  UNL     1      19.653   1.692  50.771  1.00  0.00     0.150 A 
HETATM    2  N2  UNL     1      20.111   1.740  49.512  1.00  0.00    -0.199 NA
HETATM    3  C8  UNL     1      21.350   1.280  49.174  1.00  0.00     0.201 A 
HETATM    4  N4  UNL     1      22.161   0.755  50.112  1.00  0.00    -0.221 NA
HETATM    5  C9  UNL     1      21.743   0.685  51.391  1.00  0.00     0.064 A 
HETATM    6  C10 UNL     1      20.472   1.159  51.724  1.00  0.00     0.036 A 
HETATM    7  C11 UNL     1      20.274   0.964  53.168  1.00  0.00     0.014 A 
HETATM    8  C12 UNL     1      21.376   0.403  53.646  1.00  0.00    -0.010 A 
HETATM    9  C13 UNL     1      22.402   0.167  52.618  1.00  0.00     0.094 A 
ENDROOT
BRANCH   9  10
HETATM   10  C14 UNL     1      23.702   0.802  52.877  1.00  0.00    -0.044 A 
HETATM   11  C15 UNL     1      23.939   2.130  53.073  1.00  0.00     0.009 A 
HETATM   12  C16 UNL     1      25.252   2.551  53.307  1.00  0.00     0.013 A 
HETATM   13  C17 UNL     1      26.310   1.687  53.350  1.00  0.00    -0.026 A 
HETATM   14  C18 UNL     1      27.590   2.140  53.584  1.00  0.00     0.012 A 
HETATM   15  C22 UNL     1      26.077   0.341  53.152  1.00  0.00    -0.025 A 
HETATM   16  C19 UNL     1      28.626   1.217  53.615  1.00  0.00     0.001 A 
HETATM   17  C20 UNL     1      28.411  -0.125  53.422  1.00  0.00     0.001 A 
HETATM   18  C21 UNL     1      27.127  -0.566  53.189  1.00  0.00     0.012 A 
HETATM   19  C23 UNL     1      24.795  -0.071  52.923  1.00  0.00     0.020 A 
ENDBRANCH   9  10
BRANCH   3  20
HETATM   20  N3  UNL     1      21.609   1.440  47.786  1.00  0.00    -0.271 NA
HETATM   21  H7  UNL     1      20.695   1.853  47.435  1.00  0.00     0.127 HD
HETATM   22  H8  UNL     1      21.075   1.797  46.963  1.00  0.00     0.127 HD
ENDBRANCH   3  20
BRANCH   1  23
HETATM   23  N1  UNL     1      18.373   2.159  51.165  1.00  0.00    -0.307 N 
HETATM   24  C2  UNL     1      17.275   1.255  51.232  1.00  0.00     0.031 A 
HETATM   25  C1  UNL     1      17.495  -0.006  50.917  1.00  0.00     0.043 C 
HETATM   26  C3  UNL     1      15.934   1.670  51.630  1.00  0.00     0.029 A 
HETATM   27  C4  UNL     1      15.725   2.959  51.949  1.00  0.00     0.004 A 
HETATM   28  C5  UNL     1      16.862   3.899  51.881  1.00  0.00     0.018 A 
HETATM   29  C6  UNL     1      18.078   3.509  51.517  1.00  0.00     0.099 A 
ENDBRANCH   1  23
TORSDOF 3
ENDMDL
MODEL 9
REMARK VINA RESULT:      -9.2      4.038      7.511
REMARK  3 active torsions:
REMARK  status: ('A' for Active; 'I' for Inactive)
REMARK    1  A    between atoms: N1_7  and  C7_8 
REMARK    2  A    between atoms: C8_10  and  N3_11 
REMARK    3  A    between atoms: C13_17  and  C14_18 
ROOT
HETATM    1  C7  UNL     1      22.222   5.785  49.571  1.00  0.00     0.150 A 
HETATM    2  N2  UNL     1      22.896   6.534  50.456  1.00  0.00    -0.199 NA
HETATM    3  C8  UNL     1      23.873   6.012  51.251  1.00  0.00     0.201 A 
HETATM    4  N4  UNL     1      24.194   4.706  51.168  1.00  0.00    -0.221 NA
HETATM    5  C9  UNL     1      23.544   3.915  50.294  1.00  0.00     0.064 A 
HETATM    6  C10 UNL     1      22.544   4.462  49.485  1.00  0.00     0.036 A 
HETATM    7  C11 UNL     1      22.005   3.390  48.634  1.00  0.00     0.014 A 
HETATM    8  C12 UNL     1      22.661   2.278  48.937  1.00  0.00    -0.010 A 
HETATM    9  C13 UNL     1      23.677   2.468  49.984  1.00  0.00     0.094 A 
ENDROOT
BRANCH   9  10
HETATM   10  C14 UNL     1      23.515   1.615  51.171  1.00  0.00    -0.044 A 
HETATM   11  C15 UNL     1      24.486   1.245  52.052  1.00  0.00     0.009 A 
HETATM   12  C16 UNL     1      24.141   0.423  53.129  1.00  0.00     0.013 A 
HETATM   13  C17 UNL     1      22.866  -0.025  53.338  1.00  0.00    -0.026 A 
HETATM   14  C18 UNL     1      22.564  -0.834  54.412  1.00  0.00     0.012 A 
HETATM   15  C22 UNL     1      21.877   0.345  52.451  1.00  0.00    -0.025 A 
HETATM   16  C19 UNL     1      21.253  -1.259  54.575  1.00  0.00     0.001 A 
HETATM   17  C20 UNL     1      20.257  -0.899  53.702  1.00  0.00     0.001 A 
HETATM   18  C21 UNL     1      20.572  -0.090  52.632  1.00  0.00     0.012 A 
HETATM   19  C23 UNL     1      22.214   1.148  51.398  1.00  0.00     0.020 A 
ENDBRANCH   9  10
BRANCH   3  20
HETATM   20  N3  UNL     1      24.440   6.998  52.103  1.00  0.00    -0.271 NA
HETATM   21  H7  UNL     1      24.396   7.869  51.496  1.00  0.00     0.127 HD
HETATM   22  H8  UNL     1      24.643   8.019  52.031  1.00  0.00     0.127 HD
ENDBRANCH   3  20
BRANCH   1  23
HETATM   23  N1  UNL     1      21.199   6.287  48.726  1.00  0.00    -0.307 N 
HETATM   24  C2  UNL     1      21.526   6.799  47.440  1.00  0.00     0.031 A 
HETATM   25  C1  UNL     1      22.794   6.787  47.077  1.00  0.00     0.043 C 
HETATM   26  C3  UNL     1      20.524   7.329  46.522  1.00  0.00     0.029 A 
HETATM   27  C4  UNL     1      19.236   7.334  46.905  1.00  0.00     0.004 A 
HETATM   28  C5  UNL     1      18.892   6.803  48.240  1.00  0.00     0.018 A 
HETATM   29  C6  UNL     1      19.814   6.324  49.067  1.00  0.00     0.099 A 
ENDBRANCH   1  23
TORSDOF 3
ENDMDL
