MODEL 1
REMARK VINA RESULT:      -8.4      0.000      0.000
REMARK  3 active torsions:
REMARK  status: ('A' for Active; 'I' for Inactive)
REMARK    1  A    between atoms: C1_2  and  O1_5 
REMARK    2  A    between atoms: O1_5  and  C2_6 
REMARK    3  A    between atoms: N1_14  and  C10_15 
ROOT
HETATM    1  C2  UNL     1      27.157   1.599  52.909  1.00  0.00     0.079 A 
HETATM    2  C3  UNL     1      26.009   1.241  53.632  1.00  0.00     0.040 A 
HETATM    3  C4  UNL     1      24.797   1.412  52.991  1.00  0.00     0.040 A 
HETATM    4  C5  UNL     1      24.613   1.897  51.722  1.00  0.00     0.083 A 
HETATM    5  C6  UNL     1      25.686   2.273  50.940  1.00  0.00    -0.020 A 
HETATM    6  C7  UNL     1      26.921   2.093  51.608  1.00  0.00     0.047 A 
HETATM    7  C8  UNL     1      26.166   2.807  49.607  1.00  0.00     0.061 C 
HETATM    8  C9  UNL     1      26.724   4.198  49.694  1.00  0.00     0.129 C 
HETATM    9  N1  UNL     1      25.736   5.266  49.665  1.00  0.00    -0.362 N 
HETATM   10  C16 UNL     1      24.872   5.074  50.774  1.00  0.00     0.274 C 
HETATM   11  N2  UNL     1      23.893   5.998  51.172  1.00  0.00    -0.263 NA
HETATM   12  C17 UNL     1      22.816   5.464  51.741  1.00  0.00     0.230 C 
HETATM   13  N3  UNL     1      23.172   4.107  51.677  1.00  0.00    -0.230 NA
HETATM   14  C18 UNL     1      22.473   3.086  51.362  1.00  0.00     0.260 C 
HETATM   15  O2  UNL     1      23.235   1.928  51.426  1.00  0.00    -0.304 OA
ENDROOT
BRANCH   9  16
HETATM   16  C10 UNL     1      25.703   6.271  48.674  1.00  0.00     0.031 A 
HETATM   17  C11 UNL     1      24.581   6.737  48.024  1.00  0.00     0.029 A 
HETATM   18  C12 UNL     1      24.560   7.702  47.058  1.00  0.00     0.002 A 
HETATM   19  C13 UNL     1      25.745   8.289  46.666  1.00  0.00     0.000 A 
HETATM   20  C14 UNL     1      26.906   7.855  47.291  1.00  0.00     0.002 A 
HETATM   21  C15 UNL     1      26.871   6.875  48.263  1.00  0.00     0.029 A 
ENDBRANCH   9  16
BRANCH   1  22
HETATM   22  O1  UNL     1      28.357   1.420  53.571  1.00  0.00    -0.255 OA
BRANCH  22  23
HETATM   23  C1  UNL     1      28.942   0.174  53.793  1.00  0.00     0.530 C 
HETATM   24  F1  UNL     1      30.321   0.255  53.557  1.00  0.00    -0.144 F 
HETATM   25  F2  UNL     1      28.467  -0.771  52.903  1.00  0.00    -0.144 F 
HETATM   26  F3  UNL     1      28.702  -0.231  55.090  1.00  0.00    -0.144 F 
ENDBRANCH  22  23
ENDBRANCH   1  22
TORSDOF 3
ENDMDL
MODEL 2
REMARK VINA RESULT:      -8.3      3.248      6.472
REMARK  3 active torsions:
REMARK  status: ('A' for Active; 'I' for Inactive)
REMARK    1  A    between atoms: C1_2  and  O1_5 
REMARK    2  A    between atoms: O1_5  and  C2_6 
REMARK    3  A    between atoms: N1_14  and  C10_15 
ROOT
HETATM    1  C2  UNL     1      26.368   0.465  52.332  1.00  0.00     0.079 A 
HETATM    2  C3  UNL     1      26.789   1.464  51.440  1.00  0.00     0.040 A 
HETATM    3  C4  UNL     1      25.886   2.474  51.173  1.00  0.00     0.040 A 
HETATM    4  C5  UNL     1      24.624   2.591  51.695  1.00  0.00     0.083 A 
HETATM    5  C6  UNL     1      24.128   1.656  52.580  1.00  0.00    -0.020 A 
HETATM    6  C7  UNL     1      25.063   0.626  52.844  1.00  0.00     0.047 A 
HETATM    7  C8  UNL     1      22.975   1.218  53.458  1.00  0.00     0.061 C 
HETATM    8  C9  UNL     1      22.286  -0.019  52.955  1.00  0.00     0.129 C 
HETATM    9  N1  UNL     1      21.294   0.203  51.914  1.00  0.00    -0.362 N 
HETATM   10  C16 UNL     1      21.959   0.808  50.817  1.00  0.00     0.274 C 
HETATM   11  N2  UNL     1      21.363   1.022  49.563  1.00  0.00    -0.263 NA
HETATM   12  C17 UNL     1      21.810   2.088  48.906  1.00  0.00     0.230 C 
HETATM   13  N3  UNL     1      22.749   2.557  49.839  1.00  0.00    -0.230 NA
HETATM   14  C18 UNL     1      22.995   3.746  50.233  1.00  0.00     0.260 C 
HETATM   15  O2  UNL     1      24.009   3.752  51.181  1.00  0.00    -0.304 OA
ENDROOT
BRANCH   9  16
HETATM   16  C10 UNL     1      19.931  -0.139  52.052  1.00  0.00     0.031 A 
HETATM   17  C11 UNL     1      18.909   0.232  51.207  1.00  0.00     0.029 A 
HETATM   18  C12 UNL     1      17.591  -0.096  51.353  1.00  0.00     0.002 A 
HETATM   19  C13 UNL     1      17.204  -0.865  52.430  1.00  0.00     0.000 A 
HETATM   20  C14 UNL     1      18.197  -1.267  53.313  1.00  0.00     0.002 A 
HETATM   21  C15 UNL     1      19.516  -0.907  53.118  1.00  0.00     0.029 A 
ENDBRANCH   9  16
BRANCH   1  22
HETATM   22  O1  UNL     1      27.287  -0.536  52.583  1.00  0.00    -0.255 OA
BRANCH  22  23
HETATM   23  C1  UNL     1      28.289  -0.445  53.549  1.00  0.00     0.530 C 
HETATM   24  F1  UNL     1      27.715  -0.143  54.791  1.00  0.00    -0.144 F 
HETATM   25  F2  UNL     1      29.157   0.595  53.277  1.00  0.00    -0.144 F 
HETATM   26  F3  UNL     1      28.981  -1.637  53.619  1.00  0.00    -0.144 F 
ENDBRANCH  22  23
ENDBRANCH   1  22
TORSDOF 3
ENDMDL
MODEL 3
REMARK VINA RESULT:      -7.9      3.412      4.851
REMARK  3 active torsions:
REMARK  status: ('A' for Active; 'I' for Inactive)
REMARK    1  A    between atoms: C1_2  and  O1_5 
REMARK    2  A    between atoms: O1_5  and  C2_6 
REMARK    3  A    between atoms: N1_14  and  C10_15 
ROOT
HETATM    1  C2  UNL     1      22.670   0.256  52.981  1.00  0.00     0.079 A 
HETATM    2  C3  UNL     1      23.850  -0.503  52.926  1.00  0.00     0.040 A 
HETATM    3  C4  UNL     1      25.038   0.201  52.931  1.00  0.00     0.040 A 
HETATM    4  C5  UNL     1      25.172   1.565  52.984  1.00  0.00     0.083 A 
HETATM    5  C6  UNL     1      24.067   2.388  53.042  1.00  0.00    -0.020 A 
HETATM    6  C7  UNL     1      22.855   1.654  53.036  1.00  0.00     0.047 A 
HETATM    7  C8  UNL     1      23.534   3.803  53.129  1.00  0.00     0.061 C 
HETATM    8  C9  UNL     1      22.855   4.258  51.870  1.00  0.00     0.129 C 
HETATM    9  N1  UNL     1      23.743   4.751  50.828  1.00  0.00    -0.362 N 
HETATM   10  C16 UNL     1      24.626   3.694  50.490  1.00  0.00     0.274 C 
HETATM   11  N2  UNL     1      25.521   3.739  49.408  1.00  0.00    -0.263 NA
HETATM   12  C17 UNL     1      26.644   3.047  49.581  1.00  0.00     0.230 C 
HETATM   13  N3  UNL     1      26.410   2.548  50.872  1.00  0.00    -0.230 NA
HETATM   14  C18 UNL     1      27.196   2.457  51.874  1.00  0.00     0.260 C 
HETATM   15  O2  UNL     1      26.541   1.903  52.966  1.00  0.00    -0.304 OA
ENDROOT
BRANCH   9  16
HETATM   16  C10 UNL     1      23.682   6.062  50.309  1.00  0.00     0.031 A 
HETATM   17  C11 UNL     1      24.547   7.094  50.598  1.00  0.00     0.029 A 
HETATM   18  C12 UNL     1      24.475   8.363  50.098  1.00  0.00     0.002 A 
HETATM   19  C13 UNL     1      23.459   8.684  49.223  1.00  0.00     0.000 A 
HETATM   20  C14 UNL     1      22.558   7.679  48.898  1.00  0.00     0.002 A 
HETATM   21  C15 UNL     1      22.678   6.411  49.432  1.00  0.00     0.029 A 
ENDBRANCH   9  16
BRANCH   1  22
HETATM   22  O1  UNL     1      21.495  -0.469  52.974  1.00  0.00    -0.255 OA
BRANCH  22  23
HETATM   23  C1  UNL     1      20.870  -0.947  54.127  1.00  0.00     0.530 C 
HETATM   24  F1  UNL     1      21.534  -2.096  54.577  1.00  0.00    -0.144 F 
HETATM   25  F2  UNL     1      19.573  -1.344  53.868  1.00  0.00    -0.144 F 
HETATM   26  F3  UNL     1      20.884   0.027  55.104  1.00  0.00    -0.144 F 
ENDBRANCH  22  23
ENDBRANCH   1  22
TORSDOF 3
ENDMDL
MODEL 4
REMARK VINA RESULT:      -7.8      2.588      3.405
REMARK  3 active torsions:
REMARK  status: ('A' for Active; 'I' for Inactive)
REMARK    1  A    between atoms: C1_2  and  O1_5 
REMARK    2  A    between atoms: O1_5  and  C2_6 
REMARK    3  A    between atoms: N1_14  and  C10_15 
ROOT
HETATM    1  C2  UNL     1      22.596   1.254  52.246  1.00  0.00     0.079 A 
HETATM    2  C3  UNL     1      21.369   1.852  52.574  1.00  0.00     0.040 A 
HETATM    3  C4  UNL     1      20.924   2.852  51.732  1.00  0.00     0.040 A 
HETATM    4  C5  UNL     1      21.566   3.313  50.612  1.00  0.00     0.083 A 
HETATM    5  C6  UNL     1      22.775   2.782  50.214  1.00  0.00    -0.020 A 
HETATM    6  C7  UNL     1      23.220   1.758  51.085  1.00  0.00     0.047 A 
HETATM    7  C8  UNL     1      23.898   2.790  49.198  1.00  0.00     0.061 C 
HETATM    8  C9  UNL     1      25.187   3.331  49.746  1.00  0.00     0.129 C 
HETATM    9  N1  UNL     1      25.300   4.782  49.750  1.00  0.00    -0.362 N 
HETATM   10  C16 UNL     1      24.241   5.287  50.549  1.00  0.00     0.274 C 
HETATM   11  N2  UNL     1      24.117   6.635  50.922  1.00  0.00    -0.263 NA
HETATM   12  C17 UNL     1      22.867   7.060  51.080  1.00  0.00     0.230 C 
HETATM   13  N3  UNL     1      22.181   5.873  50.773  1.00  0.00    -0.230 NA
HETATM   14  C18 UNL     1      21.134   5.688  50.067  1.00  0.00     0.260 C 
HETATM   15  O2  UNL     1      20.801   4.341  50.023  1.00  0.00    -0.304 OA
ENDROOT
BRANCH   9  16
HETATM   16  C10 UNL     1      26.303   5.488  49.052  1.00  0.00     0.031 A 
HETATM   17  C11 UNL     1      26.166   6.722  48.455  1.00  0.00     0.029 A 
HETATM   18  C12 UNL     1      27.140   7.393  47.772  1.00  0.00     0.002 A 
HETATM   19  C13 UNL     1      28.388   6.820  47.643  1.00  0.00     0.000 A 
HETATM   20  C14 UNL     1      28.579   5.575  48.228  1.00  0.00     0.002 A 
HETATM   21  C15 UNL     1      27.559   4.940  48.908  1.00  0.00     0.029 A 
ENDBRANCH   9  16
BRANCH   1  22
HETATM   22  O1  UNL     1      23.020   0.256  53.102  1.00  0.00    -0.255 OA
BRANCH  22  23
HETATM   23  C1  UNL     1      24.346   0.088  53.501  1.00  0.00     0.530 C 
HETATM   24  F1  UNL     1      24.386  -0.633  54.702  1.00  0.00    -0.144 F 
HETATM   25  F2  UNL     1      24.947   1.301  53.776  1.00  0.00    -0.144 F 
HETATM   26  F3  UNL     1      25.049  -0.580  52.519  1.00  0.00    -0.144 F 
ENDBRANCH  22  23
ENDBRANCH   1  22
TORSDOF 3
ENDMDL
MODEL 5
REMARK VINA RESULT:      -7.8      2.924      4.208
REMARK  3 active torsions:
REMARK  status: ('A' for Active; 'I' for Inactive)
REMARK    1  A    between atoms: C1_2  and  O1_5 
REMARK    2  A    between atoms: O1_5  and  C2_6 
REMARK    3  A    between atoms: N1_14  and  C10_15 
ROOT
HETATM    1  C2  UNL     1      24.791   0.594  52.837  1.00  0.00     0.079 A 
HETATM    2  C3  UNL     1      25.455   1.606  53.547  1.00  0.00     0.040 A 
HETATM    3  C4  UNL     1      24.905   2.871  53.480  1.00  0.00     0.040 A 
HETATM    4  C5  UNL     1      23.776   3.229  52.789  1.00  0.00     0.083 A 
HETATM    5  C6  UNL     1      23.060   2.299  52.065  1.00  0.00    -0.020 A 
HETATM    6  C7  UNL     1      23.635   1.006  52.141  1.00  0.00     0.047 A 
HETATM    7  C8  UNL     1      21.858   2.017  51.188  1.00  0.00     0.061 C 
HETATM    8  C9  UNL     1      22.224   1.711  49.764  1.00  0.00     0.129 C 
HETATM    9  N1  UNL     1      22.457   2.874  48.919  1.00  0.00    -0.362 N 
HETATM   10  C16 UNL     1      23.525   3.608  49.495  1.00  0.00     0.274 C 
HETATM   11  N2  UNL     1      24.144   4.706  48.875  1.00  0.00    -0.263 NA
HETATM   12  C17 UNL     1      24.618   5.627  49.709  1.00  0.00     0.230 C 
HETATM   13  N3  UNL     1      24.253   5.040  50.931  1.00  0.00    -0.230 NA
HETATM   14  C18 UNL     1      23.748   5.566  51.978  1.00  0.00     0.260 C 
HETATM   15  O2  UNL     1      23.538   4.608  52.960  1.00  0.00    -0.304 OA
ENDROOT
BRANCH   9  16
HETATM   16  C10 UNL     1      21.706   3.156  47.758  1.00  0.00     0.031 A 
HETATM   17  C11 UNL     1      22.212   3.407  46.502  1.00  0.00     0.029 A 
HETATM   18  C12 UNL     1      21.478   3.689  45.385  1.00  0.00     0.002 A 
HETATM   19  C13 UNL     1      20.103   3.739  45.478  1.00  0.00     0.000 A 
HETATM   20  C14 UNL     1      19.541   3.493  46.724  1.00  0.00     0.002 A 
HETATM   21  C15 UNL     1      20.331   3.212  47.822  1.00  0.00     0.029 A 
ENDBRANCH   9  16
BRANCH   1  22
HETATM   22  O1  UNL     1      25.360  -0.662  52.918  1.00  0.00    -0.255 OA
BRANCH  22  23
HETATM   23  C1  UNL     1      26.615  -0.981  52.399  1.00  0.00     0.530 C 
HETATM   24  F1  UNL     1      26.619  -2.314  51.969  1.00  0.00    -0.144 F 
HETATM   25  F2  UNL     1      27.596  -0.899  53.369  1.00  0.00    -0.144 F 
HETATM   26  F3  UNL     1      26.914  -0.139  51.347  1.00  0.00    -0.144 F 
ENDBRANCH  22  23
ENDBRANCH   1  22
TORSDOF 3
ENDMDL
MODEL 6
REMARK VINA RESULT:      -7.7      5.051      7.590
REMARK  3 active torsions:
REMARK  status: ('A' for Active; 'I' for Inactive)
REMARK    1  A    between atoms: C1_2  and  O1_5 
REMARK    2  A    between atoms: O1_5  and  C2_6 
REMARK    3  A    between atoms: N1_14  and  C10_15 
ROOT
HETATM    1  C2  UNL     1      20.992   2.879  49.632  1.00  0.00     0.079 A 
HETATM    2  C3  UNL     1      19.768   2.392  50.119  1.00  0.00     0.040 A 
HETATM    3  C4  UNL     1      19.724   2.063  51.460  1.00  0.00     0.040 A 
HETATM    4  C5  UNL     1      20.758   2.167  52.354  1.00  0.00     0.083 A 
HETATM    5  C6  UNL     1      21.994   2.636  51.963  1.00  0.00    -0.020 A 
HETATM    6  C7  UNL     1      22.027   2.969  50.587  1.00  0.00     0.047 A 
HETATM    7  C8  UNL     1      23.410   2.991  52.369  1.00  0.00     0.061 C 
HETATM    8  C9  UNL     1      24.439   2.053  51.805  1.00  0.00     0.129 C 
HETATM    9  N1  UNL     1      24.629   0.819  52.551  1.00  0.00    -0.362 N 
HETATM   10  C16 UNL     1      23.384   0.139  52.569  1.00  0.00     0.274 C 
HETATM   11  N2  UNL     1      23.213  -1.168  53.056  1.00  0.00    -0.263 NA
HETATM   12  C17 UNL     1      22.019  -1.415  53.588  1.00  0.00     0.230 C 
HETATM   13  N3  UNL     1      21.423  -0.156  53.412  1.00  0.00    -0.230 NA
HETATM   14  C18 UNL     1      20.699   0.530  54.209  1.00  0.00     0.260 C 
HETATM   15  O2  UNL     1      20.325   1.732  53.624  1.00  0.00    -0.304 OA
ENDROOT
BRANCH   9  16
HETATM   16  C10 UNL     1      25.858   0.441  53.132  1.00  0.00     0.031 A 
HETATM   17  C11 UNL     1      26.345   0.855  54.352  1.00  0.00     0.029 A 
HETATM   18  C12 UNL     1      27.541   0.491  54.902  1.00  0.00     0.002 A 
HETATM   19  C13 UNL     1      28.369  -0.364  54.206  1.00  0.00     0.000 A 
HETATM   20  C14 UNL     1      27.926  -0.811  52.969  1.00  0.00     0.002 A 
HETATM   21  C15 UNL     1      26.706  -0.413  52.459  1.00  0.00     0.029 A 
ENDBRANCH   9  16
BRANCH   1  22
HETATM   22  O1  UNL     1      21.013   3.200  48.289  1.00  0.00    -0.255 OA
BRANCH  22  23
HETATM   23  C1  UNL     1      22.137   3.063  47.475  1.00  0.00     0.530 C 
HETATM   24  F1  UNL     1      21.766   3.223  46.133  1.00  0.00    -0.144 F 
HETATM   25  F2  UNL     1      22.671   1.792  47.564  1.00  0.00    -0.144 F 
HETATM   26  F3  UNL     1      23.084   4.004  47.823  1.00  0.00    -0.144 F 
ENDBRANCH  22  23
ENDBRANCH   1  22
TORSDOF 3
ENDMDL
MODEL 7
REMARK VINA RESULT:      -7.7      3.642      4.662
REMARK  3 active torsions:
REMARK  status: ('A' for Active; 'I' for Inactive)
REMARK    1  A    between atoms: C1_2  and  O1_5 
REMARK    2  A    between atoms: O1_5  and  C2_6 
REMARK    3  A    between atoms: N1_14  and  C10_15 
ROOT
HETATM    1  C2  UNL     1      21.523   1.401  52.001  1.00  0.00     0.079 A 
HETATM    2  C3  UNL     1      20.582   1.050  51.021  1.00  0.00     0.040 A 
HETATM    3  C4  UNL     1      20.968   1.218  49.706  1.00  0.00     0.040 A 
HETATM    4  C5  UNL     1      22.178   1.693  49.271  1.00  0.00     0.083 A 
HETATM    5  C6  UNL     1      23.162   2.060  50.164  1.00  0.00    -0.020 A 
HETATM    6  C7  UNL     1      22.754   1.884  51.509  1.00  0.00     0.047 A 
HETATM    7  C8  UNL     1      24.569   2.583  50.367  1.00  0.00     0.061 C 
HETATM    8  C9  UNL     1      24.607   3.974  50.931  1.00  0.00     0.129 C 
HETATM    9  N1  UNL     1      24.446   5.043  49.957  1.00  0.00    -0.362 N 
HETATM   10  C16 UNL     1      23.185   4.861  49.333  1.00  0.00     0.274 C 
HETATM   11  N2  UNL     1      22.606   5.790  48.454  1.00  0.00    -0.263 NA
HETATM   12  C17 UNL     1      21.828   5.262  47.513  1.00  0.00     0.230 C 
HETATM   13  N3  UNL     1      21.951   3.904  47.850  1.00  0.00    -0.230 NA
HETATM   14  C18 UNL     1      22.112   2.882  47.102  1.00  0.00     0.260 C 
HETATM   15  O2  UNL     1      22.191   1.723  47.861  1.00  0.00    -0.304 OA
ENDROOT
BRANCH   9  16
HETATM   16  C10 UNL     1      25.419   6.039  49.726  1.00  0.00     0.031 A 
HETATM   17  C11 UNL     1      25.489   7.269  50.343  1.00  0.00     0.029 A 
HETATM   18  C12 UNL     1      26.429   8.231  50.105  1.00  0.00     0.002 A 
HETATM   19  C13 UNL     1      27.414   7.993  49.170  1.00  0.00     0.000 A 
HETATM   20  C14 UNL     1      27.388   6.768  48.518  1.00  0.00     0.002 A 
HETATM   21  C15 UNL     1      26.415   5.829  48.796  1.00  0.00     0.029 A 
ENDBRANCH   9  16
BRANCH   1  22
HETATM   22  O1  UNL     1      21.114   1.225  53.309  1.00  0.00    -0.255 OA
BRANCH  22  23
HETATM   23  C1  UNL     1      21.140  -0.002  53.973  1.00  0.00     0.530 C 
HETATM   24  F1  UNL     1      22.273  -0.724  53.576  1.00  0.00    -0.144 F 
HETATM   25  F2  UNL     1      20.058  -0.786  53.624  1.00  0.00    -0.144 F 
HETATM   26  F3  UNL     1      21.159   0.205  55.337  1.00  0.00    -0.144 F 
ENDBRANCH  22  23
ENDBRANCH   1  22
TORSDOF 3
ENDMDL
MODEL 8
REMARK VINA RESULT:      -7.6      3.986      7.256
REMARK  3 active torsions:
REMARK  status: ('A' for Active; 'I' for Inactive)
REMARK    1  A    between atoms: C1_2  and  O1_5 
REMARK    2  A    between atoms: O1_5  and  C2_6 
REMARK    3  A    between atoms: N1_14  and  C10_15 
ROOT
HETATM    1  C2  UNL     1      24.781   6.271  49.867  1.00  0.00     0.079 A 
HETATM    2  C3  UNL     1      23.909   6.510  48.794  1.00  0.00     0.040 A 
HETATM    3  C4  UNL     1      22.608   6.073  48.946  1.00  0.00     0.040 A 
HETATM    4  C5  UNL     1      22.091   5.432  50.042  1.00  0.00     0.083 A 
HETATM    5  C6  UNL     1      22.876   5.158  51.143  1.00  0.00    -0.020 A 
HETATM    6  C7  UNL     1      24.208   5.610  50.974  1.00  0.00     0.047 A 
HETATM    7  C8  UNL     1      22.956   4.571  52.536  1.00  0.00     0.061 C 
HETATM    8  C9  UNL     1      23.767   3.309  52.601  1.00  0.00     0.129 C 
HETATM    9  N1  UNL     1      23.056   2.095  52.227  1.00  0.00    -0.362 N 
HETATM   10  C16 UNL     1      22.611   2.259  50.890  1.00  0.00     0.274 C 
HETATM   11  N2  UNL     1      22.029   1.233  50.128  1.00  0.00    -0.263 NA
HETATM   12  C17 UNL     1      21.136   1.640  49.231  1.00  0.00     0.230 C 
HETATM   13  N3  UNL     1      21.179   3.023  49.474  1.00  0.00    -0.230 NA
HETATM   14  C18 UNL     1      20.231   3.874  49.556  1.00  0.00     0.260 C 
HETATM   15  O2  UNL     1      20.730   5.143  49.818  1.00  0.00    -0.304 OA
ENDROOT
BRANCH   9  16
HETATM   16  C10 UNL     1      22.874   0.999  53.098  1.00  0.00     0.031 A 
HETATM   17  C11 UNL     1      21.687   0.604  53.673  1.00  0.00     0.029 A 
HETATM   18  C12 UNL     1      21.522  -0.453  54.523  1.00  0.00     0.002 A 
HETATM   19  C13 UNL     1      22.617  -1.218  54.865  1.00  0.00     0.000 A 
HETATM   20  C14 UNL     1      23.839  -0.862  54.313  1.00  0.00     0.002 A 
HETATM   21  C15 UNL     1      23.950   0.217  53.458  1.00  0.00     0.029 A 
ENDBRANCH   9  16
BRANCH   1  22
HETATM   22  O1  UNL     1      26.077   6.716  49.692  1.00  0.00    -0.255 OA
BRANCH  22  23
HETATM   23  C1  UNL     1      26.892   6.334  48.626  1.00  0.00     0.530 C 
HETATM   24  F1  UNL     1      26.827   4.944  48.463  1.00  0.00    -0.144 F 
HETATM   25  F2  UNL     1      28.220   6.618  48.880  1.00  0.00    -0.144 F 
HETATM   26  F3  UNL     1      26.481   6.971  47.472  1.00  0.00    -0.144 F 
ENDBRANCH  22  23
ENDBRANCH   1  22
TORSDOF 3
ENDMDL
MODEL 9
REMARK VINA RESULT:      -7.5      4.612      7.545
REMARK  3 active torsions:
REMARK  status: ('A' for Active; 'I' for Inactive)
REMARK    1  A    between atoms: C1_2  and  O1_5 
REMARK    2  A    between atoms: O1_5  and  C2_6 
REMARK    3  A    between atoms: N1_14  and  C10_15 
ROOT
HETATM    1  C2  UNL     1      21.898   6.045  49.549  1.00  0.00     0.079 A 
HETATM    2  C3  UNL     1      20.515   5.818  49.473  1.00  0.00     0.040 A 
HETATM    3  C4  UNL     1      19.969   5.004  50.446  1.00  0.00     0.040 A 
HETATM    4  C5  UNL     1      20.647   4.400  51.473  1.00  0.00     0.083 A 
HETATM    5  C6  UNL     1      22.008   4.570  51.625  1.00  0.00    -0.020 A 
HETATM    6  C7  UNL     1      22.556   5.406  50.621  1.00  0.00     0.047 A 
HETATM    7  C8  UNL     1      23.248   4.260  52.436  1.00  0.00     0.061 C 
HETATM    8  C9  UNL     1      24.214   3.361  51.720  1.00  0.00     0.129 C 
HETATM    9  N1  UNL     1      23.915   1.939  51.799  1.00  0.00    -0.362 N 
HETATM   10  C16 UNL     1      22.632   1.744  51.226  1.00  0.00     0.274 C 
HETATM   11  N2  UNL     1      22.072   0.481  50.974  1.00  0.00    -0.263 NA
HETATM   12  C17 UNL     1      20.746   0.429  51.058  1.00  0.00     0.230 C 
HETATM   13  N3  UNL     1      20.484   1.769  51.391  1.00  0.00    -0.230 NA
HETATM   14  C18 UNL     1      19.676   2.260  52.248  1.00  0.00     0.260 C 
HETATM   15  O2  UNL     1      19.746   3.647  52.252  1.00  0.00    -0.304 OA
ENDROOT
BRANCH   9  16
HETATM   16  C10 UNL     1      24.791   0.989  52.367  1.00  0.00     0.031 A 
HETATM   17  C11 UNL     1      24.534   0.199  53.466  1.00  0.00     0.029 A 
HETATM   18  C12 UNL     1      25.392  -0.711  54.016  1.00  0.00     0.002 A 
HETATM   19  C13 UNL     1      26.638  -0.886  53.453  1.00  0.00     0.000 A 
HETATM   20  C14 UNL     1      26.948  -0.113  52.342  1.00  0.00     0.002 A 
HETATM   21  C15 UNL     1      26.043   0.793  51.826  1.00  0.00     0.029 A 
ENDBRANCH   9  16
BRANCH   1  22
HETATM   22  O1  UNL     1      22.422   6.862  48.566  1.00  0.00    -0.255 OA
BRANCH  22  23
HETATM   23  C1  UNL     1      23.231   6.404  47.526  1.00  0.00     0.530 C 
HETATM   24  F1  UNL     1      22.947   7.125  46.359  1.00  0.00    -0.144 F 
HETATM   25  F2  UNL     1      22.962   5.083  47.223  1.00  0.00    -0.144 F 
HETATM   26  F3  UNL     1      24.560   6.553  47.867  1.00  0.00    -0.144 F 
ENDBRANCH  22  23
ENDBRANCH   1  22
TORSDOF 3
ENDMDL
