MODEL 1
REMARK VINA RESULT:      -7.8      0.000      0.000
REMARK  5 active torsions:
REMARK  status: ('A' for Active; 'I' for Inactive)
REMARK    1  A    between atoms: C2_2  and  C3_3 
REMARK    2  A    between atoms: C4_5  and  C5_6 
REMARK    3  A    between atoms: C5_6  and  C6_7 
REMARK    4  A    between atoms: C6_7  and  C7_8 
REMARK    5  A    between atoms: C8_10  and  O1_11 
ROOT
HETATM    1  C6  UNL     1      26.089   0.274  52.818  1.00  0.00     0.084 C 
HETATM    2  C10 UNL     1      25.718   1.238  53.878  1.00  0.00     0.039 C 
HETATM    3  C11 UNL     1      25.290   2.595  53.451  1.00  0.00     0.019 C 
HETATM    4  C12 UNL     1      24.683   2.591  52.070  1.00  0.00     0.075 A 
HETATM    5  C13 UNL     1      24.403   3.928  51.564  1.00  0.00    -0.002 A 
HETATM    6 BR1  UNL     1      23.110   5.200  52.149  1.00  0.00    -0.055 Br
HETATM    7  C14 UNL     1      25.230   4.169  50.558  1.00  0.00     0.017 A 
HETATM    8  C15 UNL     1      26.123   3.032  50.309  1.00  0.00     0.026 A 
HETATM    9  C16 UNL     1      25.808   2.120  51.181  1.00  0.00     0.015 A 
HETATM   10  N2  UNL     1      26.264   0.815  51.498  1.00  0.00    -0.377 N 
HETATM   11  H16 UNL     1      26.734   0.232  50.773  1.00  0.00     0.160 HD
ENDROOT
BRANCH   1  12
HETATM   12  C5  UNL     1      25.036  -0.821  52.764  1.00  0.00     0.067 C 
BRANCH  12  13
HETATM   13  C4  UNL     1      24.084  -0.695  53.902  1.00  0.00    -0.000 C 
HETATM   14  C3  UNL     1      22.806  -0.520  53.674  1.00  0.00     0.029 C 
HETATM   15 CL1  UNL     1      22.199  -0.430  52.056  1.00  0.00    -0.085 Cl
BRANCH  14  16
HETATM   16  C2  UNL     1      21.913  -0.402  54.817  1.00  0.00     0.013 C 
HETATM   17  C1  UNL     1      20.809   0.320  54.712  1.00  0.00     0.013 C 
ENDBRANCH  14  16
ENDBRANCH  12  13
ENDBRANCH   1  12
BRANCH   1  18
HETATM   18  C7  UNL     1      27.365  -0.459  53.124  1.00  0.00     0.106 A 
HETATM   19  N1  UNL     1      27.676  -1.706  53.155  1.00  0.00    -0.219 NA
HETATM   20  C8  UNL     1      28.941  -2.002  53.475  1.00  0.00     0.169 A 
HETATM   21  C9  UNL     1      29.897  -0.984  53.766  1.00  0.00     0.109 A 
HETATM   22  S1  UNL     1      28.806   0.504  53.540  1.00  0.00    -0.080 SA
BRANCH  20  23
HETATM   23  O1  UNL     1      29.122  -3.404  53.466  1.00  0.00    -0.344 OA
HETATM   24  H7  UNL     1      28.490  -3.993  52.912  1.00  0.00     0.219 HD
ENDBRANCH  20  23
ENDBRANCH   1  18
TORSDOF 5
ENDMDL
MODEL 2
REMARK VINA RESULT:      -7.7      1.967      2.175
REMARK  5 active torsions:
REMARK  status: ('A' for Active; 'I' for Inactive)
REMARK    1  A    between atoms: C2_2  and  C3_3 
REMARK    2  A    between atoms: C4_5  and  C5_6 
REMARK    3  A    between atoms: C5_6  and  C6_7 
REMARK    4  A    between atoms: C6_7  and  C7_8 
REMARK    5  A    between atoms: C8_10  and  O1_11 
ROOT
HETATM    1  C6  UNL     1      25.705   1.712  52.589  1.00  0.00     0.084 C 
HETATM    2  C10 UNL     1      24.859   2.570  53.447  1.00  0.00     0.039 C 
HETATM    3  C11 UNL     1      24.167   3.716  52.802  1.00  0.00     0.019 C 
HETATM    4  C12 UNL     1      23.896   3.465  51.339  1.00  0.00     0.075 A 
HETATM    5  C13 UNL     1      23.365   4.631  50.646  1.00  0.00    -0.002 A 
HETATM    6 BR1  UNL     1      21.671   5.485  50.833  1.00  0.00    -0.055 Br
HETATM    7  C14 UNL     1      24.285   5.060  49.797  1.00  0.00     0.017 A 
HETATM    8  C15 UNL     1      25.495   4.231  49.847  1.00  0.00     0.026 A 
HETATM    9  C16 UNL     1      25.272   3.310  50.738  1.00  0.00     0.015 A 
HETATM   10  N2  UNL     1      25.999   2.217  51.276  1.00  0.00    -0.377 N 
HETATM   11  H16 UNL     1      26.759   1.768  50.721  1.00  0.00     0.160 HD
ENDROOT
BRANCH   1  12
HETATM   12  C5  UNL     1      25.041   0.351  52.454  1.00  0.00     0.067 C 
BRANCH  12  13
HETATM   13  C4  UNL     1      24.018   0.154  53.518  1.00  0.00    -0.000 C 
HETATM   14  C3  UNL     1      22.744   0.153  53.212  1.00  0.00     0.029 C 
HETATM   15 CL1  UNL     1      22.225   0.378  51.578  1.00  0.00    -0.085 Cl
BRANCH  14  16
HETATM   16  C2  UNL     1      21.780  -0.043  54.285  1.00  0.00     0.013 C 
HETATM   17  C1  UNL     1      21.389  -1.269  54.595  1.00  0.00     0.013 C 
ENDBRANCH  14  16
ENDBRANCH  12  13
ENDBRANCH   1  12
BRANCH   1  18
HETATM   18  C7  UNL     1      27.040   1.410  53.210  1.00  0.00     0.106 A 
HETATM   19  N1  UNL     1      27.903   2.132  53.834  1.00  0.00    -0.219 NA
HETATM   20  C8  UNL     1      29.009   1.512  54.261  1.00  0.00     0.169 A 
HETATM   21  C9  UNL     1      29.219   0.119  54.036  1.00  0.00     0.109 A 
HETATM   22  S1  UNL     1      27.645  -0.264  53.124  1.00  0.00    -0.080 SA
BRANCH  20  23
HETATM   23  O1  UNL     1      29.851   2.435  54.921  1.00  0.00    -0.344 OA
HETATM   24  H7  UNL     1      30.450   2.113  55.690  1.00  0.00     0.219 HD
ENDBRANCH  20  23
ENDBRANCH   1  18
TORSDOF 5
ENDMDL
MODEL 3
REMARK VINA RESULT:      -7.4      4.008      5.659
REMARK  5 active torsions:
REMARK  status: ('A' for Active; 'I' for Inactive)
REMARK    1  A    between atoms: C2_2  and  C3_3 
REMARK    2  A    between atoms: C4_5  and  C5_6 
REMARK    3  A    between atoms: C5_6  and  C6_7 
REMARK    4  A    between atoms: C6_7  and  C7_8 
REMARK    5  A    between atoms: C8_10  and  O1_11 
ROOT
HETATM    1  C6  UNL     1      25.111   2.273  52.445  1.00  0.00     0.084 C 
HETATM    2  C10 UNL     1      25.472   1.152  51.549  1.00  0.00     0.039 C 
HETATM    3  C11 UNL     1      26.776   0.480  51.784  1.00  0.00     0.019 C 
HETATM    4  C12 UNL     1      27.215   0.578  53.224  1.00  0.00     0.075 A 
HETATM    5  C13 UNL     1      28.561   0.069  53.449  1.00  0.00    -0.002 A 
HETATM    6 BR1  UNL     1      29.212  -1.720  53.353  1.00  0.00    -0.055 Br
HETATM    7  C14 UNL     1      29.342   1.092  53.757  1.00  0.00     0.017 A 
HETATM    8  C15 UNL     1      28.598   2.357  53.763  1.00  0.00     0.026 A 
HETATM    9  C16 UNL     1      27.369   2.061  53.455  1.00  0.00     0.015 A 
HETATM   10  N2  UNL     1      26.162   2.785  53.281  1.00  0.00    -0.377 N 
HETATM   11  H16 UNL     1      26.025   3.701  53.760  1.00  0.00     0.160 HD
ENDROOT
BRANCH   1  12
HETATM   12  C5  UNL     1      23.951   1.838  53.327  1.00  0.00     0.067 C 
BRANCH  12  13
HETATM   13  C4  UNL     1      22.807   1.364  52.499  1.00  0.00    -0.000 C 
HETATM   14  C3  UNL     1      22.158   0.277  52.838  1.00  0.00     0.029 C 
HETATM   15 CL1  UNL     1      22.611  -0.625  54.242  1.00  0.00    -0.085 Cl
BRANCH  14  16
HETATM   16  C2  UNL     1      21.047  -0.149  51.999  1.00  0.00     0.013 C 
HETATM   17  C1  UNL     1      20.821   0.472  50.852  1.00  0.00     0.013 C 
ENDBRANCH  14  16
ENDBRANCH  12  13
ENDBRANCH   1  12
BRANCH   1  18
HETATM   18  C7  UNL     1      24.578   3.462  51.697  1.00  0.00     0.106 A 
HETATM   19  N1  UNL     1      23.883   4.485  52.053  1.00  0.00    -0.219 NA
HETATM   20  C8  UNL     1      23.583   5.370  51.095  1.00  0.00     0.169 A 
HETATM   21  C9  UNL     1      24.012   5.187  49.748  1.00  0.00     0.109 A 
HETATM   22  S1  UNL     1      24.924   3.581  49.953  1.00  0.00    -0.080 SA
BRANCH  20  23
HETATM   23  O1  UNL     1      22.820   6.427  51.642  1.00  0.00    -0.344 OA
HETATM   24  H7  UNL     1      22.252   7.015  51.022  1.00  0.00     0.219 HD
ENDBRANCH  20  23
ENDBRANCH   1  18
TORSDOF 5
ENDMDL
MODEL 4
REMARK VINA RESULT:      -7.4      4.165      6.181
REMARK  5 active torsions:
REMARK  status: ('A' for Active; 'I' for Inactive)
REMARK    1  A    between atoms: C2_2  and  C3_3 
REMARK    2  A    between atoms: C4_5  and  C5_6 
REMARK    3  A    between atoms: C5_6  and  C6_7 
REMARK    4  A    between atoms: C6_7  and  C7_8 
REMARK    5  A    between atoms: C8_10  and  O1_11 
ROOT
HETATM    1  C6  UNL     1      24.682   3.126  51.295  1.00  0.00     0.084 C 
HETATM    2  C10 UNL     1      24.385   2.952  52.734  1.00  0.00     0.039 C 
HETATM    3  C11 UNL     1      23.324   1.980  53.103  1.00  0.00     0.019 C 
HETATM    4  C12 UNL     1      23.179   0.882  52.078  1.00  0.00     0.075 A 
HETATM    5  C13 UNL     1      22.042   0.008  52.332  1.00  0.00    -0.002 A 
HETATM    6 BR1  UNL     1      21.769  -1.247  53.741  1.00  0.00    -0.055 Br
HETATM    7  C14 UNL     1      21.146   0.210  51.379  1.00  0.00     0.017 A 
HETATM    8  C15 UNL     1      21.597   1.223  50.419  1.00  0.00     0.026 A 
HETATM    9  C16 UNL     1      22.771   1.613  50.821  1.00  0.00     0.015 A 
HETATM   10  N2  UNL     1      23.742   2.547  50.376  1.00  0.00    -0.377 N 
HETATM   11  H16 UNL     1      23.781   2.825  49.372  1.00  0.00     0.160 HD
ENDROOT
BRANCH   1  12
HETATM   12  C5  UNL     1      26.063   2.555  51.010  1.00  0.00     0.067 C 
BRANCH  12  13
HETATM   13  C4  UNL     1      26.813   2.329  52.276  1.00  0.00    -0.000 C 
HETATM   14  C3  UNL     1      27.132   1.113  52.643  1.00  0.00     0.029 C 
HETATM   15 CL1  UNL     1      26.692  -0.250  51.672  1.00  0.00    -0.085 Cl
BRANCH  14  16
HETATM   16  C2  UNL     1      27.866   0.941  53.888  1.00  0.00     0.013 C 
HETATM   17  C1  UNL     1      27.314   0.265  54.883  1.00  0.00     0.013 C 
ENDBRANCH  14  16
ENDBRANCH  12  13
ENDBRANCH   1  12
BRANCH   1  18
HETATM   18  C7  UNL     1      24.794   4.571  50.898  1.00  0.00     0.106 A 
HETATM   19  N1  UNL     1      24.296   5.655  51.378  1.00  0.00    -0.219 NA
HETATM   20  C8  UNL     1      24.619   6.793  50.752  1.00  0.00     0.169 A 
HETATM   21  C9  UNL     1      25.473   6.802  49.610  1.00  0.00     0.109 A 
HETATM   22  S1  UNL     1      25.802   4.977  49.485  1.00  0.00    -0.080 SA
BRANCH  20  23
HETATM   23  O1  UNL     1      23.996   7.887  51.396  1.00  0.00    -0.344 OA
HETATM   24  H7  UNL     1      23.116   7.742  51.903  1.00  0.00     0.219 HD
ENDBRANCH  20  23
ENDBRANCH   1  18
TORSDOF 5
ENDMDL
MODEL 5
REMARK VINA RESULT:      -7.1      3.086      4.906
REMARK  5 active torsions:
REMARK  status: ('A' for Active; 'I' for Inactive)
REMARK    1  A    between atoms: C2_2  and  C3_3 
REMARK    2  A    between atoms: C4_5  and  C5_6 
REMARK    3  A    between atoms: C5_6  and  C6_7 
REMARK    4  A    between atoms: C6_7  and  C7_8 
REMARK    5  A    between atoms: C8_10  and  O1_11 
ROOT
HETATM    1  C6  UNL     1      23.647   1.200  52.307  1.00  0.00     0.084 C 
HETATM    2  C10 UNL     1      22.931   1.349  51.020  1.00  0.00     0.039 C 
HETATM    3  C11 UNL     1      22.799   2.720  50.463  1.00  0.00     0.019 C 
HETATM    4  C12 UNL     1      23.923   3.624  50.908  1.00  0.00     0.075 A 
HETATM    5  C13 UNL     1      23.733   5.012  50.509  1.00  0.00    -0.002 A 
HETATM    6 BR1  UNL     1      23.772   5.789  48.769  1.00  0.00    -0.055 Br
HETATM    7  C14 UNL     1      23.514   5.728  51.600  1.00  0.00     0.017 A 
HETATM    8  C15 UNL     1      23.535   4.894  52.807  1.00  0.00     0.026 A 
HETATM    9  C16 UNL     1      23.771   3.678  52.409  1.00  0.00     0.015 A 
HETATM   10  N2  UNL     1      23.911   2.412  53.033  1.00  0.00    -0.377 N 
HETATM   11  H16 UNL     1      24.207   2.348  54.030  1.00  0.00     0.160 HD
ENDROOT
BRANCH   1  12
HETATM   12  C5  UNL     1      24.964   0.484  52.052  1.00  0.00     0.067 C 
BRANCH  12  13
HETATM   13  C4  UNL     1      26.014   0.959  52.994  1.00  0.00    -0.000 C 
HETATM   14  C3  UNL     1      26.987   0.158  53.352  1.00  0.00     0.029 C 
HETATM   15 CL1  UNL     1      27.074  -1.458  52.742  1.00  0.00    -0.085 Cl
BRANCH  14  16
HETATM   16  C2  UNL     1      27.992   0.666  54.275  1.00  0.00     0.013 C 
HETATM   17  C1  UNL     1      29.067  -0.061  54.535  1.00  0.00     0.013 C 
ENDBRANCH  14  16
ENDBRANCH  12  13
ENDBRANCH   1  12
BRANCH   1  18
HETATM   18  C7  UNL     1      22.922   0.304  53.271  1.00  0.00     0.106 A 
HETATM   19  N1  UNL     1      23.321  -0.489  54.202  1.00  0.00    -0.219 NA
HETATM   20  C8  UNL     1      22.371  -1.145  54.880  1.00  0.00     0.169 A 
HETATM   21  C9  UNL     1      20.987  -0.972  54.583  1.00  0.00     0.109 A 
HETATM   22  S1  UNL     1      21.142   0.257  53.197  1.00  0.00    -0.080 SA
BRANCH  20  23
HETATM   23  O1  UNL     1      22.966  -1.971  55.861  1.00  0.00    -0.344 OA
HETATM   24  H7  UNL     1      22.960  -2.990  55.737  1.00  0.00     0.219 HD
ENDBRANCH  20  23
ENDBRANCH   1  18
TORSDOF 5
ENDMDL
MODEL 6
REMARK VINA RESULT:      -6.9      4.098      6.627
REMARK  5 active torsions:
REMARK  status: ('A' for Active; 'I' for Inactive)
REMARK    1  A    between atoms: C2_2  and  C3_3 
REMARK    2  A    between atoms: C4_5  and  C5_6 
REMARK    3  A    between atoms: C5_6  and  C6_7 
REMARK    4  A    between atoms: C6_7  and  C7_8 
REMARK    5  A    between atoms: C8_10  and  O1_11 
ROOT
HETATM    1  C6  UNL     1      23.746   1.975  51.995  1.00  0.00     0.084 C 
HETATM    2  C10 UNL     1      24.373   2.992  52.867  1.00  0.00     0.039 C 
HETATM    3  C11 UNL     1      25.612   2.605  53.591  1.00  0.00     0.019 C 
HETATM    4  C12 UNL     1      26.384   1.534  52.862  1.00  0.00     0.075 A 
HETATM    5  C13 UNL     1      27.515   1.023  53.624  1.00  0.00    -0.002 A 
HETATM    6 BR1  UNL     1      29.141   1.891  54.110  1.00  0.00    -0.055 Br
HETATM    7  C14 UNL     1      27.250  -0.228  53.967  1.00  0.00     0.017 A 
HETATM    8  C15 UNL     1      25.937  -0.657  53.471  1.00  0.00     0.026 A 
HETATM    9  C16 UNL     1      25.436   0.360  52.833  1.00  0.00     0.015 A 
HETATM   10  N2  UNL     1      24.231   0.629  52.134  1.00  0.00    -0.377 N 
HETATM   11  H16 UNL     1      23.682  -0.151  51.714  1.00  0.00     0.160 HD
ENDROOT
BRANCH   1  12
HETATM   12  C5  UNL     1      23.909   2.407  50.546  1.00  0.00     0.067 C 
BRANCH  12  13
HETATM   13  C4  UNL     1      24.221   3.861  50.461  1.00  0.00    -0.000 C 
HETATM   14  C3  UNL     1      25.375   4.257  49.982  1.00  0.00     0.029 C 
HETATM   15 CL1  UNL     1      26.552   3.111  49.442  1.00  0.00    -0.085 Cl
BRANCH  14  16
HETATM   16  C2  UNL     1      25.636   5.688  49.918  1.00  0.00     0.013 C 
HETATM   17  C1  UNL     1      26.368   6.173  48.928  1.00  0.00     0.013 C 
ENDBRANCH  14  16
ENDBRANCH  12  13
ENDBRANCH   1  12
BRANCH   1  18
HETATM   18  C7  UNL     1      22.258   1.886  52.187  1.00  0.00     0.106 A 
HETATM   19  N1  UNL     1      21.315   2.761  52.159  1.00  0.00    -0.219 NA
HETATM   20  C8  UNL     1      20.073   2.312  52.377  1.00  0.00     0.169 A 
HETATM   21  C9  UNL     1      19.810   0.933  52.629  1.00  0.00     0.109 A 
HETATM   22  S1  UNL     1      21.549   0.286  52.525  1.00  0.00    -0.080 SA
BRANCH  20  23
HETATM   23  O1  UNL     1      19.157   3.388  52.314  1.00  0.00    -0.344 OA
HETATM   24  H7  UNL     1      18.584   3.516  51.473  1.00  0.00     0.219 HD
ENDBRANCH  20  23
ENDBRANCH   1  18
TORSDOF 5
ENDMDL
MODEL 7
REMARK VINA RESULT:      -6.7      2.789      5.022
REMARK  5 active torsions:
REMARK  status: ('A' for Active; 'I' for Inactive)
REMARK    1  A    between atoms: C2_2  and  C3_3 
REMARK    2  A    between atoms: C4_5  and  C5_6 
REMARK    3  A    between atoms: C5_6  and  C6_7 
REMARK    4  A    between atoms: C6_7  and  C7_8 
REMARK    5  A    between atoms: C8_10  and  O1_11 
ROOT
HETATM    1  C6  UNL     1      24.170   1.608  52.730  1.00  0.00     0.084 C 
HETATM    2  C10 UNL     1      23.619   1.329  51.386  1.00  0.00     0.039 C 
HETATM    3  C11 UNL     1      22.287   0.675  51.314  1.00  0.00     0.019 C 
HETATM    4  C12 UNL     1      21.437   0.982  52.522  1.00  0.00     0.075 A 
HETATM    5  C13 UNL     1      20.192   0.227  52.554  1.00  0.00    -0.002 A 
HETATM    6 BR1  UNL     1      18.664   0.361  51.422  1.00  0.00    -0.055 Br
HETATM    7  C14 UNL     1      20.259  -0.637  53.554  1.00  0.00     0.017 A 
HETATM    8  C15 UNL     1      21.537  -0.539  54.268  1.00  0.00     0.026 A 
HETATM    9  C16 UNL     1      22.219   0.396  53.673  1.00  0.00     0.015 A 
HETATM   10  N2  UNL     1      23.499   0.983  53.837  1.00  0.00    -0.377 N 
HETATM   11  H16 UNL     1      23.970   0.965  54.767  1.00  0.00     0.160 HD
ENDROOT
BRANCH   1  12
HETATM   12  C5  UNL     1      24.181   3.113  52.950  1.00  0.00     0.067 C 
BRANCH  12  13
HETATM   13  C4  UNL     1      24.225   3.836  51.649  1.00  0.00    -0.000 C 
HETATM   14  C3  UNL     1      23.192   4.536  51.252  1.00  0.00     0.029 C 
HETATM   15 CL1  UNL     1      21.762   4.636  52.221  1.00  0.00    -0.085 Cl
BRANCH  14  16
HETATM   16  C2  UNL     1      23.280   5.227  49.973  1.00  0.00     0.013 C 
HETATM   17  C1  UNL     1      23.387   4.523  48.857  1.00  0.00     0.013 C 
ENDBRANCH  14  16
ENDBRANCH  12  13
ENDBRANCH   1  12
BRANCH   1  18
HETATM   18  C7  UNL     1      25.613   1.209  52.858  1.00  0.00     0.106 A 
HETATM   19  N1  UNL     1      26.712   1.877  52.878  1.00  0.00    -0.219 NA
HETATM   20  C8  UNL     1      27.842   1.173  53.011  1.00  0.00     0.169 A 
HETATM   21  C9  UNL     1      27.828  -0.249  53.124  1.00  0.00     0.109 A 
HETATM   22  S1  UNL     1      25.992  -0.525  53.024  1.00  0.00    -0.080 SA
BRANCH  20  23
HETATM   23  O1  UNL     1      28.953   2.047  53.015  1.00  0.00    -0.344 OA
HETATM   24  H7  UNL     1      29.317   2.406  52.125  1.00  0.00     0.219 HD
ENDBRANCH  20  23
ENDBRANCH   1  18
TORSDOF 5
ENDMDL
MODEL 8
REMARK VINA RESULT:      -6.7      4.329      6.157
REMARK  5 active torsions:
REMARK  status: ('A' for Active; 'I' for Inactive)
REMARK    1  A    between atoms: C2_2  and  C3_3 
REMARK    2  A    between atoms: C4_5  and  C5_6 
REMARK    3  A    between atoms: C5_6  and  C6_7 
REMARK    4  A    between atoms: C6_7  and  C7_8 
REMARK    5  A    between atoms: C8_10  and  O1_11 
ROOT
HETATM    1  C6  UNL     1      24.978   3.483  50.676  1.00  0.00     0.084 C 
HETATM    2  C10 UNL     1      26.202   2.800  50.204  1.00  0.00     0.039 C 
HETATM    3  C11 UNL     1      26.809   1.782  51.100  1.00  0.00     0.019 C 
HETATM    4  C12 UNL     1      25.786   1.141  52.005  1.00  0.00     0.075 A 
HETATM    5  C13 UNL     1      26.375   0.258  53.002  1.00  0.00    -0.002 A 
HETATM    6 BR1  UNL     1      27.250  -1.421  52.769  1.00  0.00    -0.055 Br
HETATM    7  C14 UNL     1      26.214   0.814  54.192  1.00  0.00     0.017 A 
HETATM    8  C15 UNL     1      25.513   2.099  54.097  1.00  0.00     0.026 A 
HETATM    9  C16 UNL     1      25.266   2.289  52.834  1.00  0.00     0.015 A 
HETATM   10  N2  UNL     1      24.641   3.301  52.061  1.00  0.00    -0.377 N 
HETATM   11  H16 UNL     1      23.928   3.928  52.494  1.00  0.00     0.160 HD
ENDROOT
BRANCH   1  12
HETATM   12  C5  UNL     1      23.805   3.028  49.822  1.00  0.00     0.067 C 
BRANCH  12  13
HETATM   13  C4  UNL     1      22.923   2.103  50.586  1.00  0.00    -0.000 C 
HETATM   14  C3  UNL     1      22.056   1.351  49.955  1.00  0.00     0.029 C 
HETATM   15 CL1  UNL     1      21.916   1.415  48.232  1.00  0.00    -0.085 Cl
BRANCH  14  16
HETATM   16  C2  UNL     1      21.215   0.461  50.743  1.00  0.00     0.013 C 
HETATM   17  C1  UNL     1      20.767   0.862  51.922  1.00  0.00     0.013 C 
ENDBRANCH  14  16
ENDBRANCH  12  13
ENDBRANCH   1  12
BRANCH   1  18
HETATM   18  C7  UNL     1      25.029   4.971  50.467  1.00  0.00     0.106 A 
HETATM   19  N1  UNL     1      24.464   5.961  51.062  1.00  0.00    -0.219 NA
HETATM   20  C8  UNL     1      24.748   7.183  50.596  1.00  0.00     0.169 A 
HETATM   21  C9  UNL     1      25.633   7.376  49.494  1.00  0.00     0.109 A 
HETATM   22  S1  UNL     1      26.055   5.599  49.152  1.00  0.00    -0.080 SA
BRANCH  20  23
HETATM   23  O1  UNL     1      24.053   8.157  51.350  1.00  0.00    -0.344 OA
HETATM   24  H7  UNL     1      24.373   8.386  52.298  1.00  0.00     0.219 HD
ENDBRANCH  20  23
ENDBRANCH   1  18
TORSDOF 5
ENDMDL
MODEL 9
REMARK VINA RESULT:      -6.7      1.782      2.287
REMARK  5 active torsions:
REMARK  status: ('A' for Active; 'I' for Inactive)
REMARK    1  A    between atoms: C2_2  and  C3_3 
REMARK    2  A    between atoms: C4_5  and  C5_6 
REMARK    3  A    between atoms: C5_6  and  C6_7 
REMARK    4  A    between atoms: C6_7  and  C7_8 
REMARK    5  A    between atoms: C8_10  and  O1_11 
ROOT
HETATM    1  C6  UNL     1      24.443   1.909  52.085  1.00  0.00     0.084 C 
HETATM    2  C10 UNL     1      24.006   2.998  52.986  1.00  0.00     0.039 C 
HETATM    3  C11 UNL     1      23.933   4.369  52.419  1.00  0.00     0.019 C 
HETATM    4  C12 UNL     1      23.677   4.357  50.932  1.00  0.00     0.075 A 
HETATM    5  C13 UNL     1      23.761   5.677  50.324  1.00  0.00    -0.002 A 
HETATM    6 BR1  UNL     1      22.608   7.181  50.529  1.00  0.00    -0.055 Br
HETATM    7  C14 UNL     1      24.830   5.705  49.544  1.00  0.00     0.017 A 
HETATM    8  C15 UNL     1      25.545   4.424  49.563  1.00  0.00     0.026 A 
HETATM    9  C16 UNL     1      24.881   3.645  50.364  1.00  0.00     0.015 A 
HETATM   10  N2  UNL     1      25.015   2.312  50.829  1.00  0.00    -0.377 N 
HETATM   11  H16 UNL     1      25.535   1.607  50.263  1.00  0.00     0.160 HD
ENDROOT
BRANCH   1  12
HETATM   12  C5  UNL     1      23.258   0.995  51.813  1.00  0.00     0.067 C 
BRANCH  12  13
HETATM   13  C4  UNL     1      22.937   0.176  53.015  1.00  0.00    -0.000 C 
HETATM   14  C3  UNL     1      21.781   0.319  53.616  1.00  0.00     0.029 C 
HETATM   15 CL1  UNL     1      20.612   1.452  53.033  1.00  0.00    -0.085 Cl
BRANCH  14  16
HETATM   16  C2  UNL     1      21.511  -0.503  54.787  1.00  0.00     0.013 C 
HETATM   17  C1  UNL     1      22.412  -1.385  55.188  1.00  0.00     0.013 C 
ENDBRANCH  14  16
ENDBRANCH  12  13
ENDBRANCH   1  12
BRANCH   1  18
HETATM   18  C7  UNL     1      25.464   1.007  52.720  1.00  0.00     0.106 A 
HETATM   19  N1  UNL     1      25.820  -0.209  52.501  1.00  0.00    -0.219 NA
HETATM   20  C8  UNL     1      26.790  -0.701  53.281  1.00  0.00     0.169 A 
HETATM   21  C9  UNL     1      27.397   0.085  54.304  1.00  0.00     0.109 A 
HETATM   22  S1  UNL     1      26.439   1.659  54.063  1.00  0.00    -0.080 SA
BRANCH  20  23
HETATM   23  O1  UNL     1      27.064  -2.039  52.917  1.00  0.00    -0.344 OA
HETATM   24  H7  UNL     1      27.511  -2.667  53.596  1.00  0.00     0.219 HD
ENDBRANCH  20  23
ENDBRANCH   1  18
TORSDOF 5
ENDMDL
