MODEL 1
REMARK VINA RESULT:      -9.1      0.000      0.000
REMARK  7 active torsions:
REMARK  status: ('A' for Active; 'I' for Inactive)
REMARK    1  A    between atoms: N1_1  and  C1_2 
REMARK    2  A    between atoms: C4_5  and  N2_6 
REMARK    3  A    between atoms: N2_6  and  C5_7 
REMARK    4  A    between atoms: N4_20  and  C15_21 
REMARK    5  A    between atoms: C15_21  and  C16_22 
REMARK    6  A    between atoms: C16_22  and  C17_23 
REMARK    7  A    between atoms: C17_23  and  N5_24 
ROOT
HETATM    1  C5  UNL     1      23.279  -0.647  53.949  1.00  0.00     0.030 A 
HETATM    2  C6  UNL     1      22.795  -0.068  52.869  1.00  0.00     0.043 A 
HETATM    3  C7  UNL     1      21.352  -0.131  52.735  1.00  0.00     0.024 A 
HETATM    4  C8  UNL     1      20.480   0.297  51.843  1.00  0.00     0.083 A 
HETATM    5  C9  UNL     1      19.146  -0.081  52.268  1.00  0.00     0.099 A 
HETATM    6  C10 UNL     1      19.195  -0.750  53.434  1.00  0.00     0.071 A 
HETATM    7  C11 UNL     1      20.608  -0.811  53.783  1.00  0.00     0.066 A 
HETATM    8  N3  UNL     1      21.144  -1.342  54.796  1.00  0.00    -0.283 NA
HETATM    9  C12 UNL     1      22.549  -1.356  55.054  1.00  0.00     0.206 A 
HETATM   10  O1  UNL     1      18.035   0.258  51.488  1.00  0.00    -0.340 OA
HETATM   11  C13 UNL     1      18.215   0.506  50.093  1.00  0.00     0.279 C 
HETATM   12  C14 UNL     1      19.496   1.270  49.884  1.00  0.00     0.248 C 
HETATM   13  O2  UNL     1      19.491   2.192  49.019  1.00  0.00    -0.271 OA
HETATM   14  N4  UNL     1      20.702   0.993  50.627  1.00  0.00    -0.313 N 
ENDROOT
BRANCH   1  15
HETATM   15  N2  UNL     1      24.653  -0.650  54.180  1.00  0.00    -0.358 N 
HETATM   16  H5  UNL     1      24.689  -1.296  55.031  1.00  0.00     0.166 HD
BRANCH  15  17
HETATM   17  C4  UNL     1      26.050  -0.477  54.163  1.00  0.00     0.032 A 
HETATM   18  C3  UNL     1      26.854   0.291  55.000  1.00  0.00     0.031 A 
HETATM   19  C2  UNL     1      28.203   0.269  54.753  1.00  0.00     0.031 A 
HETATM   20  C1  UNL     1      28.689  -0.491  53.715  1.00  0.00     0.025 A 
HETATM   21  C23 UNL     1      27.944  -1.270  52.855  1.00  0.00     0.031 A 
HETATM   22  C22 UNL     1      26.581  -1.240  53.117  1.00  0.00     0.031 A 
BRANCH  20  23
HETATM   23  N1  UNL     1      30.094  -0.483  53.488  1.00  0.00    -0.399 N 
HETATM   24  H1  UNL     1      30.691  -1.071  54.141  1.00  0.00     0.156 HD
HETATM   25  H2  UNL     1      30.672   0.037  52.755  1.00  0.00     0.156 HD
ENDBRANCH  20  23
ENDBRANCH  15  17
ENDBRANCH   1  15
BRANCH  14  26
HETATM   26  C15 UNL     1      21.992   1.414  50.114  1.00  0.00     0.134 C 
BRANCH  26  27
HETATM   27  C16 UNL     1      22.243   2.884  50.256  1.00  0.00     0.040 C 
BRANCH  27  28
HETATM   28  C17 UNL     1      23.022   3.179  51.538  1.00  0.00     0.118 C 
BRANCH  28  29
HETATM   29  N5  UNL     1      24.413   3.204  51.312  1.00  0.00    -0.408 N 
HETATM   30  C18 UNL     1      24.890   3.796  50.128  1.00  0.00     0.143 C 
HETATM   31  C19 UNL     1      26.222   3.302  49.640  1.00  0.00     0.187 C 
HETATM   32  O3  UNL     1      27.102   3.200  50.700  1.00  0.00    -0.388 OA
HETATM   33  C20 UNL     1      26.631   2.186  51.522  1.00  0.00     0.187 C 
HETATM   34  C21 UNL     1      25.289   2.497  52.131  1.00  0.00     0.143 C 
ENDBRANCH  28  29
ENDBRANCH  27  28
ENDBRANCH  26  27
ENDBRANCH  14  26
TORSDOF 7
ENDMDL
MODEL 2
REMARK VINA RESULT:      -8.3      2.739      6.158
REMARK  7 active torsions:
REMARK  status: ('A' for Active; 'I' for Inactive)
REMARK    1  A    between atoms: N1_1  and  C1_2 
REMARK    2  A    between atoms: C4_5  and  N2_6 
REMARK    3  A    between atoms: N2_6  and  C5_7 
REMARK    4  A    between atoms: N4_20  and  C15_21 
REMARK    5  A    between atoms: C15_21  and  C16_22 
REMARK    6  A    between atoms: C16_22  and  C17_23 
REMARK    7  A    between atoms: C17_23  and  N5_24 
ROOT
HETATM    1  C5  UNL     1      24.096   3.436  49.614  1.00  0.00     0.030 A 
HETATM    2  C6  UNL     1      23.976   2.634  50.652  1.00  0.00     0.043 A 
HETATM    3  C7  UNL     1      22.700   1.950  50.753  1.00  0.00     0.024 A 
HETATM    4  C8  UNL     1      22.169   1.091  51.601  1.00  0.00     0.083 A 
HETATM    5  C9  UNL     1      20.826   0.764  51.162  1.00  0.00     0.099 A 
HETATM    6  C10 UNL     1      20.525   1.429  50.031  1.00  0.00     0.071 A 
HETATM    7  C11 UNL     1      21.711   2.215  49.721  1.00  0.00     0.066 A 
HETATM    8  N3  UNL     1      21.900   2.999  48.749  1.00  0.00    -0.283 NA
HETATM    9  C12 UNL     1      23.103   3.736  48.526  1.00  0.00     0.206 A 
HETATM   10  O1  UNL     1      20.043  -0.133  51.897  1.00  0.00    -0.340 OA
HETATM   11  C13 UNL     1      20.328  -0.331  53.283  1.00  0.00     0.279 C 
HETATM   12  C14 UNL     1      21.820  -0.351  53.485  1.00  0.00     0.248 C 
HETATM   13  O2  UNL     1      22.286  -1.194  54.304  1.00  0.00    -0.271 OA
HETATM   14  N4  UNL     1      22.717   0.539  52.787  1.00  0.00    -0.313 N 
ENDROOT
BRANCH   1  15
HETATM   15  N2  UNL     1      25.278   4.147  49.418  1.00  0.00    -0.358 N 
HETATM   16  H5  UNL     1      25.898   3.667  50.145  1.00  0.00     0.166 HD
BRANCH  15  17
HETATM   17  C4  UNL     1      26.312   5.006  49.000  1.00  0.00     0.032 A 
HETATM   18  C3  UNL     1      27.634   4.708  48.686  1.00  0.00     0.031 A 
HETATM   19  C2  UNL     1      28.429   5.756  48.298  1.00  0.00     0.031 A 
HETATM   20  C1  UNL     1      27.897   7.023  48.237  1.00  0.00     0.025 A 
HETATM   21  C23 UNL     1      26.599   7.378  48.534  1.00  0.00     0.031 A 
HETATM   22  C22 UNL     1      25.805   6.308  48.925  1.00  0.00     0.031 A 
BRANCH  20  23
HETATM   23  N1  UNL     1      28.757   8.084  47.834  1.00  0.00    -0.399 N 
HETATM   24  H1  UNL     1      28.303   9.024  47.640  1.00  0.00     0.156 HD
HETATM   25  H2  UNL     1      29.815   8.096  47.682  1.00  0.00     0.156 HD
ENDBRANCH  20  23
ENDBRANCH  15  17
ENDBRANCH   1  15
BRANCH  14  26
HETATM   26  C15 UNL     1      24.044   0.801  53.311  1.00  0.00     0.134 C 
BRANCH  26  27
HETATM   27  C16 UNL     1      25.106  -0.073  52.721  1.00  0.00     0.040 C 
BRANCH  27  28
HETATM   28  C17 UNL     1      25.979  -0.682  53.819  1.00  0.00     0.118 C 
BRANCH  28  29
HETATM   29  N5  UNL     1      27.333  -0.316  53.674  1.00  0.00    -0.408 N 
HETATM   30  C18 UNL     1      28.248  -1.290  53.234  1.00  0.00     0.143 C 
HETATM   31  C19 UNL     1      29.676  -1.080  53.647  1.00  0.00     0.187 C 
HETATM   32  O3  UNL     1      30.026   0.246  53.473  1.00  0.00    -0.388 OA
HETATM   33  C20 UNL     1      29.284   0.983  54.385  1.00  0.00     0.187 C 
HETATM   34  C21 UNL     1      27.800   0.912  54.132  1.00  0.00     0.143 C 
ENDBRANCH  28  29
ENDBRANCH  27  28
ENDBRANCH  26  27
ENDBRANCH  14  26
TORSDOF 7
ENDMDL
MODEL 3
REMARK VINA RESULT:      -8.2      2.916      6.934
REMARK  7 active torsions:
REMARK  status: ('A' for Active; 'I' for Inactive)
REMARK    1  A    between atoms: N1_1  and  C1_2 
REMARK    2  A    between atoms: C4_5  and  N2_6 
REMARK    3  A    between atoms: N2_6  and  C5_7 
REMARK    4  A    between atoms: N4_20  and  C15_21 
REMARK    5  A    between atoms: C15_21  and  C16_22 
REMARK    6  A    between atoms: C16_22  and  C17_23 
REMARK    7  A    between atoms: C17_23  and  N5_24 
ROOT
HETATM    1  C5  UNL     1      21.159  -0.444  53.365  1.00  0.00     0.030 A 
HETATM    2  C6  UNL     1      22.236   0.177  52.928  1.00  0.00     0.043 A 
HETATM    3  C7  UNL     1      23.457  -0.135  53.646  1.00  0.00     0.024 A 
HETATM    4  C8  UNL     1      24.716   0.247  53.552  1.00  0.00     0.083 A 
HETATM    5  C9  UNL     1      25.490  -0.425  54.576  1.00  0.00     0.099 A 
HETATM    6  C10 UNL     1      24.701  -1.230  55.312  1.00  0.00     0.071 A 
HETATM    7  C11 UNL     1      23.368  -1.078  54.748  1.00  0.00     0.066 A 
HETATM    8  N3  UNL     1      22.294  -1.639  55.110  1.00  0.00    -0.283 NA
HETATM    9  C12 UNL     1      21.023  -1.425  54.495  1.00  0.00     0.206 A 
HETATM   10  O1  UNL     1      26.866  -0.189  54.690  1.00  0.00    -0.340 OA
HETATM   11  C13 UNL     1      27.406   1.030  54.176  1.00  0.00     0.279 C 
HETATM   12  C14 UNL     1      26.727   1.365  52.875  1.00  0.00     0.248 C 
HETATM   13  O2  UNL     1      27.446   1.832  51.946  1.00  0.00    -0.271 OA
HETATM   14  N4  UNL     1      25.313   1.172  52.657  1.00  0.00    -0.313 N 
ENDROOT
BRANCH   1  15
HETATM   15  N2  UNL     1      19.929  -0.218  52.752  1.00  0.00    -0.358 N 
HETATM   16  H5  UNL     1      20.002   0.836  52.590  1.00  0.00     0.166 HD
BRANCH  15  17
HETATM   17  C4  UNL     1      18.653  -0.293  52.161  1.00  0.00     0.032 A 
HETATM   18  C3  UNL     1      17.491  -0.887  52.643  1.00  0.00     0.031 A 
HETATM   19  C2  UNL     1      16.377  -0.802  51.847  1.00  0.00     0.031 A 
HETATM   20  C1  UNL     1      16.456  -0.150  50.639  1.00  0.00     0.025 A 
HETATM   21  C23 UNL     1      17.576   0.457  50.111  1.00  0.00     0.031 A 
HETATM   22  C22 UNL     1      18.696   0.364  50.927  1.00  0.00     0.031 A 
BRANCH  20  23
HETATM   23  N1  UNL     1      15.280  -0.088  49.841  1.00  0.00    -0.399 N 
HETATM   24  H1  UNL     1      14.359   0.060  50.350  1.00  0.00     0.156 HD
HETATM   25  H2  UNL     1      15.157  -0.175  48.783  1.00  0.00     0.156 HD
ENDBRANCH  20  23
ENDBRANCH  15  17
ENDBRANCH   1  15
BRANCH  14  26
HETATM   26  C15 UNL     1      24.629   1.895  51.602  1.00  0.00     0.134 C 
BRANCH  26  27
HETATM   27  C16 UNL     1      24.121   3.238  52.027  1.00  0.00     0.040 C 
BRANCH  27  28
HETATM   28  C17 UNL     1      23.712   4.072  50.813  1.00  0.00     0.118 C 
BRANCH  28  29
HETATM   29  N5  UNL     1      24.524   5.215  50.665  1.00  0.00    -0.408 N 
HETATM   30  C18 UNL     1      24.085   6.427  51.228  1.00  0.00     0.143 C 
HETATM   31  C19 UNL     1      24.611   7.677  50.582  1.00  0.00     0.187 C 
HETATM   32  O3  UNL     1      25.964   7.545  50.335  1.00  0.00    -0.388 OA
HETATM   33  C20 UNL     1      26.103   6.562  49.365  1.00  0.00     0.187 C 
HETATM   34  C21 UNL     1      25.635   5.206  49.827  1.00  0.00     0.143 C 
ENDBRANCH  28  29
ENDBRANCH  27  28
ENDBRANCH  26  27
ENDBRANCH  14  26
TORSDOF 7
ENDMDL
MODEL 4
REMARK VINA RESULT:      -8.1      2.609      6.047
REMARK  7 active torsions:
REMARK  status: ('A' for Active; 'I' for Inactive)
REMARK    1  A    between atoms: N1_1  and  C1_2 
REMARK    2  A    between atoms: C4_5  and  N2_6 
REMARK    3  A    between atoms: N2_6  and  C5_7 
REMARK    4  A    between atoms: N4_20  and  C15_21 
REMARK    5  A    between atoms: C15_21  and  C16_22 
REMARK    6  A    between atoms: C16_22  and  C17_23 
REMARK    7  A    between atoms: C17_23  and  N5_24 
ROOT
HETATM    1  C5  UNL     1      25.718   2.289  51.324  1.00  0.00     0.030 A 
HETATM    2  C6  UNL     1      24.477   1.918  51.567  1.00  0.00     0.043 A 
HETATM    3  C7  UNL     1      24.328   0.925  52.615  1.00  0.00     0.024 A 
HETATM    4  C8  UNL     1      23.308   0.293  53.161  1.00  0.00     0.083 A 
HETATM    5  C9  UNL     1      23.803  -0.606  54.185  1.00  0.00     0.099 A 
HETATM    6  C10 UNL     1      25.143  -0.530  54.271  1.00  0.00     0.071 A 
HETATM    7  C11 UNL     1      25.537   0.453  53.271  1.00  0.00     0.066 A 
HETATM    8  N3  UNL     1      26.698   0.858  52.984  1.00  0.00    -0.283 NA
HETATM    9  C12 UNL     1      26.991   1.829  51.978  1.00  0.00     0.206 A 
HETATM   10  O1  UNL     1      22.911  -1.399  54.918  1.00  0.00    -0.340 OA
HETATM   11  C13 UNL     1      21.634  -1.708  54.358  1.00  0.00     0.279 C 
HETATM   12  C14 UNL     1      21.096  -0.495  53.647  1.00  0.00     0.248 C 
HETATM   13  O2  UNL     1      19.861  -0.250  53.767  1.00  0.00    -0.271 OA
HETATM   14  N4  UNL     1      21.925   0.382  52.856  1.00  0.00    -0.313 N 
ENDROOT
BRANCH   1  15
HETATM   15  N2  UNL     1      25.980   3.235  50.337  1.00  0.00    -0.358 N 
HETATM   16  H5  UNL     1      25.709   2.669  49.471  1.00  0.00     0.166 HD
BRANCH  15  17
HETATM   17  C4  UNL     1      26.316   4.371  49.576  1.00  0.00     0.032 A 
HETATM   18  C3  UNL     1      27.519   4.694  48.956  1.00  0.00     0.031 A 
HETATM   19  C2  UNL     1      27.561   5.880  48.268  1.00  0.00     0.031 A 
HETATM   20  C1  UNL     1      26.442   6.677  48.223  1.00  0.00     0.025 A 
HETATM   21  C23 UNL     1      25.226   6.411  48.816  1.00  0.00     0.031 A 
HETATM   22  C22 UNL     1      25.196   5.207  49.507  1.00  0.00     0.031 A 
BRANCH  20  23
HETATM   23  N1  UNL     1      26.529   7.902  47.504  1.00  0.00    -0.399 N 
HETATM   24  H1  UNL     1      27.046   8.702  47.974  1.00  0.00     0.156 HD
HETATM   25  H2  UNL     1      26.144   8.167  46.542  1.00  0.00     0.156 HD
ENDBRANCH  20  23
ENDBRANCH  15  17
ENDBRANCH   1  15
BRANCH  14  26
HETATM   26  C15 UNL     1      21.331   1.246  51.854  1.00  0.00     0.134 C 
BRANCH  26  27
HETATM   27  C16 UNL     1      21.115   0.573  50.533  1.00  0.00     0.040 C 
BRANCH  27  28
HETATM   28  C17 UNL     1      20.030   1.290  49.730  1.00  0.00     0.118 C 
BRANCH  28  29
HETATM   29  N5  UNL     1      20.557   1.922  48.585  1.00  0.00    -0.408 N 
HETATM   30  C18 UNL     1      21.908   1.702  48.260  1.00  0.00     0.143 C 
HETATM   31  C19 UNL     1      22.573   2.784  47.460  1.00  0.00     0.187 C 
HETATM   32  O3  UNL     1      21.734   3.202  46.444  1.00  0.00    -0.388 OA
HETATM   33  C20 UNL     1      20.649   3.824  47.046  1.00  0.00     0.187 C 
HETATM   34  C21 UNL     1      19.831   2.889  47.898  1.00  0.00     0.143 C 
ENDBRANCH  28  29
ENDBRANCH  27  28
ENDBRANCH  26  27
ENDBRANCH  14  26
TORSDOF 7
ENDMDL
MODEL 5
REMARK VINA RESULT:      -8.0      2.882      6.025
REMARK  7 active torsions:
REMARK  status: ('A' for Active; 'I' for Inactive)
REMARK    1  A    between atoms: N1_1  and  C1_2 
REMARK    2  A    between atoms: C4_5  and  N2_6 
REMARK    3  A    between atoms: N2_6  and  C5_7 
REMARK    4  A    between atoms: N4_20  and  C15_21 
REMARK    5  A    between atoms: C15_21  and  C16_22 
REMARK    6  A    between atoms: C16_22  and  C17_23 
REMARK    7  A    between atoms: C17_23  and  N5_24 
ROOT
HETATM    1  C5  UNL     1      25.712   2.250  51.306  1.00  0.00     0.030 A 
HETATM    2  C6  UNL     1      24.455   1.933  51.540  1.00  0.00     0.043 A 
HETATM    3  C7  UNL     1      24.258   0.925  52.565  1.00  0.00     0.024 A 
HETATM    4  C8  UNL     1      23.208   0.331  53.097  1.00  0.00     0.083 A 
HETATM    5  C9  UNL     1      23.659  -0.613  54.101  1.00  0.00     0.099 A 
HETATM    6  C10 UNL     1      25.001  -0.601  54.190  1.00  0.00     0.071 A 
HETATM    7  C11 UNL     1      25.442   0.383  53.212  1.00  0.00     0.066 A 
HETATM    8  N3  UNL     1      26.622   0.740  52.934  1.00  0.00    -0.283 NA
HETATM    9  C12 UNL     1      26.961   1.718  51.950  1.00  0.00     0.206 A 
HETATM   10  O1  UNL     1      22.731  -1.378  54.817  1.00  0.00    -0.340 OA
HETATM   11  C13 UNL     1      21.441  -1.615  54.250  1.00  0.00     0.279 C 
HETATM   12  C14 UNL     1      20.961  -0.363  53.566  1.00  0.00     0.248 C 
HETATM   13  O2  UNL     1      19.739  -0.064  53.689  1.00  0.00    -0.271 OA
HETATM   14  N4  UNL     1      21.831   0.491  52.794  1.00  0.00    -0.313 N 
ENDROOT
BRANCH   1  15
HETATM   15  N2  UNL     1      26.019   3.205  50.339  1.00  0.00    -0.358 N 
HETATM   16  H5  UNL     1      26.061   2.576  49.475  1.00  0.00     0.166 HD
BRANCH  15  17
HETATM   17  C4  UNL     1      26.311   4.365  49.597  1.00  0.00     0.032 A 
HETATM   18  C3  UNL     1      27.478   4.711  48.922  1.00  0.00     0.031 A 
HETATM   19  C2  UNL     1      27.480   5.918  48.270  1.00  0.00     0.031 A 
HETATM   20  C1  UNL     1      26.358   6.712  48.311  1.00  0.00     0.025 A 
HETATM   21  C23 UNL     1      25.177   6.423  48.959  1.00  0.00     0.031 A 
HETATM   22  C22 UNL     1      25.187   5.198  49.614  1.00  0.00     0.031 A 
BRANCH  20  23
HETATM   23  N1  UNL     1      26.403   7.958  47.625  1.00  0.00    -0.399 N 
HETATM   24  H1  UNL     1      27.057   8.700  48.015  1.00  0.00     0.156 HD
HETATM   25  H2  UNL     1      25.870   8.291  46.761  1.00  0.00     0.156 HD
ENDBRANCH  20  23
ENDBRANCH  15  17
ENDBRANCH   1  15
BRANCH  14  26
HETATM   26  C15 UNL     1      21.280   1.403  51.810  1.00  0.00     0.134 C 
BRANCH  26  27
HETATM   27  C16 UNL     1      20.992   2.768  52.353  1.00  0.00     0.040 C 
BRANCH  27  28
HETATM   28  C17 UNL     1      19.875   3.444  51.557  1.00  0.00     0.118 C 
BRANCH  28  29
HETATM   29  N5  UNL     1      20.344   4.567  50.846  1.00  0.00    -0.408 N 
HETATM   30  C18 UNL     1      21.549   5.166  51.256  1.00  0.00     0.143 C 
HETATM   31  C19 UNL     1      21.708   6.619  50.912  1.00  0.00     0.187 C 
HETATM   32  O3  UNL     1      21.297   6.842  49.612  1.00  0.00    -0.388 OA
HETATM   33  C20 UNL     1      19.928   6.620  49.577  1.00  0.00     0.187 C 
HETATM   34  C21 UNL     1      19.554   5.193  49.887  1.00  0.00     0.143 C 
ENDBRANCH  28  29
ENDBRANCH  27  28
ENDBRANCH  26  27
ENDBRANCH  14  26
TORSDOF 7
ENDMDL
MODEL 6
REMARK VINA RESULT:      -7.8      2.518      6.776
REMARK  7 active torsions:
REMARK  status: ('A' for Active; 'I' for Inactive)
REMARK    1  A    between atoms: N1_1  and  C1_2 
REMARK    2  A    between atoms: C4_5  and  N2_6 
REMARK    3  A    between atoms: N2_6  and  C5_7 
REMARK    4  A    between atoms: N4_20  and  C15_21 
REMARK    5  A    between atoms: C15_21  and  C16_22 
REMARK    6  A    between atoms: C16_22  and  C17_23 
REMARK    7  A    between atoms: C17_23  and  N5_24 
ROOT
HETATM    1  C5  UNL     1      25.573   2.403  51.243  1.00  0.00     0.030 A 
HETATM    2  C6  UNL     1      24.337   2.033  51.509  1.00  0.00     0.043 A 
HETATM    3  C7  UNL     1      24.211   1.000  52.520  1.00  0.00     0.024 A 
HETATM    4  C8  UNL     1      23.202   0.355  53.072  1.00  0.00     0.083 A 
HETATM    5  C9  UNL     1      23.720  -0.588  54.044  1.00  0.00     0.099 A 
HETATM    6  C10 UNL     1      25.063  -0.526  54.091  1.00  0.00     0.071 A 
HETATM    7  C11 UNL     1      25.435   0.492  53.119  1.00  0.00     0.066 A 
HETATM    8  N3  UNL     1      26.591   0.900  52.813  1.00  0.00    -0.283 NA
HETATM    9  C12 UNL     1      26.861   1.908  51.838  1.00  0.00     0.206 A 
HETATM   10  O1  UNL     1      22.844  -1.402  54.772  1.00  0.00    -0.340 OA
HETATM   11  C13 UNL     1      21.548  -1.678  54.240  1.00  0.00     0.279 C 
HETATM   12  C14 UNL     1      20.999  -0.434  53.596  1.00  0.00     0.248 C 
HETATM   13  O2  UNL     1      19.770  -0.184  53.763  1.00  0.00    -0.271 OA
HETATM   14  N4  UNL     1      21.811   0.467  52.814  1.00  0.00    -0.313 N 
ENDROOT
BRANCH   1  15
HETATM   15  N2  UNL     1      25.813   3.387  50.285  1.00  0.00    -0.358 N 
HETATM   16  H5  UNL     1      25.840   2.777  49.407  1.00  0.00     0.166 HD
BRANCH  15  17
HETATM   17  C4  UNL     1      26.041   4.570  49.558  1.00  0.00     0.032 A 
HETATM   18  C3  UNL     1      25.168   5.618  49.282  1.00  0.00     0.031 A 
HETATM   19  C2  UNL     1      25.667   6.661  48.545  1.00  0.00     0.031 A 
HETATM   20  C1  UNL     1      26.975   6.626  48.122  1.00  0.00     0.025 A 
HETATM   21  C23 UNL     1      27.884   5.619  48.363  1.00  0.00     0.031 A 
HETATM   22  C22 UNL     1      27.367   4.570  49.112  1.00  0.00     0.031 A 
BRANCH  20  23
HETATM   23  N1  UNL     1      27.453   7.726  47.355  1.00  0.00    -0.399 N 
HETATM   24  H1  UNL     1      27.814   8.567  47.892  1.00  0.00     0.156 HD
HETATM   25  H2  UNL     1      27.506   7.858  46.295  1.00  0.00     0.156 HD
ENDBRANCH  20  23
ENDBRANCH  15  17
ENDBRANCH   1  15
BRANCH  14  26
HETATM   26  C15 UNL     1      21.195   1.375  51.866  1.00  0.00     0.134 C 
BRANCH  26  27
HETATM   27  C16 UNL     1      20.752   0.710  50.599  1.00  0.00     0.040 C 
BRANCH  27  28
HETATM   28  C17 UNL     1      19.543   1.430  50.002  1.00  0.00     0.118 C 
BRANCH  28  29
HETATM   29  N5  UNL     1      18.377   1.214  50.764  1.00  0.00    -0.408 N 
HETATM   30  C18 UNL     1      17.868  -0.094  50.857  1.00  0.00     0.143 C 
HETATM   31  C19 UNL     1      16.396  -0.207  51.132  1.00  0.00     0.187 C 
HETATM   32  O3  UNL     1      16.033   0.689  52.119  1.00  0.00    -0.388 OA
HETATM   33  C20 UNL     1      16.196   1.962  51.592  1.00  0.00     0.187 C 
HETATM   34  C21 UNL     1      17.630   2.281  51.255  1.00  0.00     0.143 C 
ENDBRANCH  28  29
ENDBRANCH  27  28
ENDBRANCH  26  27
ENDBRANCH  14  26
TORSDOF 7
ENDMDL
MODEL 7
REMARK VINA RESULT:      -7.7      2.322      5.339
REMARK  7 active torsions:
REMARK  status: ('A' for Active; 'I' for Inactive)
REMARK    1  A    between atoms: N1_1  and  C1_2 
REMARK    2  A    between atoms: C4_5  and  N2_6 
REMARK    3  A    between atoms: N2_6  and  C5_7 
REMARK    4  A    between atoms: N4_20  and  C15_21 
REMARK    5  A    between atoms: C15_21  and  C16_22 
REMARK    6  A    between atoms: C16_22  and  C17_23 
REMARK    7  A    between atoms: C17_23  and  N5_24 
ROOT
HETATM    1  C5  UNL     1      25.699   2.524  50.949  1.00  0.00     0.030 A 
HETATM    2  C6  UNL     1      24.391   2.633  50.838  1.00  0.00     0.043 A 
HETATM    3  C7  UNL     1      23.935   3.753  50.037  1.00  0.00     0.024 A 
HETATM    4  C8  UNL     1      22.756   4.223  49.678  1.00  0.00     0.083 A 
HETATM    5  C9  UNL     1      22.948   5.402  48.856  1.00  0.00     0.099 A 
HETATM    6  C10 UNL     1      24.259   5.663  48.706  1.00  0.00     0.071 A 
HETATM    7  C11 UNL     1      24.946   4.620  49.454  1.00  0.00     0.066 A 
HETATM    8  N3  UNL     1      26.190   4.450  49.603  1.00  0.00    -0.283 NA
HETATM    9  C12 UNL     1      26.776   3.393  50.363  1.00  0.00     0.206 A 
HETATM   10  O1  UNL     1      21.843   6.093  48.345  1.00  0.00    -0.340 OA
HETATM   11  C13 UNL     1      20.582   5.973  49.006  1.00  0.00     0.279 C 
HETATM   12  C14 UNL     1      20.390   4.549  49.456  1.00  0.00     0.248 C 
HETATM   13  O2  UNL     1      19.236   4.049  49.333  1.00  0.00    -0.271 OA
HETATM   14  N4  UNL     1      21.459   3.751  50.008  1.00  0.00    -0.313 N 
ENDROOT
BRANCH   1  15
HETATM   15  N2  UNL     1      26.250   1.486  51.698  1.00  0.00    -0.358 N 
HETATM   16  H5  UNL     1      25.565   1.477  52.519  1.00  0.00     0.166 HD
BRANCH  15  17
HETATM   17  C4  UNL     1      27.004   0.420  52.221  1.00  0.00     0.032 A 
HETATM   18  C3  UNL     1      28.152   0.452  53.006  1.00  0.00     0.031 A 
HETATM   19  C2  UNL     1      28.679  -0.757  53.382  1.00  0.00     0.031 A 
HETATM   20  C1  UNL     1      28.064  -1.918  52.978  1.00  0.00     0.025 A 
HETATM   21  C23 UNL     1      26.928  -2.013  52.203  1.00  0.00     0.031 A 
HETATM   22  C22 UNL     1      26.405  -0.783  51.830  1.00  0.00     0.031 A 
BRANCH  20  23
HETATM   23  N1  UNL     1      28.645  -3.152  53.385  1.00  0.00    -0.399 N 
HETATM   24  H1  UNL     1      28.768  -3.897  52.638  1.00  0.00     0.156 HD
HETATM   25  H2  UNL     1      28.984  -3.472  54.347  1.00  0.00     0.156 HD
ENDBRANCH  20  23
ENDBRANCH  15  17
ENDBRANCH   1  15
BRANCH  14  26
HETATM   26  C15 UNL     1      21.161   2.588  50.821  1.00  0.00     0.134 C 
BRANCH  26  27
HETATM   27  C16 UNL     1      21.043   2.891  52.282  1.00  0.00     0.040 C 
BRANCH  27  28
HETATM   28  C17 UNL     1      20.194   1.834  52.989  1.00  0.00     0.118 C 
BRANCH  28  29
HETATM   29  N5  UNL     1      20.918   0.645  53.213  1.00  0.00    -0.408 N 
HETATM   30  C18 UNL     1      20.201  -0.541  53.453  1.00  0.00     0.143 C 
HETATM   31  C19 UNL     1      20.922  -1.594  54.245  1.00  0.00     0.187 C 
HETATM   32  O3  UNL     1      22.221  -1.716  53.790  1.00  0.00    -0.388 OA
HETATM   33  C20 UNL     1      22.873  -0.532  54.102  1.00  0.00     0.187 C 
HETATM   34  C21 UNL     1      22.298   0.664  53.388  1.00  0.00     0.143 C 
ENDBRANCH  28  29
ENDBRANCH  27  28
ENDBRANCH  26  27
ENDBRANCH  14  26
TORSDOF 7
ENDMDL
MODEL 8
REMARK VINA RESULT:      -7.7      3.237      6.454
REMARK  7 active torsions:
REMARK  status: ('A' for Active; 'I' for Inactive)
REMARK    1  A    between atoms: N1_1  and  C1_2 
REMARK    2  A    between atoms: C4_5  and  N2_6 
REMARK    3  A    between atoms: N2_6  and  C5_7 
REMARK    4  A    between atoms: N4_20  and  C15_21 
REMARK    5  A    between atoms: C15_21  and  C16_22 
REMARK    6  A    between atoms: C16_22  and  C17_23 
REMARK    7  A    between atoms: C17_23  and  N5_24 
ROOT
HETATM    1  C5  UNL     1      24.151   6.048  49.583  1.00  0.00     0.030 A 
HETATM    2  C6  UNL     1      23.980   4.869  50.144  1.00  0.00     0.043 A 
HETATM    3  C7  UNL     1      22.606   4.542  50.478  1.00  0.00     0.024 A 
HETATM    4  C8  UNL     1      22.003   3.510  51.034  1.00  0.00     0.083 A 
HETATM    5  C9  UNL     1      20.580   3.777  51.107  1.00  0.00     0.099 A 
HETATM    6  C10 UNL     1      20.302   4.988  50.591  1.00  0.00     0.071 A 
HETATM    7  C11 UNL     1      21.585   5.529  50.167  1.00  0.00     0.066 A 
HETATM    8  N3  UNL     1      21.826   6.644  49.623  1.00  0.00    -0.283 NA
HETATM    9  C12 UNL     1      23.127   7.094  49.242  1.00  0.00     0.206 A 
HETATM   10  O1  UNL     1      19.712   2.830  51.661  1.00  0.00    -0.340 OA
HETATM   11  C13 UNL     1      20.229   1.868  52.582  1.00  0.00     0.279 C 
HETATM   12  C14 UNL     1      21.584   1.409  52.112  1.00  0.00     0.248 C 
HETATM   13  O2  UNL     1      21.858   0.180  52.233  1.00  0.00    -0.271 OA
HETATM   14  N4  UNL     1      22.559   2.305  51.537  1.00  0.00    -0.313 N 
ENDROOT
BRANCH   1  15
HETATM   15  N2  UNL     1      25.429   6.468  49.221  1.00  0.00    -0.358 N 
HETATM   16  H5  UNL     1      25.333   7.516  49.413  1.00  0.00     0.166 HD
BRANCH  15  17
HETATM   17  C4  UNL     1      26.768   6.594  48.807  1.00  0.00     0.032 A 
HETATM   18  C3  UNL     1      27.510   7.744  48.556  1.00  0.00     0.031 A 
HETATM   19  C2  UNL     1      28.812   7.567  48.165  1.00  0.00     0.031 A 
HETATM   20  C1  UNL     1      29.315   6.293  48.043  1.00  0.00     0.025 A 
HETATM   21  C23 UNL     1      28.631   5.120  48.278  1.00  0.00     0.031 A 
HETATM   22  C22 UNL     1      27.315   5.313  48.674  1.00  0.00     0.031 A 
BRANCH  20  23
HETATM   23  N1  UNL     1      30.670   6.152  47.630  1.00  0.00    -0.399 N 
HETATM   24  H1  UNL     1      31.225   7.046  47.482  1.00  0.00     0.156 HD
HETATM   25  H2  UNL     1      31.243   5.272  47.430  1.00  0.00     0.156 HD
ENDBRANCH  20  23
ENDBRANCH  15  17
ENDBRANCH   1  15
BRANCH  14  26
HETATM   26  C15 UNL     1      23.963   1.943  51.514  1.00  0.00     0.134 C 
BRANCH  26  27
HETATM   27  C16 UNL     1      24.678   2.230  52.798  1.00  0.00     0.040 C 
BRANCH  27  28
HETATM   28  C17 UNL     1      25.231   0.943  53.410  1.00  0.00     0.118 C 
BRANCH  28  29
HETATM   29  N5  UNL     1      26.508   1.137  53.973  1.00  0.00    -0.408 N 
HETATM   30  C18 UNL     1      27.280   2.225  53.526  1.00  0.00     0.143 C 
HETATM   31  C19 UNL     1      28.768   2.075  53.666  1.00  0.00     0.187 C 
HETATM   32  O3  UNL     1      29.071   1.547  54.907  1.00  0.00    -0.388 OA
HETATM   33  C20 UNL     1      28.582   0.248  54.924  1.00  0.00     0.187 C 
HETATM   34  C21 UNL     1      27.082   0.181  54.805  1.00  0.00     0.143 C 
ENDBRANCH  28  29
ENDBRANCH  27  28
ENDBRANCH  26  27
ENDBRANCH  14  26
TORSDOF 7
ENDMDL
MODEL 9
REMARK VINA RESULT:      -7.6      4.304      7.722
REMARK  7 active torsions:
REMARK  status: ('A' for Active; 'I' for Inactive)
REMARK    1  A    between atoms: N1_1  and  C1_2 
REMARK    2  A    between atoms: C4_5  and  N2_6 
REMARK    3  A    between atoms: N2_6  and  C5_7 
REMARK    4  A    between atoms: N4_20  and  C15_21 
REMARK    5  A    between atoms: C15_21  and  C16_22 
REMARK    6  A    between atoms: C16_22  and  C17_23 
REMARK    7  A    between atoms: C17_23  and  N5_24 
ROOT
HETATM    1  C5  UNL     1      26.107   7.365  49.660  1.00  0.00     0.030 A 
HETATM    2  C6  UNL     1      25.772   6.107  49.866  1.00  0.00     0.043 A 
HETATM    3  C7  UNL     1      24.435   5.908  50.393  1.00  0.00     0.024 A 
HETATM    4  C8  UNL     1      23.717   4.856  50.738  1.00  0.00     0.083 A 
HETATM    5  C9  UNL     1      22.422   5.305  51.210  1.00  0.00     0.099 A 
HETATM    6  C10 UNL     1      22.339   6.647  51.159  1.00  0.00     0.071 A 
HETATM    7  C11 UNL     1      23.623   7.090  50.634  1.00  0.00     0.066 A 
HETATM    8  N3  UNL     1      24.014   8.270  50.408  1.00  0.00    -0.283 NA
HETATM    9  C12 UNL     1      25.301   8.611  49.892  1.00  0.00     0.206 A 
HETATM   10  O1  UNL     1      21.468   4.374  51.640  1.00  0.00    -0.340 OA
HETATM   11  C13 UNL     1      21.902   3.089  52.086  1.00  0.00     0.279 C 
HETATM   12  C14 UNL     1      23.023   2.609  51.204  1.00  0.00     0.248 C 
HETATM   13  O2  UNL     1      23.031   1.385  50.885  1.00  0.00    -0.271 OA
HETATM   14  N4  UNL     1      24.064   3.481  50.716  1.00  0.00    -0.313 N 
ENDROOT
BRANCH   1  15
HETATM   15  N2  UNL     1      27.369   7.675  49.159  1.00  0.00    -0.358 N 
HETATM   16  H5  UNL     1      27.186   8.672  48.820  1.00  0.00     0.166 HD
BRANCH  15  17
HETATM   17  C4  UNL     1      28.717   7.709  48.753  1.00  0.00     0.032 A 
HETATM   18  C3  UNL     1      29.425   6.806  47.966  1.00  0.00     0.031 A 
HETATM   19  C2  UNL     1      30.742   7.097  47.724  1.00  0.00     0.031 A 
HETATM   20  C1  UNL     1      31.292   8.240  48.256  1.00  0.00     0.025 A 
HETATM   21  C23 UNL     1      30.643   9.170  49.040  1.00  0.00     0.031 A 
HETATM   22  C22 UNL     1      29.309   8.863  49.276  1.00  0.00     0.031 A 
BRANCH  20  23
HETATM   23  N1  UNL     1      32.664   8.504  47.985  1.00  0.00    -0.399 N 
HETATM   24  H1  UNL     1      33.034   8.208  47.034  1.00  0.00     0.156 HD
HETATM   25  H2  UNL     1      33.415   8.957  48.597  1.00  0.00     0.156 HD
ENDBRANCH  20  23
ENDBRANCH  15  17
ENDBRANCH   1  15
BRANCH  14  26
HETATM   26  C15 UNL     1      25.329   2.932  50.264  1.00  0.00     0.134 C 
BRANCH  26  27
HETATM   27  C16 UNL     1      26.356   2.822  51.348  1.00  0.00     0.040 C 
BRANCH  27  28
HETATM   28  C17 UNL     1      26.643   1.357  51.676  1.00  0.00     0.118 C 
BRANCH  28  29
HETATM   29  N5  UNL     1      27.340   1.219  52.893  1.00  0.00    -0.408 N 
HETATM   30  C18 UNL     1      28.149   2.286  53.327  1.00  0.00     0.143 C 
HETATM   31  C19 UNL     1      29.285   1.918  54.237  1.00  0.00     0.187 C 
HETATM   32  O3  UNL     1      28.851   1.020  55.193  1.00  0.00    -0.388 OA
HETATM   33  C20 UNL     1      28.536  -0.158  54.528  1.00  0.00     0.187 C 
HETATM   34  C21 UNL     1      27.392  -0.001  53.561  1.00  0.00     0.143 C 
ENDBRANCH  28  29
ENDBRANCH  27  28
ENDBRANCH  26  27
ENDBRANCH  14  26
TORSDOF 7
ENDMDL
