MODEL 1
REMARK VINA RESULT:      -7.8      0.000      0.000
REMARK  3 active torsions:
REMARK  status: ('A' for Active; 'I' for Inactive)
REMARK    1  A    between atoms: C5_5  and  S1_6 
REMARK    2  A    between atoms: S1_6  and  N1_9 
REMARK       I    between atoms: N1_9  and  C6_10 
REMARK    3  A    between atoms: C6_10  and  C7_12 
ROOT
HETATM    1  N1  UNL     1      26.004   3.211  51.270  1.00  0.00    -0.246 N 
HETATM    2  C6  UNL     1      25.310   4.061  50.334  1.00  0.00     0.268 C 
HETATM    3  O3  UNL     1      24.078   3.852  50.195  1.00  0.00    -0.267 OA
HETATM    4  H6  UNL     1      27.041   3.354  51.416  1.00  0.00     0.182 HD
ENDROOT
BRANCH   1   5
HETATM    5  S1  UNL     1      25.368   1.937  52.230  1.00  0.00     0.262 S 
HETATM    6  O1  UNL     1      24.153   1.331  51.566  1.00  0.00    -0.200 OA
HETATM    7  O2  UNL     1      24.865   2.525  53.531  1.00  0.00    -0.200 OA
BRANCH   5   8
HETATM    8  C5  UNL     1      26.551   0.742  52.625  1.00  0.00     0.061 A 
HETATM    9  C4  UNL     1      26.321  -0.557  52.485  1.00  0.00     0.021 A 
HETATM   10  C3  UNL     1      27.514  -1.302  52.904  1.00  0.00     0.004 A 
HETATM   11  C2  UNL     1      28.428  -0.427  53.284  1.00  0.00    -0.079 A 
HETATM   12  C1  UNL     1      29.773  -0.827  53.774  1.00  0.00     0.044 C 
HETATM   13  C13 UNL     1      27.938   0.973  53.157  1.00  0.00     0.086 A 
ENDBRANCH   5   8
ENDBRANCH   1   5
BRANCH   2  14
HETATM   14  C7  UNL     1      26.136   5.080  49.649  1.00  0.00     0.073 A 
HETATM   15  C8  UNL     1      27.234   4.535  48.981  1.00  0.00     0.022 A 
HETATM   16  C9  UNL     1      28.103   5.382  48.292  1.00  0.00     0.028 A 
HETATM   17  C10 UNL     1      27.814   6.731  48.318  1.00  0.00     0.032 A 
HETATM   18  C11 UNL     1      28.715   7.681  47.596  1.00  0.00     0.070 C 
HETATM   19  N2  UNL     1      26.757   7.241  48.963  1.00  0.00    -0.241 NA
HETATM   20  C12 UNL     1      25.909   6.443  49.631  1.00  0.00     0.142 A 
HETATM   21 CL1  UNL     1      24.490   6.981  50.516  1.00  0.00    -0.061 Cl
ENDBRANCH   2  14
TORSDOF 3
ENDMDL
MODEL 2
REMARK VINA RESULT:      -7.7      2.218      6.884
REMARK  3 active torsions:
REMARK  status: ('A' for Active; 'I' for Inactive)
REMARK    1  A    between atoms: C5_5  and  S1_6 
REMARK    2  A    between atoms: S1_6  and  N1_9 
REMARK       I    between atoms: N1_9  and  C6_10 
REMARK    3  A    between atoms: C6_10  and  C7_12 
ROOT
HETATM    1  N1  UNL     1      25.887   2.462  50.931  1.00  0.00    -0.246 N 
HETATM    2  C6  UNL     1      25.891   2.009  52.300  1.00  0.00     0.268 C 
HETATM    3  O3  UNL     1      25.145   2.633  53.098  1.00  0.00    -0.267 OA
HETATM    4  H6  UNL     1      26.501   1.963  50.229  1.00  0.00     0.182 HD
ENDROOT
BRANCH   1   5
HETATM    5  S1  UNL     1      24.993   3.750  50.234  1.00  0.00     0.262 S 
HETATM    6  O1  UNL     1      24.063   4.361  51.257  1.00  0.00    -0.200 OA
HETATM    7  O2  UNL     1      24.091   3.180  49.160  1.00  0.00    -0.200 OA
BRANCH   5   8
HETATM    8  C5  UNL     1      26.000   4.938  49.487  1.00  0.00     0.061 A 
HETATM    9  C4  UNL     1      25.658   6.218  49.421  1.00  0.00     0.021 A 
HETATM   10  C3  UNL     1      26.718   6.962  48.730  1.00  0.00     0.004 A 
HETATM   11  C2  UNL     1      27.669   6.105  48.402  1.00  0.00    -0.079 A 
HETATM   12  C1  UNL     1      28.906   6.509  47.684  1.00  0.00     0.044 C 
HETATM   13  C13 UNL     1      27.338   4.720  48.837  1.00  0.00     0.086 A 
ENDBRANCH   5   8
ENDBRANCH   1   5
BRANCH   2  14
HETATM   14  C7  UNL     1      26.776   0.862  52.601  1.00  0.00     0.073 A 
HETATM   15  C8  UNL     1      26.238  -0.363  52.202  1.00  0.00     0.022 A 
HETATM   16  C9  UNL     1      26.964  -1.533  52.427  1.00  0.00     0.028 A 
HETATM   17  C10 UNL     1      28.192  -1.399  53.043  1.00  0.00     0.032 A 
HETATM   18  C11 UNL     1      29.008  -2.623  53.306  1.00  0.00     0.070 C 
HETATM   19  N2  UNL     1      28.696  -0.219  53.421  1.00  0.00    -0.241 NA
HETATM   20  C12 UNL     1      28.013   0.919  53.213  1.00  0.00     0.142 A 
HETATM   21 CL1  UNL     1      28.558   2.528  53.659  1.00  0.00    -0.061 Cl
ENDBRANCH   2  14
TORSDOF 3
ENDMDL
MODEL 3
REMARK VINA RESULT:      -7.6      3.170      7.080
REMARK  3 active torsions:
REMARK  status: ('A' for Active; 'I' for Inactive)
REMARK    1  A    between atoms: C5_5  and  S1_6 
REMARK    2  A    between atoms: S1_6  and  N1_9 
REMARK       I    between atoms: N1_9  and  C6_10 
REMARK    3  A    between atoms: C6_10  and  C7_12 
ROOT
HETATM    1  N1  UNL     1      23.999   4.002  51.375  1.00  0.00    -0.246 N 
HETATM    2  C6  UNL     1      23.611   2.696  50.901  1.00  0.00     0.268 C 
HETATM    3  O3  UNL     1      23.433   2.580  49.661  1.00  0.00    -0.267 OA
HETATM    4  H6  UNL     1      24.159   4.141  52.411  1.00  0.00     0.182 HD
ENDROOT
BRANCH   1   5
HETATM    5  S1  UNL     1      24.251   5.436  50.466  1.00  0.00     0.262 S 
HETATM    6  O1  UNL     1      24.101   6.654  51.347  1.00  0.00    -0.200 OA
HETATM    7  O2  UNL     1      23.150   5.547  49.433  1.00  0.00    -0.200 OA
BRANCH   5   8
HETATM    8  C5  UNL     1      25.756   5.435  49.618  1.00  0.00     0.061 A 
HETATM    9  C4  UNL     1      26.460   4.327  49.424  1.00  0.00     0.021 A 
HETATM   10  C3  UNL     1      27.679   4.659  48.677  1.00  0.00     0.004 A 
HETATM   11  C2  UNL     1      27.672   5.960  48.443  1.00  0.00    -0.079 A 
HETATM   12  C1  UNL     1      28.760   6.652  47.704  1.00  0.00     0.044 C 
HETATM   13  C13 UNL     1      26.459   6.614  49.006  1.00  0.00     0.086 A 
ENDBRANCH   5   8
ENDBRANCH   1   5
BRANCH   2  14
HETATM   14  C7  UNL     1      23.471   1.647  51.935  1.00  0.00     0.073 A 
HETATM   15  C8  UNL     1      22.163   1.513  52.404  1.00  0.00     0.022 A 
HETATM   16  C9  UNL     1      21.883   0.561  53.386  1.00  0.00     0.028 A 
HETATM   17  C10 UNL     1      22.942  -0.201  53.838  1.00  0.00     0.032 A 
HETATM   18  C11 UNL     1      22.695  -1.233  54.889  1.00  0.00     0.070 C 
HETATM   19  N2  UNL     1      24.191  -0.062  53.379  1.00  0.00    -0.241 NA
HETATM   20  C12 UNL     1      24.481   0.848  52.435  1.00  0.00     0.142 A 
HETATM   21 CL1  UNL     1      26.073   1.131  51.749  1.00  0.00    -0.061 Cl
ENDBRANCH   2  14
TORSDOF 3
ENDMDL
MODEL 4
REMARK VINA RESULT:      -7.6      1.729      2.165
REMARK  3 active torsions:
REMARK  status: ('A' for Active; 'I' for Inactive)
REMARK    1  A    between atoms: C5_5  and  S1_6 
REMARK    2  A    between atoms: S1_6  and  N1_9 
REMARK       I    between atoms: N1_9  and  C6_10 
REMARK    3  A    between atoms: C6_10  and  C7_12 
ROOT
HETATM    1  N1  UNL     1      24.923   4.605  51.002  1.00  0.00    -0.246 N 
HETATM    2  C6  UNL     1      25.171   4.374  49.600  1.00  0.00     0.268 C 
HETATM    3  O3  UNL     1      24.500   3.459  49.057  1.00  0.00    -0.267 OA
HETATM    4  H6  UNL     1      25.467   5.365  51.496  1.00  0.00     0.182 HD
ENDROOT
BRANCH   1   5
HETATM    5  S1  UNL     1      23.825   3.791  52.040  1.00  0.00     0.262 S 
HETATM    6  O1  UNL     1      22.426   3.841  51.473  1.00  0.00    -0.200 OA
HETATM    7  O2  UNL     1      23.756   4.547  53.350  1.00  0.00    -0.200 OA
BRANCH   5   8
HETATM    8  C5  UNL     1      24.317   2.175  52.402  1.00  0.00     0.061 A 
HETATM    9  C4  UNL     1      23.513   1.306  52.999  1.00  0.00     0.021 A 
HETATM   10  C3  UNL     1      24.223   0.032  53.164  1.00  0.00     0.004 A 
HETATM   11  C2  UNL     1      25.436   0.173  52.659  1.00  0.00    -0.079 A 
HETATM   12  C1  UNL     1      26.439  -0.923  52.652  1.00  0.00     0.044 C 
HETATM   13  C13 UNL     1      25.649   1.542  52.114  1.00  0.00     0.086 A 
ENDBRANCH   5   8
ENDBRANCH   1   5
BRANCH   2  14
HETATM   14  C7  UNL     1      26.188   5.244  48.970  1.00  0.00     0.073 A 
HETATM   15  C8  UNL     1      27.447   4.646  48.892  1.00  0.00     0.022 A 
HETATM   16  C9  UNL     1      28.505   5.355  48.321  1.00  0.00     0.028 A 
HETATM   17  C10 UNL     1      28.231   6.627  47.863  1.00  0.00     0.032 A 
HETATM   18  C11 UNL     1      29.331   7.428  47.244  1.00  0.00     0.070 C 
HETATM   19  N2  UNL     1      27.019   7.189  47.944  1.00  0.00    -0.241 NA
HETATM   20  C12 UNL     1      25.988   6.524  48.489  1.00  0.00     0.142 A 
HETATM   21 CL1  UNL     1      24.353   7.143  48.656  1.00  0.00    -0.061 Cl
ENDBRANCH   2  14
TORSDOF 3
ENDMDL
MODEL 5
REMARK VINA RESULT:      -7.5      4.747      6.494
REMARK  3 active torsions:
REMARK  status: ('A' for Active; 'I' for Inactive)
REMARK    1  A    between atoms: C5_5  and  S1_6 
REMARK    2  A    between atoms: S1_6  and  N1_9 
REMARK       I    between atoms: N1_9  and  C6_10 
REMARK    3  A    between atoms: C6_10  and  C7_12 
ROOT
HETATM    1  N1  UNL     1      24.361   0.974  52.880  1.00  0.00    -0.246 N 
HETATM    2  C6  UNL     1      23.198   1.790  52.630  1.00  0.00     0.268 C 
HETATM    3  O3  UNL     1      23.403   3.019  52.459  1.00  0.00    -0.267 OA
HETATM    4  H6  UNL     1      24.231  -0.065  53.028  1.00  0.00     0.182 HD
ENDROOT
BRANCH   1   5
HETATM    5  S1  UNL     1      26.004   1.459  52.977  1.00  0.00     0.262 S 
HETATM    6  O1  UNL     1      26.204   2.420  54.126  1.00  0.00    -0.200 OA
HETATM    7  O2  UNL     1      26.345   2.245  51.730  1.00  0.00    -0.200 OA
BRANCH   5   8
HETATM    8  C5  UNL     1      27.093   0.121  53.059  1.00  0.00     0.061 A 
HETATM    9  C4  UNL     1      26.770  -1.086  52.613  1.00  0.00     0.021 A 
HETATM   10  C3  UNL     1      27.902  -1.995  52.826  1.00  0.00     0.004 A 
HETATM   11  C2  UNL     1      28.876  -1.306  53.394  1.00  0.00    -0.079 A 
HETATM   12  C1  UNL     1      30.185  -1.909  53.757  1.00  0.00     0.044 C 
HETATM   13  C13 UNL     1      28.491   0.115  53.613  1.00  0.00     0.086 A 
ENDBRANCH   5   8
ENDBRANCH   1   5
BRANCH   2  14
HETATM   14  C7  UNL     1      21.901   1.079  52.604  1.00  0.00     0.073 A 
HETATM   15  C8  UNL     1      21.486   0.651  53.867  1.00  0.00     0.022 A 
HETATM   16  C9  UNL     1      20.279  -0.037  53.992  1.00  0.00     0.028 A 
HETATM   17  C10 UNL     1      19.559  -0.255  52.835  1.00  0.00     0.032 A 
HETATM   18  C11 UNL     1      18.260  -0.989  52.916  1.00  0.00     0.070 C 
HETATM   19  N2  UNL     1      19.968   0.160  51.630  1.00  0.00    -0.241 NA
HETATM   20  C12 UNL     1      21.127   0.824  51.488  1.00  0.00     0.142 A 
HETATM   21 CL1  UNL     1      21.777   1.422  49.970  1.00  0.00    -0.061 Cl
ENDBRANCH   2  14
TORSDOF 3
ENDMDL
MODEL 6
REMARK VINA RESULT:      -7.4      3.300      4.045
REMARK  3 active torsions:
REMARK  status: ('A' for Active; 'I' for Inactive)
REMARK    1  A    between atoms: C5_5  and  S1_6 
REMARK    2  A    between atoms: S1_6  and  N1_9 
REMARK       I    between atoms: N1_9  and  C6_10 
REMARK    3  A    between atoms: C6_10  and  C7_12 
ROOT
HETATM    1  N1  UNL     1      23.500   2.706  49.780  1.00  0.00    -0.246 N 
HETATM    2  C6  UNL     1      24.071   3.868  50.415  1.00  0.00     0.268 C 
HETATM    3  O3  UNL     1      23.462   4.312  51.421  1.00  0.00    -0.267 OA
HETATM    4  H6  UNL     1      23.983   2.301  48.930  1.00  0.00     0.182 HD
ENDROOT
BRANCH   1   5
HETATM    5  S1  UNL     1      22.087   1.836  50.218  1.00  0.00     0.262 S 
HETATM    6  O1  UNL     1      21.607   0.991  49.061  1.00  0.00    -0.200 OA
HETATM    7  O2  UNL     1      20.976   2.830  50.478  1.00  0.00    -0.200 OA
BRANCH   5   8
HETATM    8  C5  UNL     1      22.293   0.903  51.656  1.00  0.00     0.061 A 
HETATM    9  C4  UNL     1      23.443   0.861  52.316  1.00  0.00     0.021 A 
HETATM   10  C3  UNL     1      23.294  -0.014  53.484  1.00  0.00     0.004 A 
HETATM   11  C2  UNL     1      22.055  -0.473  53.494  1.00  0.00    -0.079 A 
HETATM   12  C1  UNL     1      21.544  -1.394  54.542  1.00  0.00     0.044 C 
HETATM   13  C13 UNL     1      21.266   0.047  52.343  1.00  0.00     0.086 A 
ENDBRANCH   5   8
ENDBRANCH   1   5
BRANCH   2  14
HETATM   14  C7  UNL     1      25.308   4.399  49.802  1.00  0.00     0.073 A 
HETATM   15  C8  UNL     1      25.115   5.615  49.144  1.00  0.00     0.022 A 
HETATM   16  C9  UNL     1      26.197   6.232  48.516  1.00  0.00     0.028 A 
HETATM   17  C10 UNL     1      27.414   5.585  48.588  1.00  0.00     0.032 A 
HETATM   18  C11 UNL     1      28.605   6.205  47.931  1.00  0.00     0.070 C 
HETATM   19  N2  UNL     1      27.587   4.420  49.222  1.00  0.00    -0.241 NA
HETATM   20  C12 UNL     1      26.558   3.810  49.833  1.00  0.00     0.142 A 
HETATM   21 CL1  UNL     1      26.647   2.283  50.697  1.00  0.00    -0.061 Cl
ENDBRANCH   2  14
TORSDOF 3
ENDMDL
MODEL 7
REMARK VINA RESULT:      -7.4      4.494      6.990
REMARK  3 active torsions:
REMARK  status: ('A' for Active; 'I' for Inactive)
REMARK    1  A    between atoms: C5_5  and  S1_6 
REMARK    2  A    between atoms: S1_6  and  N1_9 
REMARK       I    between atoms: N1_9  and  C6_10 
REMARK    3  A    between atoms: C6_10  and  C7_12 
ROOT
HETATM    1  N1  UNL     1      24.186   1.182  51.968  1.00  0.00    -0.246 N 
HETATM    2  C6  UNL     1      25.017   1.736  53.009  1.00  0.00     0.268 C 
HETATM    3  O3  UNL     1      24.598   2.785  53.561  1.00  0.00    -0.267 OA
HETATM    4  H6  UNL     1      24.503   0.300  51.479  1.00  0.00     0.182 HD
ENDROOT
BRANCH   1   5
HETATM    5  S1  UNL     1      22.685   1.768  51.375  1.00  0.00     0.262 S 
HETATM    6  O1  UNL     1      22.677   1.766  49.864  1.00  0.00    -0.200 OA
HETATM    7  O2  UNL     1      22.548   3.221  51.777  1.00  0.00    -0.200 OA
BRANCH   5   8
HETATM    8  C5  UNL     1      21.330   0.921  52.029  1.00  0.00     0.061 A 
HETATM    9  C4  UNL     1      21.299   0.492  53.284  1.00  0.00     0.021 A 
HETATM   10  C3  UNL     1      20.021  -0.185  53.528  1.00  0.00     0.004 A 
HETATM   11  C2  UNL     1      19.318  -0.143  52.410  1.00  0.00    -0.079 A 
HETATM   12  C1  UNL     1      17.960  -0.736  52.288  1.00  0.00     0.044 C 
HETATM   13  C13 UNL     1      20.053   0.559  51.323  1.00  0.00     0.086 A 
ENDBRANCH   5   8
ENDBRANCH   1   5
BRANCH   2  14
HETATM   14  C7  UNL     1      26.266   0.999  53.301  1.00  0.00     0.073 A 
HETATM   15  C8  UNL     1      27.403   1.623  52.784  1.00  0.00     0.022 A 
HETATM   16  C9  UNL     1      28.654   1.037  52.982  1.00  0.00     0.028 A 
HETATM   17  C10 UNL     1      28.685  -0.147  53.690  1.00  0.00     0.032 A 
HETATM   18  C11 UNL     1      30.000  -0.815  53.929  1.00  0.00     0.070 C 
HETATM   19  N2  UNL     1      27.587  -0.735  54.180  1.00  0.00    -0.241 NA
HETATM   20  C12 UNL     1      26.374  -0.187  54.001  1.00  0.00     0.142 A 
HETATM   21 CL1  UNL     1      24.860  -0.854  54.590  1.00  0.00    -0.061 Cl
ENDBRANCH   2  14
TORSDOF 3
ENDMDL
MODEL 8
REMARK VINA RESULT:      -7.3      2.288      3.181
REMARK  3 active torsions:
REMARK  status: ('A' for Active; 'I' for Inactive)
REMARK    1  A    between atoms: C5_5  and  S1_6 
REMARK    2  A    between atoms: S1_6  and  N1_9 
REMARK       I    between atoms: N1_9  and  C6_10 
REMARK    3  A    between atoms: C6_10  and  C7_12 
ROOT
HETATM    1  N1  UNL     1      26.544   3.275  51.580  1.00  0.00    -0.246 N 
HETATM    2  C6  UNL     1      26.095   3.425  50.218  1.00  0.00     0.268 C 
HETATM    3  O3  UNL     1      25.494   2.441  49.715  1.00  0.00    -0.267 OA
HETATM    4  H6  UNL     1      27.053   4.081  52.039  1.00  0.00     0.182 HD
ENDROOT
BRANCH   1   5
HETATM    5  S1  UNL     1      26.370   1.920  52.619  1.00  0.00     0.262 S 
HETATM    6  O1  UNL     1      27.030   2.188  53.952  1.00  0.00    -0.200 OA
HETATM    7  O2  UNL     1      27.130   0.757  52.019  1.00  0.00    -0.200 OA
BRANCH   5   8
HETATM    8  C5  UNL     1      24.725   1.424  52.802  1.00  0.00     0.061 A 
HETATM    9  C4  UNL     1      23.713   2.276  52.710  1.00  0.00     0.021 A 
HETATM   10  C3  UNL     1      22.455   1.549  52.912  1.00  0.00     0.004 A 
HETATM   11  C2  UNL     1      22.748   0.277  53.120  1.00  0.00    -0.079 A 
HETATM   12  C1  UNL     1      21.713  -0.760  53.363  1.00  0.00     0.044 C 
HETATM   13  C13 UNL     1      24.217   0.036  53.076  1.00  0.00     0.086 A 
ENDBRANCH   5   8
ENDBRANCH   1   5
BRANCH   2  14
HETATM   14  C7  UNL     1      26.395   4.723  49.576  1.00  0.00     0.073 A 
HETATM   15  C8  UNL     1      27.566   4.700  48.817  1.00  0.00     0.022 A 
HETATM   16  C9  UNL     1      27.974   5.859  48.155  1.00  0.00     0.028 A 
HETATM   17  C10 UNL     1      27.176   6.976  48.298  1.00  0.00     0.032 A 
HETATM   18  C11 UNL     1      27.570   8.242  47.609  1.00  0.00     0.070 C 
HETATM   19  N2  UNL     1      26.055   6.984  49.029  1.00  0.00    -0.241 NA
HETATM   20  C12 UNL     1      25.645   5.880  49.673  1.00  0.00     0.142 A 
HETATM   21 CL1  UNL     1      24.199   5.757  50.663  1.00  0.00    -0.061 Cl
ENDBRANCH   2  14
TORSDOF 3
ENDMDL
MODEL 9
REMARK VINA RESULT:      -7.3      5.198      7.538
REMARK  3 active torsions:
REMARK  status: ('A' for Active; 'I' for Inactive)
REMARK    1  A    between atoms: C5_5  and  S1_6 
REMARK    2  A    between atoms: S1_6  and  N1_9 
REMARK       I    between atoms: N1_9  and  C6_10 
REMARK    3  A    between atoms: C6_10  and  C7_12 
ROOT
HETATM    1  N1  UNL     1      22.782   0.907  50.991  1.00  0.00    -0.246 N 
HETATM    2  C6  UNL     1      23.303   1.263  52.288  1.00  0.00     0.268 C 
HETATM    3  O3  UNL     1      22.610   2.063  52.968  1.00  0.00    -0.267 OA
HETATM    4  H6  UNL     1      23.335   0.236  50.388  1.00  0.00     0.182 HD
ENDROOT
BRANCH   1   5
HETATM    5  S1  UNL     1      21.331   1.433  50.241  1.00  0.00     0.262 S 
HETATM    6  O1  UNL     1      21.416   1.257  48.743  1.00  0.00    -0.200 OA
HETATM    7  O2  UNL     1      21.190   2.923  50.465  1.00  0.00    -0.200 OA
BRANCH   5   8
HETATM    8  C5  UNL     1      19.925   0.676  50.901  1.00  0.00     0.061 A 
HETATM    9  C4  UNL     1      18.764   0.656  50.260  1.00  0.00     0.021 A 
HETATM   10  C3  UNL     1      17.776  -0.056  51.079  1.00  0.00     0.004 A 
HETATM   11  C2  UNL     1      18.374  -0.444  52.192  1.00  0.00    -0.079 A 
HETATM   12  C1  UNL     1      17.674  -1.198  53.263  1.00  0.00     0.044 C 
HETATM   13  C13 UNL     1      19.805  -0.032  52.221  1.00  0.00     0.086 A 
ENDBRANCH   5   8
ENDBRANCH   1   5
BRANCH   2  14
HETATM   14  C7  UNL     1      24.592   0.642  52.662  1.00  0.00     0.073 A 
HETATM   15  C8  UNL     1      25.677   1.166  51.957  1.00  0.00     0.022 A 
HETATM   16  C9  UNL     1      26.957   0.670  52.206  1.00  0.00     0.028 A 
HETATM   17  C10 UNL     1      27.069  -0.327  53.154  1.00  0.00     0.032 A 
HETATM   18  C11 UNL     1      28.419  -0.892  53.457  1.00  0.00     0.070 C 
HETATM   19  N2  UNL     1      26.020  -0.821  53.823  1.00  0.00    -0.241 NA
HETATM   20  C12 UNL     1      24.780  -0.358  53.598  1.00  0.00     0.142 A 
HETATM   21 CL1  UNL     1      23.323  -0.917  54.403  1.00  0.00    -0.061 Cl
ENDBRANCH   2  14
TORSDOF 3
ENDMDL
