MODEL 1
REMARK VINA RESULT:      -7.7      0.000      0.000
REMARK  5 active torsions:
REMARK  status: ('A' for Active; 'I' for Inactive)
REMARK    1  A    between atoms: C6_6  and  O1_7 
REMARK    2  A    between atoms: C7_8  and  C8_9 
REMARK    3  A    between atoms: C8_9  and  N1_10 
REMARK    4  A    between atoms: N1_10  and  C9_11 
REMARK    5  A    between atoms: N1_10  and  C10_13 
ROOT
HETATM    1  C8  UNL     1      24.863   2.526  53.029  1.00  0.00     0.172 C 
ENDROOT
BRANCH   1   2
HETATM    2  C7  UNL     1      23.744   1.622  52.637  1.00  0.00    -0.006 A 
HETATM    3  C6  UNL     1      23.031   1.697  51.468  1.00  0.00     0.079 A 
HETATM    4  C4  UNL     1      22.016   0.798  51.205  1.00  0.00    -0.028 A 
HETATM    5  C3  UNL     1      21.669  -0.219  52.100  1.00  0.00     0.016 A 
HETATM    6  C5  UNL     1      21.261   0.922  49.915  1.00  0.00     0.051 C 
HETATM    7  C2  UNL     1      22.354  -0.332  53.280  1.00  0.00    -0.061 A 
HETATM    8  C1  UNL     1      22.074  -1.371  54.305  1.00  0.00     0.048 C 
HETATM    9  C16 UNL     1      23.356   0.588  53.498  1.00  0.00     0.018 A 
BRANCH   3  10
HETATM   10  O1  UNL     1      23.382   2.713  50.578  1.00  0.00    -0.360 OA
HETATM   11  H8  UNL     1      24.192   2.628  49.970  1.00  0.00     0.217 HD
ENDBRANCH   3  10
ENDBRANCH   1   2
BRANCH   1  12
HETATM   12  N1  UNL     1      26.092   1.955  52.550  1.00  0.00    -0.332 N 
BRANCH  12  13
HETATM   13  C9  UNL     1      26.657   2.530  51.382  1.00  0.00     0.477 C 
HETATM   14  O2  UNL     1      26.987   3.242  50.391  1.00  0.00    -0.392 OA
ENDBRANCH  12  13
BRANCH  12  15
HETATM   15  C10 UNL     1      27.034   0.935  52.843  1.00  0.00     0.036 A 
HETATM   16  C11 UNL     1      28.194   1.466  53.372  1.00  0.00     0.033 A 
HETATM   17  C12 UNL     1      29.263   0.641  53.734  1.00  0.00     0.044 A 
HETATM   18  C13 UNL     1      29.103  -0.736  53.535  1.00  0.00     0.116 A 
HETATM   19  F1  UNL     1      30.116  -1.564  53.874  1.00  0.00    -0.206 F 
HETATM   20  C14 UNL     1      27.923  -1.241  53.001  1.00  0.00     0.044 A 
HETATM   21  C15 UNL     1      26.870  -0.419  52.645  1.00  0.00     0.033 A 
ENDBRANCH  12  15
ENDBRANCH   1  12
TORSDOF 5
ENDMDL
MODEL 2
REMARK VINA RESULT:      -7.5      2.572      5.903
REMARK  5 active torsions:
REMARK  status: ('A' for Active; 'I' for Inactive)
REMARK    1  A    between atoms: C6_6  and  O1_7 
REMARK    2  A    between atoms: C7_8  and  C8_9 
REMARK    3  A    between atoms: C8_9  and  N1_10 
REMARK    4  A    between atoms: N1_10  and  C9_11 
REMARK    5  A    between atoms: N1_10  and  C10_13 
ROOT
HETATM    1  C8  UNL     1      25.776   1.089  51.595  1.00  0.00     0.172 C 
ENDROOT
BRANCH   1   2
HETATM    2  C7  UNL     1      26.967   0.683  52.396  1.00  0.00    -0.006 A 
HETATM    3  C6  UNL     1      27.786   1.535  53.092  1.00  0.00     0.079 A 
HETATM    4  C4  UNL     1      28.861   1.046  53.809  1.00  0.00    -0.028 A 
HETATM    5  C3  UNL     1      29.165  -0.318  53.862  1.00  0.00     0.016 A 
HETATM    6  C5  UNL     1      29.731   2.016  54.552  1.00  0.00     0.051 C 
HETATM    7  C2  UNL     1      28.375  -1.205  53.181  1.00  0.00    -0.061 A 
HETATM    8  C1  UNL     1      28.600  -2.674  53.166  1.00  0.00     0.048 C 
HETATM    9  C16 UNL     1      27.315  -0.670  52.481  1.00  0.00     0.018 A 
BRANCH   3  10
HETATM   10  O1  UNL     1      27.478   2.895  53.036  1.00  0.00    -0.360 OA
HETATM   11  H8  UNL     1      27.908   3.562  53.671  1.00  0.00     0.217 HD
ENDBRANCH   3  10
ENDBRANCH   1   2
BRANCH   1  12
HETATM   12  N1  UNL     1      24.640   1.138  52.475  1.00  0.00    -0.332 N 
BRANCH  12  13
HETATM   13  C9  UNL     1      24.193   2.424  52.878  1.00  0.00     0.477 C 
HETATM   14  O2  UNL     1      24.039   3.587  53.350  1.00  0.00    -0.392 OA
ENDBRANCH  12  13
BRANCH  12  15
HETATM   15  C10 UNL     1      23.714   0.297  53.146  1.00  0.00     0.036 A 
HETATM   16  C11 UNL     1      22.471   0.347  52.547  1.00  0.00     0.033 A 
HETATM   17  C12 UNL     1      21.402  -0.403  53.046  1.00  0.00     0.044 A 
HETATM   18  C13 UNL     1      21.651  -1.199  54.171  1.00  0.00     0.116 A 
HETATM   19  F1  UNL     1      20.640  -1.939  54.681  1.00  0.00    -0.206 F 
HETATM   20  C14 UNL     1      22.913  -1.229  54.752  1.00  0.00     0.044 A 
HETATM   21  C15 UNL     1      23.965  -0.483  54.254  1.00  0.00     0.033 A 
ENDBRANCH  12  15
ENDBRANCH   1  12
TORSDOF 5
ENDMDL
MODEL 3
REMARK VINA RESULT:      -7.4      3.046      5.705
REMARK  5 active torsions:
REMARK  status: ('A' for Active; 'I' for Inactive)
REMARK    1  A    between atoms: C6_6  and  O1_7 
REMARK    2  A    between atoms: C7_8  and  C8_9 
REMARK    3  A    between atoms: C8_9  and  N1_10 
REMARK    4  A    between atoms: N1_10  and  C9_11 
REMARK    5  A    between atoms: N1_10  and  C10_13 
ROOT
HETATM    1  C8  UNL     1      24.664   1.978  52.981  1.00  0.00     0.172 C 
ENDROOT
BRANCH   1   2
HETATM    2  C7  UNL     1      25.913   1.173  53.109  1.00  0.00    -0.006 A 
HETATM    3  C6  UNL     1      27.096   1.616  53.642  1.00  0.00     0.079 A 
HETATM    4  C4  UNL     1      28.190   0.778  53.718  1.00  0.00    -0.028 A 
HETATM    5  C3  UNL     1      28.152  -0.544  53.264  1.00  0.00     0.016 A 
HETATM    6  C5  UNL     1      29.464   1.309  54.306  1.00  0.00     0.051 C 
HETATM    7  C2  UNL     1      26.991  -1.030  52.723  1.00  0.00    -0.061 A 
HETATM    8  C1  UNL     1      26.832  -2.416  52.211  1.00  0.00     0.048 C 
HETATM    9  C16 UNL     1      25.927  -0.157  52.669  1.00  0.00     0.018 A 
BRANCH   3  10
HETATM   10  O1  UNL     1      27.129   2.936  54.094  1.00  0.00    -0.360 OA
HETATM   11  H8  UNL     1      27.390   3.162  55.050  1.00  0.00     0.217 HD
ENDBRANCH   3  10
ENDBRANCH   1   2
BRANCH   1  12
HETATM   12  N1  UNL     1      24.592   2.485  51.638  1.00  0.00    -0.332 N 
BRANCH  12  13
HETATM   13  C9  UNL     1      23.483   2.073  50.853  1.00  0.00     0.477 C 
HETATM   14  O2  UNL     1      22.578   1.460  50.218  1.00  0.00    -0.392 OA
ENDBRANCH  12  13
BRANCH  12  15
HETATM   15  C10 UNL     1      25.284   3.324  50.726  1.00  0.00     0.036 A 
HETATM   16  C11 UNL     1      24.609   4.514  50.536  1.00  0.00     0.033 A 
HETATM   17  C12 UNL     1      25.110   5.493  49.672  1.00  0.00     0.044 A 
HETATM   18  C13 UNL     1      26.316   5.212  49.017  1.00  0.00     0.116 A 
HETATM   19  F1  UNL     1      26.829   6.136  48.175  1.00  0.00    -0.206 F 
HETATM   20  C14 UNL     1      26.971   4.004  49.230  1.00  0.00     0.044 A 
HETATM   21  C15 UNL     1      26.470   3.041  50.085  1.00  0.00     0.033 A 
ENDBRANCH  12  15
ENDBRANCH   1  12
TORSDOF 5
ENDMDL
MODEL 4
REMARK VINA RESULT:      -7.3      1.109      2.191
REMARK  5 active torsions:
REMARK  status: ('A' for Active; 'I' for Inactive)
REMARK    1  A    between atoms: C6_6  and  O1_7 
REMARK    2  A    between atoms: C7_8  and  C8_9 
REMARK    3  A    between atoms: C8_9  and  N1_10 
REMARK    4  A    between atoms: N1_10  and  C9_11 
REMARK    5  A    between atoms: N1_10  and  C10_13 
ROOT
HETATM    1  C8  UNL     1      24.854   2.411  53.063  1.00  0.00     0.172 C 
ENDROOT
BRANCH   1   2
HETATM    2  C7  UNL     1      23.746   1.510  52.635  1.00  0.00    -0.006 A 
HETATM    3  C6  UNL     1      23.327   0.388  53.303  1.00  0.00     0.079 A 
HETATM    4  C4  UNL     1      22.281  -0.370  52.817  1.00  0.00    -0.028 A 
HETATM    5  C3  UNL     1      21.605  -0.041  51.638  1.00  0.00     0.016 A 
HETATM    6  C5  UNL     1      21.861  -1.591  53.580  1.00  0.00     0.051 C 
HETATM    7  C2  UNL     1      21.988   1.071  50.937  1.00  0.00    -0.061 A 
HETATM    8  C1  UNL     1      21.343   1.520  49.676  1.00  0.00     0.048 C 
HETATM    9  C16 UNL     1      23.036   1.795  51.462  1.00  0.00     0.018 A 
BRANCH   3  10
HETATM   10  O1  UNL     1      24.006   0.064  54.479  1.00  0.00    -0.360 OA
HETATM   11  H8  UNL     1      24.582   0.747  54.964  1.00  0.00     0.217 HD
ENDBRANCH   3  10
ENDBRANCH   1   2
BRANCH   1  12
HETATM   12  N1  UNL     1      26.089   1.875  52.560  1.00  0.00    -0.332 N 
BRANCH  12  13
HETATM   13  C9  UNL     1      26.588   2.431  51.353  1.00  0.00     0.477 C 
HETATM   14  O2  UNL     1      27.055   3.150  50.425  1.00  0.00    -0.392 OA
ENDBRANCH  12  13
BRANCH  12  15
HETATM   15  C10 UNL     1      27.085   0.908  52.856  1.00  0.00     0.036 A 
HETATM   16  C11 UNL     1      28.201   1.498  53.415  1.00  0.00     0.033 A 
HETATM   17  C12 UNL     1      29.311   0.731  53.784  1.00  0.00     0.044 A 
HETATM   18  C13 UNL     1      29.236  -0.650  53.560  1.00  0.00     0.116 A 
HETATM   19  F1  UNL     1      30.290  -1.422  53.905  1.00  0.00    -0.206 F 
HETATM   20  C14 UNL     1      28.098  -1.214  52.995  1.00  0.00     0.044 A 
HETATM   21  C15 UNL     1      27.005  -0.450  52.633  1.00  0.00     0.033 A 
ENDBRANCH  12  15
ENDBRANCH   1  12
TORSDOF 5
ENDMDL
MODEL 5
REMARK VINA RESULT:      -7.1      3.234      5.146
REMARK  5 active torsions:
REMARK  status: ('A' for Active; 'I' for Inactive)
REMARK    1  A    between atoms: C6_6  and  O1_7 
REMARK    2  A    between atoms: C7_8  and  C8_9 
REMARK    3  A    between atoms: C8_9  and  N1_10 
REMARK    4  A    between atoms: N1_10  and  C9_11 
REMARK    5  A    between atoms: N1_10  and  C10_13 
ROOT
HETATM    1  C8  UNL     1      24.047   3.532  52.578  1.00  0.00     0.172 C 
ENDROOT
BRANCH   1   2
HETATM    2  C7  UNL     1      24.403   2.169  53.067  1.00  0.00    -0.006 A 
HETATM    3  C6  UNL     1      25.604   1.812  53.627  1.00  0.00     0.079 A 
HETATM    4  C4  UNL     1      25.821   0.517  54.055  1.00  0.00    -0.028 A 
HETATM    5  C3  UNL     1      24.848  -0.481  53.942  1.00  0.00     0.016 A 
HETATM    6  C5  UNL     1      27.152   0.173  54.657  1.00  0.00     0.051 C 
HETATM    7  C2  UNL     1      23.635  -0.170  53.389  1.00  0.00    -0.061 A 
HETATM    8  C1  UNL     1      22.527  -1.145  53.221  1.00  0.00     0.048 C 
HETATM    9  C16 UNL     1      23.464   1.134  52.978  1.00  0.00     0.018 A 
BRANCH   3  10
HETATM   10  O1  UNL     1      26.571   2.811  53.737  1.00  0.00    -0.360 OA
HETATM   11  H8  UNL     1      26.327   3.756  54.021  1.00  0.00     0.217 HD
ENDBRANCH   3  10
ENDBRANCH   1   2
BRANCH   1  12
HETATM   12  N1  UNL     1      24.405   3.617  51.188  1.00  0.00    -0.332 N 
BRANCH  12  13
HETATM   13  C9  UNL     1      23.551   2.963  50.261  1.00  0.00     0.477 C 
HETATM   14  O2  UNL     1      22.743   2.215  49.642  1.00  0.00    -0.392 OA
ENDBRANCH  12  13
BRANCH  12  15
HETATM   15  C10 UNL     1      25.386   4.168  50.323  1.00  0.00     0.036 A 
HETATM   16  C11 UNL     1      25.123   5.497  50.055  1.00  0.00     0.033 A 
HETATM   17  C12 UNL     1      25.961   6.242  49.220  1.00  0.00     0.044 A 
HETATM   18  C13 UNL     1      27.070   5.582  48.674  1.00  0.00     0.116 A 
HETATM   19  F1  UNL     1      27.903   6.271  47.863  1.00  0.00    -0.206 F 
HETATM   20  C14 UNL     1      27.309   4.243  48.964  1.00  0.00     0.044 A 
HETATM   21  C15 UNL     1      26.475   3.513  49.790  1.00  0.00     0.033 A 
ENDBRANCH  12  15
ENDBRANCH   1  12
TORSDOF 5
ENDMDL
MODEL 6
REMARK VINA RESULT:      -7.1      2.676      6.051
REMARK  5 active torsions:
REMARK  status: ('A' for Active; 'I' for Inactive)
REMARK    1  A    between atoms: C6_6  and  O1_7 
REMARK    2  A    between atoms: C7_8  and  C8_9 
REMARK    3  A    between atoms: C8_9  and  N1_10 
REMARK    4  A    between atoms: N1_10  and  C9_11 
REMARK    5  A    between atoms: N1_10  and  C10_13 
ROOT
HETATM    1  C8  UNL     1      26.000   1.162  51.693  1.00  0.00     0.172 C 
ENDROOT
BRANCH   1   2
HETATM    2  C7  UNL     1      27.170   0.627  52.447  1.00  0.00    -0.006 A 
HETATM    3  C6  UNL     1      27.545  -0.691  52.504  1.00  0.00     0.079 A 
HETATM    4  C4  UNL     1      28.656  -1.074  53.229  1.00  0.00    -0.028 A 
HETATM    5  C3  UNL     1      29.442  -0.155  53.932  1.00  0.00     0.016 A 
HETATM    6  C5  UNL     1      29.026  -2.527  53.265  1.00  0.00     0.051 C 
HETATM    7  C2  UNL     1      29.104   1.171  53.904  1.00  0.00    -0.061 A 
HETATM    8  C1  UNL     1      29.865   2.235  54.609  1.00  0.00     0.048 C 
HETATM    9  C16 UNL     1      27.989   1.504  53.167  1.00  0.00     0.018 A 
BRANCH   3  10
HETATM   10  O1  UNL     1      26.757  -1.603  51.801  1.00  0.00    -0.360 OA
HETATM   11  H8  UNL     1      27.137  -2.150  51.032  1.00  0.00     0.217 HD
ENDBRANCH   3  10
ENDBRANCH   1   2
BRANCH   1  12
HETATM   12  N1  UNL     1      24.876   1.217  52.587  1.00  0.00    -0.332 N 
BRANCH  12  13
HETATM   13  C9  UNL     1      24.531   2.491  53.112  1.00  0.00     0.477 C 
HETATM   14  O2  UNL     1      24.032   3.618  53.391  1.00  0.00    -0.392 OA
ENDBRANCH  12  13
BRANCH  12  15
HETATM   15  C10 UNL     1      23.893   0.391  53.192  1.00  0.00     0.036 A 
HETATM   16  C11 UNL     1      22.707   0.430  52.485  1.00  0.00     0.033 A 
HETATM   17  C12 UNL     1      21.596  -0.308  52.903  1.00  0.00     0.044 A 
HETATM   18  C13 UNL     1      21.742  -1.083  54.061  1.00  0.00     0.116 A 
HETATM   19  F1  UNL     1      20.689  -1.810  54.494  1.00  0.00    -0.206 F 
HETATM   20  C14 UNL     1      22.950  -1.102  54.751  1.00  0.00     0.044 A 
HETATM   21  C15 UNL     1      24.043  -0.368  54.332  1.00  0.00     0.033 A 
ENDBRANCH  12  15
ENDBRANCH   1  12
TORSDOF 5
ENDMDL
MODEL 7
REMARK VINA RESULT:      -6.9      3.297      5.114
REMARK  5 active torsions:
REMARK  status: ('A' for Active; 'I' for Inactive)
REMARK    1  A    between atoms: C6_6  and  O1_7 
REMARK    2  A    between atoms: C7_8  and  C8_9 
REMARK    3  A    between atoms: C8_9  and  N1_10 
REMARK    4  A    between atoms: N1_10  and  C9_11 
REMARK    5  A    between atoms: N1_10  and  C10_13 
ROOT
HETATM    1  C8  UNL     1      23.983   3.510  52.263  1.00  0.00     0.172 C 
ENDROOT
BRANCH   1   2
HETATM    2  C7  UNL     1      24.220   2.084  52.629  1.00  0.00    -0.006 A 
HETATM    3  C6  UNL     1      23.250   1.179  52.977  1.00  0.00     0.079 A 
HETATM    4  C4  UNL     1      23.584  -0.123  53.290  1.00  0.00    -0.028 A 
HETATM    5  C3  UNL     1      24.906  -0.581  53.269  1.00  0.00     0.016 A 
HETATM    6  C5  UNL     1      22.489  -1.076  53.668  1.00  0.00     0.051 C 
HETATM    7  C2  UNL     1      25.907   0.288  52.927  1.00  0.00    -0.061 A 
HETATM    8  C1  UNL     1      27.344  -0.086  52.869  1.00  0.00     0.048 C 
HETATM    9  C16 UNL     1      25.525   1.576  52.624  1.00  0.00     0.018 A 
BRANCH   3  10
HETATM   10  O1  UNL     1      21.933   1.641  52.996  1.00  0.00    -0.360 OA
HETATM   11  H8  UNL     1      21.632   2.355  53.654  1.00  0.00     0.217 HD
ENDBRANCH   3  10
ENDBRANCH   1   2
BRANCH   1  12
HETATM   12  N1  UNL     1      24.371   3.693  50.891  1.00  0.00    -0.332 N 
BRANCH  12  13
HETATM   13  C9  UNL     1      23.509   3.152  49.901  1.00  0.00     0.477 C 
HETATM   14  O2  UNL     1      22.922   2.472  49.012  1.00  0.00    -0.392 OA
ENDBRANCH  12  13
BRANCH  12  15
HETATM   15  C10 UNL     1      25.390   4.270  50.090  1.00  0.00     0.036 A 
HETATM   16  C11 UNL     1      25.087   5.577  49.764  1.00  0.00     0.033 A 
HETATM   17  C12 UNL     1      25.953   6.340  48.975  1.00  0.00     0.044 A 
HETATM   18  C13 UNL     1      27.130   5.722  48.536  1.00  0.00     0.116 A 
HETATM   19  F1  UNL     1      27.991   6.431  47.772  1.00  0.00    -0.206 F 
HETATM   20  C14 UNL     1      27.408   4.404  48.881  1.00  0.00     0.044 A 
HETATM   21  C15 UNL     1      26.547   3.655  49.661  1.00  0.00     0.033 A 
ENDBRANCH  12  15
ENDBRANCH   1  12
TORSDOF 5
ENDMDL
MODEL 8
REMARK VINA RESULT:      -6.8      3.346      5.024
REMARK  5 active torsions:
REMARK  status: ('A' for Active; 'I' for Inactive)
REMARK    1  A    between atoms: C6_6  and  O1_7 
REMARK    2  A    between atoms: C7_8  and  C8_9 
REMARK    3  A    between atoms: C8_9  and  N1_10 
REMARK    4  A    between atoms: N1_10  and  C9_11 
REMARK    5  A    between atoms: N1_10  and  C10_13 
ROOT
HETATM    1  C8  UNL     1      23.530   4.396  52.469  1.00  0.00     0.172 C 
ENDROOT
BRANCH   1   2
HETATM    2  C7  UNL     1      23.573   2.915  52.641  1.00  0.00    -0.006 A 
HETATM    3  C6  UNL     1      24.630   2.202  53.148  1.00  0.00     0.079 A 
HETATM    4  C4  UNL     1      24.556   0.829  53.270  1.00  0.00    -0.028 A 
HETATM    5  C3  UNL     1      23.421   0.105  52.891  1.00  0.00     0.016 A 
HETATM    6  C5  UNL     1      25.738   0.092  53.827  1.00  0.00     0.051 C 
HETATM    7  C2  UNL     1      22.343   0.775  52.380  1.00  0.00    -0.061 A 
HETATM    8  C1  UNL     1      21.085   0.113  51.946  1.00  0.00     0.048 C 
HETATM    9  C16 UNL     1      22.463   2.143  52.277  1.00  0.00     0.018 A 
BRANCH   3  10
HETATM   10  O1  UNL     1      25.759   2.930  53.525  1.00  0.00    -0.360 OA
HETATM   11  H8  UNL     1      25.679   3.818  54.012  1.00  0.00     0.217 HD
ENDBRANCH   3  10
ENDBRANCH   1   2
BRANCH   1  12
HETATM   12  N1  UNL     1      23.960   4.705  51.133  1.00  0.00    -0.332 N 
BRANCH  12  13
HETATM   13  C9  UNL     1      22.963   5.141  50.220  1.00  0.00     0.477 C 
HETATM   14  O2  UNL     1      22.012   5.701  49.604  1.00  0.00    -0.392 OA
ENDBRANCH  12  13
BRANCH  12  15
HETATM   15  C10 UNL     1      25.121   4.741  50.317  1.00  0.00     0.036 A 
HETATM   16  C11 UNL     1      25.370   6.021  49.863  1.00  0.00     0.033 A 
HETATM   17  C12 UNL     1      26.466   6.290  49.037  1.00  0.00     0.044 A 
HETATM   18  C13 UNL     1      27.290   5.210  48.697  1.00  0.00     0.116 A 
HETATM   19  F1  UNL     1      28.360   5.433  47.901  1.00  0.00    -0.206 F 
HETATM   20  C14 UNL     1      27.013   3.932  49.171  1.00  0.00     0.044 A 
HETATM   21  C15 UNL     1      25.927   3.674  49.986  1.00  0.00     0.033 A 
ENDBRANCH  12  15
ENDBRANCH   1  12
TORSDOF 5
ENDMDL
MODEL 9
REMARK VINA RESULT:      -6.8      3.580      5.848
REMARK  5 active torsions:
REMARK  status: ('A' for Active; 'I' for Inactive)
REMARK    1  A    between atoms: C6_6  and  O1_7 
REMARK    2  A    between atoms: C7_8  and  C8_9 
REMARK    3  A    between atoms: C8_9  and  N1_10 
REMARK    4  A    between atoms: N1_10  and  C9_11 
REMARK    5  A    between atoms: N1_10  and  C10_13 
ROOT
HETATM    1  C8  UNL     1      24.274   3.572  52.509  1.00  0.00     0.172 C 
ENDROOT
BRANCH   1   2
HETATM    2  C7  UNL     1      24.540   2.203  53.038  1.00  0.00    -0.006 A 
HETATM    3  C6  UNL     1      25.682   1.807  53.685  1.00  0.00     0.079 A 
HETATM    4  C4  UNL     1      25.817   0.510  54.142  1.00  0.00    -0.028 A 
HETATM    5  C3  UNL     1      24.815  -0.450  53.971  1.00  0.00     0.016 A 
HETATM    6  C5  UNL     1      27.087   0.122  54.840  1.00  0.00     0.051 C 
HETATM    7  C2  UNL     1      23.657  -0.099  53.330  1.00  0.00    -0.061 A 
HETATM    8  C1  UNL     1      22.525  -1.032  53.095  1.00  0.00     0.048 C 
HETATM    9  C16 UNL     1      23.568   1.205  52.893  1.00  0.00     0.018 A 
BRANCH   3  10
HETATM   10  O1  UNL     1      26.679   2.769  53.853  1.00  0.00    -0.360 OA
HETATM   11  H8  UNL     1      26.814   3.243  54.742  1.00  0.00     0.217 HD
ENDBRANCH   3  10
ENDBRANCH   1   2
BRANCH   1  12
HETATM   12  N1  UNL     1      24.439   3.542  51.082  1.00  0.00    -0.332 N 
BRANCH  12  13
HETATM   13  C9  UNL     1      25.758   3.354  50.590  1.00  0.00     0.477 C 
HETATM   14  O2  UNL     1      27.004   3.276  50.395  1.00  0.00    -0.392 OA
ENDBRANCH  12  13
BRANCH  12  15
HETATM   15  C10 UNL     1      23.701   3.637  49.873  1.00  0.00     0.036 A 
HETATM   16  C11 UNL     1      23.169   2.413  49.518  1.00  0.00     0.033 A 
HETATM   17  C12 UNL     1      22.404   2.273  48.356  1.00  0.00     0.044 A 
HETATM   18  C13 UNL     1      22.205   3.421  47.578  1.00  0.00     0.116 A 
HETATM   19  F1  UNL     1      21.470   3.322  46.448  1.00  0.00    -0.206 F 
HETATM   20  C14 UNL     1      22.754   4.639  47.963  1.00  0.00     0.044 A 
HETATM   21  C15 UNL     1      23.510   4.770  49.113  1.00  0.00     0.033 A 
ENDBRANCH  12  15
ENDBRANCH   1  12
TORSDOF 5
ENDMDL
