MODEL 1
REMARK VINA RESULT:      -7.8      0.000      0.000
REMARK  4 active torsions:
REMARK  status: ('A' for Active; 'I' for Inactive)
REMARK    1  A    between atoms: N1_1  and  C1_2 
REMARK    2  A    between atoms: N2_6  and  C5_7 
REMARK    3  A    between atoms: C7_9  and  C8_10 
REMARK    4  A    between atoms: C8_10  and  N3_11 
ROOT
HETATM    1  C1  UNL     1      33.930   8.172  47.292  1.00  0.00     0.123 C 
HETATM    2  C2  UNL     1      33.557   8.034  45.985  1.00  0.00     0.059 C 
HETATM    3  C3  UNL     1      32.498   7.316  45.477  1.00  0.00    -0.025 C 
HETATM    4  C4  UNL     1      31.353   7.241  46.237  1.00  0.00     0.101 C 
HETATM    5  N2  UNL     1      31.396   6.607  47.419  1.00  0.00    -0.336 N 
HETATM    6  C13 UNL     1      32.493   5.931  47.796  1.00  0.00     0.140 C 
HETATM    7  N4  UNL     1      33.099   6.201  48.964  1.00  0.00    -0.224 NA
HETATM    8  C14 UNL     1      33.073   7.495  49.348  1.00  0.00     0.237 C 
HETATM    9  N5  UNL     1      33.517   8.485  48.523  1.00  0.00    -0.225 NA
HETATM   10  C15 UNL     1      33.257   4.831  47.163  1.00  0.00     0.020 A 
HETATM   11  C16 UNL     1      32.862   3.597  47.555  1.00  0.00     0.014 A 
HETATM   12  C17 UNL     1      33.664   2.542  46.884  1.00  0.00    -0.000 A 
HETATM   13  C18 UNL     1      34.506   3.218  46.122  1.00  0.00     0.010 A 
HETATM   14  C19 UNL     1      34.368   4.696  46.203  1.00  0.00     0.181 A 
HETATM   15  O1  UNL     1      34.247   5.343  45.020  1.00  0.00    -0.371 OA
HETATM   16  C20 UNL     1      33.088   5.218  44.315  1.00  0.00     0.138 C 
HETATM   17  C21 UNL     1      33.290   4.653  42.925  1.00  0.00     0.033 C 
HETATM   18  C22 UNL     1      32.617   5.468  41.849  1.00  0.00     0.010 C 
HETATM   19  C23 UNL     1      33.241   6.850  41.731  1.00  0.00     0.079 C 
HETATM   20  C24 UNL     1      33.191   7.421  43.122  1.00  0.00     0.138 C 
HETATM   21  O2  UNL     1      33.787   8.499  42.977  1.00  0.00    -0.297 OA
HETATM   22  C25 UNL     1      32.512   6.621  44.173  1.00  0.00     0.118 C 
ENDROOT
BRANCH   5  23
HETATM   23  C5  UNL     1      30.336   6.567  48.375  1.00  0.00     0.092 C 
HETATM   24  C6  UNL     1      29.204   5.574  48.085  1.00  0.00     0.032 C 
HETATM   25  C7  UNL     1      28.283   6.674  47.735  1.00  0.00     0.018 C 
HETATM   26  C12 UNL     1      29.317   7.658  48.315  1.00  0.00     0.032 C 
BRANCH  25  27
HETATM   27  C8  UNL     1      26.959   6.846  48.398  1.00  0.00     0.277 C 
BRANCH  27  28
HETATM   28  N3  UNL     1      25.958   7.432  47.582  1.00  0.00     0.088 N 
HETATM   29  C9  UNL     1      25.634   8.798  48.020  1.00  0.00     0.274 C 
HETATM   30  C10 UNL     1      24.691   8.221  49.029  1.00  0.00     0.060 C 
HETATM   31  C11 UNL     1      24.615   7.077  48.035  1.00  0.00     0.274 C 
ENDBRANCH  27  28
ENDBRANCH  25  27
ENDBRANCH   5  23
BRANCH   1  32
HETATM   32  N1  UNL     1      35.329   7.880  47.497  1.00  0.00    -0.384 N 
HETATM   33  H1  UNL     1      36.139   7.387  47.890  1.00  0.00     0.157 HD
HETATM   34  H2  UNL     1      36.339   8.061  47.314  1.00  0.00     0.157 HD
ENDBRANCH   1  32
TORSDOF 4
ENDMDL
MODEL 2
REMARK VINA RESULT:      -7.7      2.779      7.114
REMARK  4 active torsions:
REMARK  status: ('A' for Active; 'I' for Inactive)
REMARK    1  A    between atoms: N1_1  and  C1_2 
REMARK    2  A    between atoms: N2_6  and  C5_7 
REMARK    3  A    between atoms: C7_9  and  C8_10 
REMARK    4  A    between atoms: C8_10  and  N3_11 
ROOT
HETATM    1  C1  UNL     1      31.618   5.977  49.108  1.00  0.00     0.123 C 
HETATM    2  C2  UNL     1      30.338   6.067  48.637  1.00  0.00     0.059 C 
HETATM    3  C3  UNL     1      29.898   6.694  47.494  1.00  0.00    -0.025 C 
HETATM    4  C4  UNL     1      30.734   6.692  46.401  1.00  0.00     0.101 C 
HETATM    5  N2  UNL     1      31.904   7.346  46.475  1.00  0.00    -0.336 N 
HETATM    6  C13 UNL     1      32.197   8.109  47.540  1.00  0.00     0.140 C 
HETATM    7  N4  UNL     1      33.324   7.904  48.243  1.00  0.00    -0.224 NA
HETATM    8  C14 UNL     1      33.721   6.617  48.343  1.00  0.00     0.237 C 
HETATM    9  N5  UNL     1      32.877   5.652  48.805  1.00  0.00    -0.225 NA
HETATM   10  C15 UNL     1      31.502   9.255  48.171  1.00  0.00     0.020 A 
HETATM   11  C16 UNL     1      31.909  10.460  47.710  1.00  0.00     0.014 A 
HETATM   12  C17 UNL     1      31.174  11.564  48.381  1.00  0.00    -0.000 A 
HETATM   13  C18 UNL     1      30.363  10.943  49.219  1.00  0.00     0.010 A 
HETATM   14  C19 UNL     1      30.467   9.459  49.201  1.00  0.00     0.181 A 
HETATM   15  O1  UNL     1      29.301   8.788  49.051  1.00  0.00    -0.371 OA
HETATM   16  C20 UNL     1      28.676   8.813  47.840  1.00  0.00     0.138 C 
HETATM   17  C21 UNL     1      27.271   9.370  47.902  1.00  0.00     0.033 C 
HETATM   18  C22 UNL     1      26.251   8.491  47.223  1.00  0.00     0.010 C 
HETATM   19  C23 UNL     1      26.104   7.158  47.942  1.00  0.00     0.079 C 
HETATM   20  C24 UNL     1      27.501   6.607  48.031  1.00  0.00     0.138 C 
HETATM   21  O2  UNL     1      27.326   5.575  48.697  1.00  0.00    -0.297 OA
HETATM   22  C25 UNL     1      28.589   7.368  47.365  1.00  0.00     0.118 C 
ENDROOT
BRANCH   5  23
HETATM   23  C5  UNL     1      32.930   7.318  45.482  1.00  0.00     0.092 C 
HETATM   24  C6  UNL     1      32.597   8.001  44.150  1.00  0.00     0.032 C 
HETATM   25  C7  UNL     1      32.487   6.695  43.470  1.00  0.00     0.018 C 
HETATM   26  C12 UNL     1      33.113   6.048  44.720  1.00  0.00     0.032 C 
BRANCH  25  27
HETATM   27  C8  UNL     1      33.278   6.363  42.250  1.00  0.00     0.277 C 
BRANCH  27  28
HETATM   28  N3  UNL     1      32.594   5.561  41.300  1.00  0.00     0.088 N 
HETATM   29  C9  UNL     1      33.022   4.156  41.373  1.00  0.00     0.274 C 
HETATM   30  C10 UNL     1      34.180   4.492  40.485  1.00  0.00     0.060 C 
HETATM   31  C11 UNL     1      33.253   5.589  39.997  1.00  0.00     0.274 C 
ENDBRANCH  27  28
ENDBRANCH  25  27
ENDBRANCH   5  23
BRANCH   1  32
HETATM   32  N1  UNL     1      31.723   6.378  50.491  1.00  0.00    -0.384 N 
HETATM   33  H1  UNL     1      31.438   6.848  51.358  1.00  0.00     0.157 HD
HETATM   34  H2  UNL     1      32.217   6.383  51.408  1.00  0.00     0.157 HD
ENDBRANCH   1  32
TORSDOF 4
ENDMDL
MODEL 3
REMARK VINA RESULT:      -7.7      9.781     12.679
REMARK  4 active torsions:
REMARK  status: ('A' for Active; 'I' for Inactive)
REMARK    1  A    between atoms: N1_1  and  C1_2 
REMARK    2  A    between atoms: N2_6  and  C5_7 
REMARK    3  A    between atoms: C7_9  and  C8_10 
REMARK    4  A    between atoms: C8_10  and  N3_11 
ROOT
HETATM    1  C1  UNL     1      21.121   6.184  50.745  1.00  0.00     0.123 C 
HETATM    2  C2  UNL     1      20.272   5.211  51.191  1.00  0.00     0.059 C 
HETATM    3  C3  UNL     1      20.585   3.934  51.598  1.00  0.00    -0.025 C 
HETATM    4  C4  UNL     1      21.791   3.742  52.232  1.00  0.00     0.101 C 
HETATM    5  N2  UNL     1      22.927   3.952  51.548  1.00  0.00    -0.336 N 
HETATM    6  C13 UNL     1      22.897   4.204  50.229  1.00  0.00     0.140 C 
HETATM    7  N4  UNL     1      23.480   5.306  49.728  1.00  0.00    -0.224 NA
HETATM    8  C14 UNL     1      23.427   6.402  50.514  1.00  0.00     0.237 C 
HETATM    9  N5  UNL     1      22.242   6.863  51.002  1.00  0.00    -0.225 NA
HETATM   10  C15 UNL     1      22.327   3.461  49.082  1.00  0.00     0.020 A 
HETATM   11  C16 UNL     1      23.205   2.622  48.485  1.00  0.00     0.014 A 
HETATM   12  C17 UNL     1      22.571   1.908  47.346  1.00  0.00    -0.000 A 
HETATM   13  C18 UNL     1      21.335   2.374  47.326  1.00  0.00     0.010 A 
HETATM   14  C19 UNL     1      21.034   3.383  48.376  1.00  0.00     0.181 A 
HETATM   15  O1  UNL     1      19.932   3.145  49.125  1.00  0.00    -0.371 OA
HETATM   16  C20 UNL     1      19.958   2.129  50.032  1.00  0.00     0.138 C 
HETATM   17  C21 UNL     1      18.886   1.088  49.797  1.00  0.00     0.033 C 
HETATM   18  C22 UNL     1      18.092   0.761  51.037  1.00  0.00     0.010 C 
HETATM   19  C23 UNL     1      17.283   1.960  51.508  1.00  0.00     0.079 C 
HETATM   20  C24 UNL     1      18.281   3.078  51.636  1.00  0.00     0.138 C 
HETATM   21  O2  UNL     1      17.553   4.037  51.934  1.00  0.00    -0.297 OA
HETATM   22  C25 UNL     1      19.712   2.758  51.398  1.00  0.00     0.118 C 
ENDROOT
BRANCH   5  23
HETATM   23  C5  UNL     1      24.242   3.930  52.103  1.00  0.00     0.092 C 
HETATM   24  C6  UNL     1      25.170   2.820  51.595  1.00  0.00     0.032 C 
HETATM   25  C7  UNL     1      25.070   2.101  52.881  1.00  0.00     0.018 C 
HETATM   26  C12 UNL     1      24.399   3.355  53.472  1.00  0.00     0.032 C 
BRANCH  25  27
HETATM   27  C8  UNL     1      26.272   1.719  53.675  1.00  0.00     0.277 C 
BRANCH  27  28
HETATM   28  N3  UNL     1      26.274   0.379  54.141  1.00  0.00     0.088 N 
HETATM   29  C9  UNL     1      27.500  -0.329  53.745  1.00  0.00     0.274 C 
HETATM   30  C10 UNL     1      26.867  -0.628  52.422  1.00  0.00     0.060 C 
HETATM   31  C11 UNL     1      25.580  -0.515  53.218  1.00  0.00     0.274 C 
ENDBRANCH  27  28
ENDBRANCH  25  27
ENDBRANCH   5  23
BRANCH   1  32
HETATM   32  N1  UNL     1      20.690   6.756  49.492  1.00  0.00    -0.384 N 
HETATM   33  H1  UNL     1      20.129   7.354  48.874  1.00  0.00     0.157 HD
HETATM   34  H2  UNL     1      20.754   6.844  48.455  1.00  0.00     0.157 HD
ENDBRANCH   1  32
TORSDOF 4
ENDMDL
MODEL 4
REMARK VINA RESULT:      -7.5      3.513      7.507
REMARK  4 active torsions:
REMARK  status: ('A' for Active; 'I' for Inactive)
REMARK    1  A    between atoms: N1_1  and  C1_2 
REMARK    2  A    between atoms: N2_6  and  C5_7 
REMARK    3  A    between atoms: C7_9  and  C8_10 
REMARK    4  A    between atoms: C8_10  and  N3_11 
ROOT
HETATM    1  C1  UNL     1      30.219  11.446  48.501  1.00  0.00     0.123 C 
HETATM    2  C2  UNL     1      29.392  10.486  49.012  1.00  0.00     0.059 C 
HETATM    3  C3  UNL     1      29.320   9.156  48.663  1.00  0.00    -0.025 C 
HETATM    4  C4  UNL     1      30.486   8.530  48.286  1.00  0.00     0.101 C 
HETATM    5  N2  UNL     1      31.109   8.932  47.167  1.00  0.00    -0.336 N 
HETATM    6  C13 UNL     1      30.537   9.830  46.348  1.00  0.00     0.140 C 
HETATM    7  N4  UNL     1      31.182  10.959  46.009  1.00  0.00    -0.224 NA
HETATM    8  C14 UNL     1      31.971  11.490  46.968  1.00  0.00     0.237 C 
HETATM    9  N5  UNL     1      31.484  11.763  48.211  1.00  0.00    -0.225 NA
HETATM   10  C15 UNL     1      29.232   9.857  45.648  1.00  0.00     0.020 A 
HETATM   11  C16 UNL     1      29.276   9.353  44.393  1.00  0.00     0.014 A 
HETATM   12  C17 UNL     1      27.939   9.407  43.749  1.00  0.00    -0.000 A 
HETATM   13  C18 UNL     1      27.164   9.952  44.669  1.00  0.00     0.010 A 
HETATM   14  C19 UNL     1      27.856  10.301  45.938  1.00  0.00     0.181 A 
HETATM   15  O1  UNL     1      27.280   9.837  47.071  1.00  0.00    -0.371 OA
HETATM   16  C20 UNL     1      27.338   8.503  47.343  1.00  0.00     0.138 C 
HETATM   17  C21 UNL     1      25.976   7.862  47.494  1.00  0.00     0.033 C 
HETATM   18  C22 UNL     1      25.844   7.034  48.747  1.00  0.00     0.010 C 
HETATM   19  C23 UNL     1      25.936   7.900  49.995  1.00  0.00     0.079 C 
HETATM   20  C24 UNL     1      27.219   8.670  49.841  1.00  0.00     0.138 C 
HETATM   21  O2  UNL     1      27.190   9.413  50.834  1.00  0.00    -0.297 OA
HETATM   22  C25 UNL     1      28.075   8.360  48.668  1.00  0.00     0.118 C 
ENDROOT
BRANCH   5  23
HETATM   23  C5  UNL     1      32.388   8.479  46.724  1.00  0.00     0.092 C 
HETATM   24  C6  UNL     1      32.384   7.506  45.539  1.00  0.00     0.032 C 
HETATM   25  C7  UNL     1      32.757   6.380  46.419  1.00  0.00     0.018 C 
HETATM   26  C12 UNL     1      33.051   7.409  47.527  1.00  0.00     0.032 C 
BRANCH  25  27
HETATM   27  C8  UNL     1      33.951   5.527  46.157  1.00  0.00     0.277 C 
BRANCH  27  28
HETATM   28  N3  UNL     1      33.677   4.139  46.049  1.00  0.00     0.088 N 
HETATM   29  C9  UNL     1      33.316   3.557  47.351  1.00  0.00     0.274 C 
HETATM   30  C10 UNL     1      34.773   3.402  47.654  1.00  0.00     0.060 C 
HETATM   31  C11 UNL     1      34.895   3.338  46.143  1.00  0.00     0.274 C 
ENDBRANCH  27  28
ENDBRANCH  25  27
ENDBRANCH   5  23
BRANCH   1  32
HETATM   32  N1  UNL     1      29.498  12.627  48.089  1.00  0.00    -0.384 N 
HETATM   33  H1  UNL     1      28.674  13.191  47.850  1.00  0.00     0.157 HD
HETATM   34  H2  UNL     1      29.470  13.625  47.790  1.00  0.00     0.157 HD
ENDBRANCH   1  32
TORSDOF 4
ENDMDL
MODEL 5
REMARK VINA RESULT:      -7.3      9.312     12.601
REMARK  4 active torsions:
REMARK  status: ('A' for Active; 'I' for Inactive)
REMARK    1  A    between atoms: N1_1  and  C1_2 
REMARK    2  A    between atoms: N2_6  and  C5_7 
REMARK    3  A    between atoms: C7_9  and  C8_10 
REMARK    4  A    between atoms: C8_10  and  N3_11 
ROOT
HETATM    1  C1  UNL     1      18.317   3.050  49.649  1.00  0.00     0.123 C 
HETATM    2  C2  UNL     1      19.006   3.129  48.472  1.00  0.00     0.059 C 
HETATM    3  C3  UNL     1      20.370   3.154  48.289  1.00  0.00    -0.025 C 
HETATM    4  C4  UNL     1      21.147   2.434  49.168  1.00  0.00     0.101 C 
HETATM    5  N2  UNL     1      21.175   2.797  50.460  1.00  0.00    -0.336 N 
HETATM    6  C13 UNL     1      20.573   3.926  50.869  1.00  0.00     0.140 C 
HETATM    7  N4  UNL     1      19.658   3.898  51.853  1.00  0.00    -0.224 NA
HETATM    8  C14 UNL     1      18.880   2.796  51.894  1.00  0.00     0.237 C 
HETATM    9  N5  UNL     1      18.182   2.384  50.799  1.00  0.00    -0.225 NA
HETATM   10  C15 UNL     1      20.713   5.341  50.455  1.00  0.00     0.020 A 
HETATM   11  C16 UNL     1      21.609   6.038  51.191  1.00  0.00     0.014 A 
HETATM   12  C17 UNL     1      21.702   7.446  50.724  1.00  0.00    -0.000 A 
HETATM   13  C18 UNL     1      20.841   7.508  49.725  1.00  0.00     0.010 A 
HETATM   14  C19 UNL     1      20.126   6.236  49.441  1.00  0.00     0.181 A 
HETATM   15  O1  UNL     1      20.154   5.818  48.154  1.00  0.00    -0.371 OA
HETATM   16  C20 UNL     1      21.322   5.339  47.641  1.00  0.00     0.138 C 
HETATM   17  C21 UNL     1      21.803   6.106  46.428  1.00  0.00     0.033 C 
HETATM   18  C22 UNL     1      22.157   5.216  45.263  1.00  0.00     0.010 C 
HETATM   19  C23 UNL     1      20.930   4.494  44.726  1.00  0.00     0.079 C 
HETATM   20  C24 UNL     1      20.324   3.811  45.921  1.00  0.00     0.138 C 
HETATM   21  O2  UNL     1      19.292   3.321  45.439  1.00  0.00    -0.297 OA
HETATM   22  C25 UNL     1      21.052   3.902  47.212  1.00  0.00     0.118 C 
ENDROOT
BRANCH   5  23
HETATM   23  C5  UNL     1      21.817   2.072  51.509  1.00  0.00     0.092 C 
HETATM   24  C6  UNL     1      23.048   2.740  52.134  1.00  0.00     0.032 C 
HETATM   25  C7  UNL     1      23.949   1.768  51.480  1.00  0.00     0.018 C 
HETATM   26  C12 UNL     1      22.704   0.937  51.114  1.00  0.00     0.032 C 
BRANCH  25  27
HETATM   27  C8  UNL     1      24.926   0.946  52.250  1.00  0.00     0.277 C 
BRANCH  27  28
HETATM   28  N3  UNL     1      26.250   0.969  51.742  1.00  0.00     0.088 N 
HETATM   29  C9  UNL     1      27.234   0.639  52.783  1.00  0.00     0.274 C 
HETATM   30  C10 UNL     1      27.212   2.071  53.219  1.00  0.00     0.060 C 
HETATM   31  C11 UNL     1      26.818   2.315  51.774  1.00  0.00     0.274 C 
ENDBRANCH  27  28
ENDBRANCH  25  27
ENDBRANCH   5  23
BRANCH   1  32
HETATM   32  N1  UNL     1      17.305   4.074  49.761  1.00  0.00    -0.384 N 
HETATM   33  H1  UNL     1      16.886   4.950  50.093  1.00  0.00     0.157 HD
HETATM   34  H2  UNL     1      16.372   4.469  49.518  1.00  0.00     0.157 HD
ENDBRANCH   1  32
TORSDOF 4
ENDMDL
MODEL 6
REMARK VINA RESULT:      -7.3      5.816      8.955
REMARK  4 active torsions:
REMARK  status: ('A' for Active; 'I' for Inactive)
REMARK    1  A    between atoms: N1_1  and  C1_2 
REMARK    2  A    between atoms: N2_6  and  C5_7 
REMARK    3  A    between atoms: C7_9  and  C8_10 
REMARK    4  A    between atoms: C8_10  and  N3_11 
ROOT
HETATM    1  C1  UNL     1      23.717   8.153  50.289  1.00  0.00     0.123 C 
HETATM    2  C2  UNL     1      24.938   8.144  49.677  1.00  0.00     0.059 C 
HETATM    3  C3  UNL     1      25.281   7.563  48.477  1.00  0.00    -0.025 C 
HETATM    4  C4  UNL     1      24.329   7.536  47.484  1.00  0.00     0.101 C 
HETATM    5  N2  UNL     1      23.212   6.816  47.672  1.00  0.00    -0.336 N 
HETATM    6  C13 UNL     1      23.083   6.018  48.745  1.00  0.00     0.140 C 
HETATM    7  N4  UNL     1      22.033   6.147  49.573  1.00  0.00    -0.224 NA
HETATM    8  C14 UNL     1      21.579   7.406  49.748  1.00  0.00     0.237 C 
HETATM    9  N5  UNL     1      22.415   8.410  50.136  1.00  0.00    -0.225 NA
HETATM   10  C15 UNL     1      23.906   4.903  49.268  1.00  0.00     0.020 A 
HETATM   11  C16 UNL     1      23.517   3.685  48.826  1.00  0.00     0.014 A 
HETATM   12  C17 UNL     1      24.383   2.614  49.385  1.00  0.00    -0.000 A 
HETATM   13  C18 UNL     1      25.248   3.265  50.142  1.00  0.00     0.010 A 
HETATM   14  C19 UNL     1      25.061   4.740  50.171  1.00  0.00     0.181 A 
HETATM   15  O1  UNL     1      26.163   5.480  49.908  1.00  0.00    -0.371 OA
HETATM   16  C20 UNL     1      26.648   5.512  48.635  1.00  0.00     0.138 C 
HETATM   17  C21 UNL     1      28.080   5.035  48.527  1.00  0.00     0.033 C 
HETATM   18  C22 UNL     1      28.967   5.983  47.759  1.00  0.00     0.010 C 
HETATM   19  C23 UNL     1      29.121   7.309  48.489  1.00  0.00     0.079 C 
HETATM   20  C24 UNL     1      27.715   7.778  48.746  1.00  0.00     0.138 C 
HETATM   21  O2  UNL     1      27.907   8.806  49.413  1.00  0.00    -0.297 OA
HETATM   22  C25 UNL     1      26.603   6.968  48.187  1.00  0.00     0.118 C 
ENDROOT
BRANCH   5  23
HETATM   23  C5  UNL     1      22.081   6.801  46.801  1.00  0.00     0.092 C 
HETATM   24  C6  UNL     1      21.478   5.423  46.502  1.00  0.00     0.032 C 
HETATM   25  C7  UNL     1      22.010   5.452  45.125  1.00  0.00     0.018 C 
HETATM   26  C12 UNL     1      22.341   6.942  45.338  1.00  0.00     0.032 C 
BRANCH  25  27
HETATM   27  C8  UNL     1      21.137   5.269  43.930  1.00  0.00     0.277 C 
BRANCH  27  28
HETATM   28  N3  UNL     1      20.750   3.928  43.679  1.00  0.00     0.088 N 
HETATM   29  C9  UNL     1      20.184   3.773  42.330  1.00  0.00     0.274 C 
HETATM   30  C10 UNL     1      18.859   4.218  42.865  1.00  0.00     0.060 C 
HETATM   31  C11 UNL     1      19.400   3.655  44.166  1.00  0.00     0.274 C 
ENDBRANCH  27  28
ENDBRANCH  25  27
ENDBRANCH   5  23
BRANCH   1  32
HETATM   32  N1  UNL     1      23.790   7.722  51.665  1.00  0.00    -0.384 N 
HETATM   33  H1  UNL     1      23.438   7.522  52.608  1.00  0.00     0.157 HD
HETATM   34  H2  UNL     1      24.322   7.352  52.481  1.00  0.00     0.157 HD
ENDBRANCH   1  32
TORSDOF 4
ENDMDL
MODEL 7
REMARK VINA RESULT:      -7.2      3.361      6.939
REMARK  4 active torsions:
REMARK  status: ('A' for Active; 'I' for Inactive)
REMARK    1  A    between atoms: N1_1  and  C1_2 
REMARK    2  A    between atoms: N2_6  and  C5_7 
REMARK    3  A    between atoms: C7_9  and  C8_10 
REMARK    4  A    between atoms: C8_10  and  N3_11 
ROOT
HETATM    1  C1  UNL     1      26.509   8.724  47.228  1.00  0.00     0.123 C 
HETATM    2  C2  UNL     1      27.142   8.970  46.043  1.00  0.00     0.059 C 
HETATM    3  C3  UNL     1      28.479   8.828  45.751  1.00  0.00    -0.025 C 
HETATM    4  C4  UNL     1      29.166   7.812  46.375  1.00  0.00     0.101 C 
HETATM    5  N2  UNL     1      29.320   7.852  47.707  1.00  0.00    -0.336 N 
HETATM    6  C13 UNL     1      28.939   8.932  48.410  1.00  0.00     0.140 C 
HETATM    7  N4  UNL     1      28.083   8.814  49.439  1.00  0.00    -0.224 NA
HETATM    8  C14 UNL     1      27.132   7.866  49.301  1.00  0.00     0.237 C 
HETATM    9  N5  UNL     1      26.320   7.834  48.207  1.00  0.00    -0.225 NA
HETATM   10  C15 UNL     1      29.295  10.366  48.312  1.00  0.00     0.020 A 
HETATM   11  C16 UNL     1      30.332  10.725  49.104  1.00  0.00     0.014 A 
HETATM   12  C17 UNL     1      30.639  12.172  48.957  1.00  0.00    -0.000 A 
HETATM   13  C18 UNL     1      29.752  12.598  48.077  1.00  0.00     0.010 A 
HETATM   14  C19 UNL     1      28.818  11.553  47.579  1.00  0.00     0.181 A 
HETATM   15  O1  UNL     1      28.710  11.450  46.234  1.00  0.00    -0.371 OA
HETATM   16  C20 UNL     1      29.753  10.932  45.526  1.00  0.00     0.138 C 
HETATM   17  C21 UNL     1      30.295  11.879  44.478  1.00  0.00     0.033 C 
HETATM   18  C22 UNL     1      30.435  11.245  43.117  1.00  0.00     0.010 C 
HETATM   19  C23 UNL     1      29.078  10.866  42.542  1.00  0.00     0.079 C 
HETATM   20  C24 UNL     1      28.426  10.023  43.603  1.00  0.00     0.138 C 
HETATM   21  O2  UNL     1      27.303   9.823  43.116  1.00  0.00    -0.297 OA
HETATM   22  C25 UNL     1      29.223   9.695  44.813  1.00  0.00     0.118 C 
ENDROOT
BRANCH   5  23
HETATM   23  C5  UNL     1      29.882   6.811  48.507  1.00  0.00     0.092 C 
HETATM   24  C6  UNL     1      31.381   6.927  48.806  1.00  0.00     0.032 C 
HETATM   25  C7  UNL     1      31.684   5.811  47.887  1.00  0.00     0.018 C 
HETATM   26  C12 UNL     1      30.174   5.512  47.833  1.00  0.00     0.032 C 
BRANCH  25  27
HETATM   27  C8  UNL     1      32.447   4.606  48.323  1.00  0.00     0.277 C 
BRANCH  27  28
HETATM   28  N3  UNL     1      33.426   4.158  47.399  1.00  0.00     0.088 N 
HETATM   29  C9  UNL     1      32.814   3.455  46.262  1.00  0.00     0.274 C 
HETATM   30  C10 UNL     1      32.793   2.204  47.082  1.00  0.00     0.060 C 
HETATM   31  C11 UNL     1      33.972   2.858  47.778  1.00  0.00     0.274 C 
ENDBRANCH  27  28
ENDBRANCH  25  27
ENDBRANCH   5  23
BRANCH   1  32
HETATM   32  N1  UNL     1      25.691   9.834  47.654  1.00  0.00    -0.384 N 
HETATM   33  H1  UNL     1      25.141  10.695  47.544  1.00  0.00     0.157 HD
HETATM   34  H2  UNL     1      25.195  10.376  48.394  1.00  0.00     0.157 HD
ENDBRANCH   1  32
TORSDOF 4
ENDMDL
MODEL 8
REMARK VINA RESULT:      -7.2      7.088     10.293
REMARK  4 active torsions:
REMARK  status: ('A' for Active; 'I' for Inactive)
REMARK    1  A    between atoms: N1_1  and  C1_2 
REMARK    2  A    between atoms: N2_6  and  C5_7 
REMARK    3  A    between atoms: C7_9  and  C8_10 
REMARK    4  A    between atoms: C8_10  and  N3_11 
ROOT
HETATM    1  C1  UNL     1      21.871   6.894  50.085  1.00  0.00     0.123 C 
HETATM    2  C2  UNL     1      23.113   6.925  49.516  1.00  0.00     0.059 C 
HETATM    3  C3  UNL     1      23.645   6.051  48.596  1.00  0.00    -0.025 C 
HETATM    4  C4  UNL     1      22.789   5.493  47.673  1.00  0.00     0.101 C 
HETATM    5  N2  UNL     1      21.819   4.669  48.101  1.00  0.00    -0.336 N 
HETATM    6  C13 UNL     1      21.766   4.278  49.384  1.00  0.00     0.140 C 
HETATM    7  N4  UNL     1      20.654   4.467  50.114  1.00  0.00    -0.224 NA
HETATM    8  C14 UNL     1      19.958   5.590  49.837  1.00  0.00     0.237 C 
HETATM    9  N5  UNL     1      20.559   6.813  49.850  1.00  0.00    -0.225 NA
HETATM   10  C15 UNL     1      22.747   3.602  50.265  1.00  0.00     0.020 A 
HETATM   11  C16 UNL     1      22.629   2.254  50.277  1.00  0.00     0.014 A 
HETATM   12  C17 UNL     1      23.640   1.638  51.176  1.00  0.00    -0.000 A 
HETATM   13  C18 UNL     1      24.308   2.671  51.658  1.00  0.00     0.010 A 
HETATM   14  C19 UNL     1      23.843   3.996  51.169  1.00  0.00     0.181 A 
HETATM   15  O1  UNL     1      24.801   4.808  50.665  1.00  0.00    -0.371 OA
HETATM   16  C20 UNL     1      25.362   4.500  49.462  1.00  0.00     0.138 C 
HETATM   17  C21 UNL     1      26.862   4.316  49.529  1.00  0.00     0.033 C 
HETATM   18  C22 UNL     1      27.606   5.103  48.480  1.00  0.00     0.010 C 
HETATM   19  C23 UNL     1      27.452   6.601  48.700  1.00  0.00     0.079 C 
HETATM   20  C24 UNL     1      25.968   6.834  48.775  1.00  0.00     0.138 C 
HETATM   21  O2  UNL     1      25.913   8.044  49.040  1.00  0.00    -0.297 OA
HETATM   22  C25 UNL     1      25.073   5.674  48.534  1.00  0.00     0.118 C 
ENDROOT
BRANCH   5  23
HETATM   23  C5  UNL     1      20.777   4.128  47.288  1.00  0.00     0.092 C 
HETATM   24  C6  UNL     1      21.216   3.148  46.194  1.00  0.00     0.032 C 
HETATM   25  C7  UNL     1      20.943   4.148  45.142  1.00  0.00     0.018 C 
HETATM   26  C12 UNL     1      20.228   5.000  46.208  1.00  0.00     0.032 C 
BRANCH  25  27
HETATM   27  C8  UNL     1      20.036   3.867  43.993  1.00  0.00     0.277 C 
BRANCH  27  28
HETATM   28  N3  UNL     1      20.595   4.135  42.717  1.00  0.00     0.088 N 
HETATM   29  C9  UNL     1      20.765   5.579  42.494  1.00  0.00     0.274 C 
HETATM   30  C10 UNL     1      19.336   5.651  42.053  1.00  0.00     0.060 C 
HETATM   31  C11 UNL     1      19.569   4.199  41.679  1.00  0.00     0.274 C 
ENDBRANCH  27  28
ENDBRANCH  25  27
ENDBRANCH   5  23
BRANCH   1  32
HETATM   32  N1  UNL     1      21.926   6.984  51.525  1.00  0.00    -0.384 N 
HETATM   33  H1  UNL     1      22.009   7.451  52.436  1.00  0.00     0.157 HD
HETATM   34  H2  UNL     1      21.905   6.549  52.471  1.00  0.00     0.157 HD
ENDBRANCH   1  32
TORSDOF 4
ENDMDL
MODEL 9
REMARK VINA RESULT:      -7.1      7.743     10.999
REMARK  4 active torsions:
REMARK  status: ('A' for Active; 'I' for Inactive)
REMARK    1  A    between atoms: N1_1  and  C1_2 
REMARK    2  A    between atoms: N2_6  and  C5_7 
REMARK    3  A    between atoms: C7_9  and  C8_10 
REMARK    4  A    between atoms: C8_10  and  N3_11 
ROOT
HETATM    1  C1  UNL     1      24.985   6.966  49.189  1.00  0.00     0.123 C 
HETATM    2  C2  UNL     1      23.733   7.452  49.443  1.00  0.00     0.059 C 
HETATM    3  C3  UNL     1      22.672   6.796  50.023  1.00  0.00    -0.025 C 
HETATM    4  C4  UNL     1      22.951   5.862  50.995  1.00  0.00     0.101 C 
HETATM    5  N2  UNL     1      23.629   4.754  50.658  1.00  0.00    -0.336 N 
HETATM    6  C13 UNL     1      23.910   4.486  49.372  1.00  0.00     0.140 C 
HETATM    7  N4  UNL     1      25.175   4.266  48.977  1.00  0.00    -0.224 NA
HETATM    8  C14 UNL     1      26.120   4.981  49.624  1.00  0.00     0.237 C 
HETATM    9  N5  UNL     1      26.044   6.339  49.708  1.00  0.00    -0.225 NA
HETATM   10  C15 UNL     1      23.055   4.344  48.171  1.00  0.00     0.020 A 
HETATM   11  C16 UNL     1      22.668   3.071  47.925  1.00  0.00     0.014 A 
HETATM   12  C17 UNL     1      21.814   2.999  46.711  1.00  0.00    -0.000 A 
HETATM   13  C18 UNL     1      21.746   4.250  46.294  1.00  0.00     0.010 A 
HETATM   14  C19 UNL     1      22.499   5.225  47.127  1.00  0.00     0.181 A 
HETATM   15  O1  UNL     1      21.804   6.311  47.539  1.00  0.00    -0.371 OA
HETATM   16  C20 UNL     1      20.842   6.158  48.491  1.00  0.00     0.138 C 
HETATM   17  C21 UNL     1      19.471   6.607  48.037  1.00  0.00     0.033 C 
HETATM   18  C22 UNL     1      18.795   7.537  49.013  1.00  0.00     0.010 C 
HETATM   19  C23 UNL     1      19.546   8.855  49.131  1.00  0.00     0.079 C 
HETATM   20  C24 UNL     1      20.963   8.469  49.456  1.00  0.00     0.138 C 
HETATM   21  O2  UNL     1      21.535   9.570  49.452  1.00  0.00    -0.297 OA
HETATM   22  C25 UNL     1      21.255   7.029  49.671  1.00  0.00     0.118 C 
ENDROOT
BRANCH   5  23
HETATM   23  C5  UNL     1      24.111   3.770  51.573  1.00  0.00     0.092 C 
HETATM   24  C6  UNL     1      23.934   2.308  51.144  1.00  0.00     0.032 C 
HETATM   25  C7  UNL     1      22.866   2.109  52.146  1.00  0.00     0.018 C 
HETATM   26  C12 UNL     1      23.261   3.465  52.762  1.00  0.00     0.032 C 
BRANCH  25  27
HETATM   27  C8  UNL     1      22.926   1.025  53.168  1.00  0.00     0.277 C 
BRANCH  27  28
HETATM   28  N3  UNL     1      21.856   0.096  53.109  1.00  0.00     0.088 N 
HETATM   29  C9  UNL     1      21.097   0.066  54.369  1.00  0.00     0.274 C 
HETATM   30  C10 UNL     1      22.105  -0.895  54.920  1.00  0.00     0.060 C 
HETATM   31  C11 UNL     1      22.293  -1.254  53.458  1.00  0.00     0.274 C 
ENDBRANCH  27  28
ENDBRANCH  25  27
ENDBRANCH   5  23
BRANCH   1  32
HETATM   32  N1  UNL     1      25.394   7.193  47.823  1.00  0.00    -0.384 N 
HETATM   33  H1  UNL     1      25.844   6.972  46.927  1.00  0.00     0.157 HD
HETATM   34  H2  UNL     1      25.431   7.781  46.964  1.00  0.00     0.157 HD
ENDBRANCH   1  32
TORSDOF 4
ENDMDL
