MODEL 1
REMARK VINA RESULT:      -7.4      0.000      0.000
REMARK  6 active torsions:
REMARK  status: ('A' for Active; 'I' for Inactive)
REMARK    1  A    between atoms: C2_2  and  N1_3 
REMARK    2  A    between atoms: N1_3  and  C3_4 
REMARK    3  A    between atoms: C5_6  and  C6_7 
REMARK    4  A    between atoms: C6_7  and  C7_8 
REMARK    5  A    between atoms: C11_14  and  N4_15 
REMARK    6  A    between atoms: N4_15  and  C12_16 
ROOT
HETATM    1  C7  UNL     1      26.267   1.675  51.645  1.00  0.00    -0.010 C 
HETATM    2  C8  UNL     1      26.849   1.224  52.747  1.00  0.00     0.004 A 
HETATM    3  C9  UNL     1      28.064   1.878  53.235  1.00  0.00     0.192 A 
HETATM    4  N2  UNL     1      28.512   1.214  54.439  1.00  0.00    -0.278 NA
HETATM    5  C10 UNL     1      27.922   0.219  54.975  1.00  0.00     0.229 A 
HETATM    6  N3  UNL     1      26.740  -0.396  54.483  1.00  0.00    -0.224 NA
HETATM    7  C11 UNL     1      26.217   0.087  53.406  1.00  0.00     0.137 A 
ENDROOT
BRANCH   1   8
HETATM    8  C6  UNL     1      26.790   2.832  50.861  1.00  0.00     0.064 C 
BRANCH   8   9
HETATM    9  C5  UNL     1      25.663   3.607  50.263  1.00  0.00    -0.052 A 
HETATM   10  C3  UNL     1      24.289   4.022  50.130  1.00  0.00     0.134 A 
HETATM   11  C4  UNL     1      25.408   4.521  49.297  1.00  0.00     0.008 A 
BRANCH  10  12
HETATM   12  N1  UNL     1      23.740   5.057  51.012  1.00  0.00    -0.388 N 
HETATM   13  H4  UNL     1      23.893   5.992  50.602  1.00  0.00     0.159 HD
BRANCH  12  14
HETATM   14  C2  UNL     1      23.085   4.879  52.258  1.00  0.00     0.073 C 
HETATM   15  C1  UNL     1      23.761   4.151  53.130  1.00  0.00     0.029 C 
ENDBRANCH  12  14
ENDBRANCH  10  12
ENDBRANCH   8   9
ENDBRANCH   1   8
BRANCH   7  16
HETATM   16  N4  UNL     1      25.037  -0.544  52.944  1.00  0.00    -0.340 N 
HETATM   17  H13 UNL     1      25.168  -1.210  52.125  1.00  0.00     0.167 HD
BRANCH  16  18
HETATM   18  C12 UNL     1      23.729  -0.379  53.460  1.00  0.00     0.035 A 
HETATM   19  C13 UNL     1      23.154  -1.050  54.510  1.00  0.00     0.029 A 
HETATM   20  C14 UNL     1      21.880  -0.850  54.985  1.00  0.00     0.004 A 
HETATM   21  C15 UNL     1      21.085   0.095  54.382  1.00  0.00     0.019 A 
HETATM   22  C16 UNL     1      21.610   0.800  53.323  1.00  0.00     0.013 A 
HETATM   23 BR1  UNL     1      20.512   2.106  52.489  1.00  0.00    -0.051 Br
HETATM   24  C17 UNL     1      22.895   0.561  52.885  1.00  0.00     0.048 A 
ENDBRANCH  16  18
ENDBRANCH   7  16
TORSDOF 6
ENDMDL
MODEL 2
REMARK VINA RESULT:      -7.4      2.046      5.396
REMARK  6 active torsions:
REMARK  status: ('A' for Active; 'I' for Inactive)
REMARK    1  A    between atoms: C2_2  and  N1_3 
REMARK    2  A    between atoms: N1_3  and  C3_4 
REMARK    3  A    between atoms: C5_6  and  C6_7 
REMARK    4  A    between atoms: C6_7  and  C7_8 
REMARK    5  A    between atoms: C11_14  and  N4_15 
REMARK    6  A    between atoms: N4_15  and  C12_16 
ROOT
HETATM    1  C7  UNL     1      25.315   0.322  52.820  1.00  0.00    -0.010 C 
HETATM    2  C8  UNL     1      26.447   0.923  53.159  1.00  0.00     0.004 A 
HETATM    3  C9  UNL     1      27.042   0.644  54.466  1.00  0.00     0.192 A 
HETATM    4  N2  UNL     1      28.259   1.411  54.609  1.00  0.00    -0.278 NA
HETATM    5  C10 UNL     1      28.724   2.197  53.719  1.00  0.00     0.229 A 
HETATM    6  N3  UNL     1      28.128   2.449  52.454  1.00  0.00    -0.224 NA
HETATM    7  C11 UNL     1      27.027   1.834  52.179  1.00  0.00     0.137 A 
ENDROOT
BRANCH   1   8
HETATM    8  C6  UNL     1      24.602  -0.639  53.711  1.00  0.00     0.064 C 
BRANCH   8   9
HETATM    9  C5  UNL     1      23.152  -0.292  53.796  1.00  0.00    -0.052 A 
HETATM   10  C3  UNL     1      21.964   0.449  53.454  1.00  0.00     0.134 A 
HETATM   11  C4  UNL     1      22.017  -0.657  54.437  1.00  0.00     0.008 A 
BRANCH  10  12
HETATM   12  N1  UNL     1      21.194   0.100  52.255  1.00  0.00    -0.388 N 
HETATM   13  H4  UNL     1      20.392  -0.498  52.509  1.00  0.00     0.159 HD
BRANCH  12  14
HETATM   14  C2  UNL     1      21.451   0.487  50.914  1.00  0.00     0.073 C 
HETATM   15  C1  UNL     1      22.324   1.471  50.789  1.00  0.00     0.029 C 
ENDBRANCH  12  14
ENDBRANCH  10  12
ENDBRANCH   8   9
ENDBRANCH   1   8
BRANCH   7  16
HETATM   16  N4  UNL     1      26.460   2.101  50.908  1.00  0.00    -0.340 N 
HETATM   17  H13 UNL     1      26.172   1.244  50.350  1.00  0.00     0.167 HD
BRANCH  16  18
HETATM   18  C12 UNL     1      26.242   3.374  50.329  1.00  0.00     0.035 A 
HETATM   19  C13 UNL     1      26.983   3.983  49.346  1.00  0.00     0.029 A 
HETATM   20  C14 UNL     1      26.730   5.220  48.805  1.00  0.00     0.004 A 
HETATM   21  C15 UNL     1      25.651   5.939  49.261  1.00  0.00     0.019 A 
HETATM   22  C16 UNL     1      24.872   5.376  50.247  1.00  0.00     0.013 A 
HETATM   23 BR1  UNL     1      23.380   6.369  50.878  1.00  0.00    -0.051 Br
HETATM   24  C17 UNL     1      25.169   4.131  50.756  1.00  0.00     0.048 A 
ENDBRANCH  16  18
ENDBRANCH   7  16
TORSDOF 6
ENDMDL
MODEL 3
REMARK VINA RESULT:      -7.1      2.323      5.679
REMARK  6 active torsions:
REMARK  status: ('A' for Active; 'I' for Inactive)
REMARK    1  A    between atoms: C2_2  and  N1_3 
REMARK    2  A    between atoms: N1_3  and  C3_4 
REMARK    3  A    between atoms: C5_6  and  C6_7 
REMARK    4  A    between atoms: C6_7  and  C7_8 
REMARK    5  A    between atoms: C11_14  and  N4_15 
REMARK    6  A    between atoms: N4_15  and  C12_16 
ROOT
HETATM    1  C7  UNL     1      24.745   0.117  53.521  1.00  0.00    -0.010 C 
HETATM    2  C8  UNL     1      23.554  -0.374  53.834  1.00  0.00     0.004 A 
HETATM    3  C9  UNL     1      23.405  -1.166  55.055  1.00  0.00     0.192 A 
HETATM    4  N2  UNL     1      22.029  -1.592  55.181  1.00  0.00    -0.278 NA
HETATM    5  C10 UNL     1      21.107  -1.306  54.348  1.00  0.00     0.229 A 
HETATM    6  N3  UNL     1      21.278  -0.532  53.169  1.00  0.00    -0.224 NA
HETATM    7  C11 UNL     1      22.460  -0.078  52.917  1.00  0.00     0.137 A 
ENDROOT
BRANCH   1   8
HETATM    8  C6  UNL     1      25.962  -0.095  54.359  1.00  0.00     0.064 C 
BRANCH   8   9
HETATM    9  C5  UNL     1      27.081   0.769  53.878  1.00  0.00    -0.052 A 
HETATM   10  C3  UNL     1      28.398   1.350  53.933  1.00  0.00     0.134 A 
HETATM   11  C4  UNL     1      27.397   1.622  52.876  1.00  0.00     0.008 A 
BRANCH  10  12
HETATM   12  N1  UNL     1      29.558   0.603  53.431  1.00  0.00    -0.388 N 
HETATM   13  H4  UNL     1      30.030   1.138  52.685  1.00  0.00     0.159 HD
BRANCH  12  14
HETATM   14  C2  UNL     1      30.022  -0.668  53.856  1.00  0.00     0.073 C 
HETATM   15  C1  UNL     1      29.407  -1.691  53.287  1.00  0.00     0.029 C 
ENDBRANCH  12  14
ENDBRANCH  10  12
ENDBRANCH   8   9
ENDBRANCH   1   8
BRANCH   7  16
HETATM   16  N4  UNL     1      22.597   0.694  51.738  1.00  0.00    -0.340 N 
HETATM   17  H13 UNL     1      22.376   0.184  50.832  1.00  0.00     0.167 HD
BRANCH  16  18
HETATM   18  C12 UNL     1      22.988   2.052  51.655  1.00  0.00     0.035 A 
HETATM   19  C13 UNL     1      22.407   3.129  52.278  1.00  0.00     0.029 A 
HETATM   20  C14 UNL     1      22.826   4.433  52.176  1.00  0.00     0.004 A 
HETATM   21  C15 UNL     1      23.918   4.723  51.393  1.00  0.00     0.019 A 
HETATM   22  C16 UNL     1      24.542   3.681  50.745  1.00  0.00     0.013 A 
HETATM   23 BR1  UNL     1      26.052   4.080  49.663  1.00  0.00    -0.051 Br
HETATM   24  C17 UNL     1      24.081   2.389  50.880  1.00  0.00     0.048 A 
ENDBRANCH  16  18
ENDBRANCH   7  16
TORSDOF 6
ENDMDL
MODEL 4
REMARK VINA RESULT:      -7.0      2.871      6.027
REMARK  6 active torsions:
REMARK  status: ('A' for Active; 'I' for Inactive)
REMARK    1  A    between atoms: C2_2  and  N1_3 
REMARK    2  A    between atoms: N1_3  and  C3_4 
REMARK    3  A    between atoms: C5_6  and  C6_7 
REMARK    4  A    between atoms: C6_7  and  C7_8 
REMARK    5  A    between atoms: C11_14  and  N4_15 
REMARK    6  A    between atoms: N4_15  and  C12_16 
ROOT
HETATM    1  C7  UNL     1      23.538   0.417  53.219  1.00  0.00    -0.010 C 
HETATM    2  C8  UNL     1      24.799   0.432  53.627  1.00  0.00     0.004 A 
HETATM    3  C9  UNL     1      25.407  -0.802  54.125  1.00  0.00     0.192 A 
HETATM    4  N2  UNL     1      26.775  -0.538  54.510  1.00  0.00    -0.278 NA
HETATM    5  C10 UNL     1      27.343   0.599  54.418  1.00  0.00     0.229 A 
HETATM    6  N3  UNL     1      26.731   1.784  53.927  1.00  0.00    -0.224 NA
HETATM    7  C11 UNL     1      25.502   1.707  53.543  1.00  0.00     0.137 A 
ENDROOT
BRANCH   1   8
HETATM    8  C6  UNL     1      22.689  -0.810  53.240  1.00  0.00     0.064 C 
BRANCH   8   9
HETATM    9  C5  UNL     1      21.285  -0.465  53.613  1.00  0.00    -0.052 A 
HETATM   10  C3  UNL     1      19.853  -0.461  53.450  1.00  0.00     0.134 A 
HETATM   11  C4  UNL     1      20.580   0.197  54.560  1.00  0.00     0.008 A 
BRANCH  10  12
HETATM   12  N1  UNL     1      19.054  -1.605  53.900  1.00  0.00    -0.388 N 
HETATM   13  H4  UNL     1      19.551  -2.113  54.650  1.00  0.00     0.159 HD
BRANCH  12  14
HETATM   14  C2  UNL     1      17.783  -2.018  53.425  1.00  0.00     0.073 C 
HETATM   15  C1  UNL     1      17.503  -3.290  53.651  1.00  0.00     0.029 C 
ENDBRANCH  12  14
ENDBRANCH  10  12
ENDBRANCH   8   9
ENDBRANCH   1   8
BRANCH   7  16
HETATM   16  N4  UNL     1      24.922   2.904  53.054  1.00  0.00    -0.340 N 
HETATM   17  H13 UNL     1      24.577   3.579  53.799  1.00  0.00     0.167 HD
BRANCH  16  18
HETATM   18  C12 UNL     1      24.765   3.277  51.697  1.00  0.00     0.035 A 
HETATM   19  C13 UNL     1      23.614   3.251  50.950  1.00  0.00     0.029 A 
HETATM   20  C14 UNL     1      23.506   3.632  49.635  1.00  0.00     0.004 A 
HETATM   21  C15 UNL     1      24.625   4.084  48.978  1.00  0.00     0.019 A 
HETATM   22  C16 UNL     1      25.809   4.132  49.679  1.00  0.00     0.013 A 
HETATM   23 BR1  UNL     1      27.357   4.756  48.772  1.00  0.00    -0.051 Br
HETATM   24  C17 UNL     1      25.864   3.738  50.998  1.00  0.00     0.048 A 
ENDBRANCH  16  18
ENDBRANCH   7  16
TORSDOF 6
ENDMDL
MODEL 5
REMARK VINA RESULT:      -7.0      2.254      5.534
REMARK  6 active torsions:
REMARK  status: ('A' for Active; 'I' for Inactive)
REMARK    1  A    between atoms: C2_2  and  N1_3 
REMARK    2  A    between atoms: N1_3  and  C3_4 
REMARK    3  A    between atoms: C5_6  and  C6_7 
REMARK    4  A    between atoms: C6_7  and  C7_8 
REMARK    5  A    between atoms: C11_14  and  N4_15 
REMARK    6  A    between atoms: N4_15  and  C12_16 
ROOT
HETATM    1  C7  UNL     1      25.144   0.178  54.015  1.00  0.00    -0.010 C 
HETATM    2  C8  UNL     1      23.965  -0.397  54.202  1.00  0.00     0.004 A 
HETATM    3  C9  UNL     1      23.778  -1.292  55.344  1.00  0.00     0.192 A 
HETATM    4  N2  UNL     1      22.423  -1.796  55.338  1.00  0.00    -0.278 NA
HETATM    5  C10 UNL     1      21.545  -1.491  54.465  1.00  0.00     0.229 A 
HETATM    6  N3  UNL     1      21.750  -0.615  53.366  1.00  0.00    -0.224 NA
HETATM    7  C11 UNL     1      22.919  -0.083  53.236  1.00  0.00     0.137 A 
ENDROOT
BRANCH   1   8
HETATM    8  C6  UNL     1      26.311  -0.039  54.919  1.00  0.00     0.064 C 
BRANCH   8   9
HETATM    9  C5  UNL     1      27.492   0.739  54.440  1.00  0.00    -0.052 A 
HETATM   10  C3  UNL     1      28.884   1.107  54.399  1.00  0.00     0.134 A 
HETATM   11  C4  UNL     1      27.821   1.728  53.576  1.00  0.00     0.008 A 
BRANCH  10  12
HETATM   12  N1  UNL     1      29.832   0.326  53.597  1.00  0.00    -0.388 N 
HETATM   13  H4  UNL     1      30.252   0.919  52.864  1.00  0.00     0.159 HD
BRANCH  12  14
HETATM   14  C2  UNL     1      30.173  -1.044  53.744  1.00  0.00     0.073 C 
HETATM   15  C1  UNL     1      29.317  -1.881  53.185  1.00  0.00     0.029 C 
ENDBRANCH  12  14
ENDBRANCH  10  12
ENDBRANCH   8   9
ENDBRANCH   1   8
BRANCH   7  16
HETATM   16  N4  UNL     1      23.092   0.789  52.133  1.00  0.00    -0.340 N 
HETATM   17  H13 UNL     1      23.461   0.333  51.246  1.00  0.00     0.167 HD
BRANCH  16  18
HETATM   18  C12 UNL     1      22.822   2.178  52.101  1.00  0.00     0.035 A 
HETATM   19  C13 UNL     1      23.596   3.192  52.607  1.00  0.00     0.029 A 
HETATM   20  C14 UNL     1      23.298   4.532  52.546  1.00  0.00     0.004 A 
HETATM   21  C15 UNL     1      22.134   4.929  51.933  1.00  0.00     0.019 A 
HETATM   22  C16 UNL     1      21.317   3.953  51.407  1.00  0.00     0.013 A 
HETATM   23 BR1  UNL     1      19.707   4.500  50.559  1.00  0.00    -0.051 Br
HETATM   24  C17 UNL     1      21.662   2.622  51.494  1.00  0.00     0.048 A 
ENDBRANCH  16  18
ENDBRANCH   7  16
TORSDOF 6
ENDMDL
MODEL 6
REMARK VINA RESULT:      -6.9      2.611      6.011
REMARK  6 active torsions:
REMARK  status: ('A' for Active; 'I' for Inactive)
REMARK    1  A    between atoms: C2_2  and  N1_3 
REMARK    2  A    between atoms: N1_3  and  C3_4 
REMARK    3  A    between atoms: C5_6  and  C6_7 
REMARK    4  A    between atoms: C6_7  and  C7_8 
REMARK    5  A    between atoms: C11_14  and  N4_15 
REMARK    6  A    between atoms: N4_15  and  C12_16 
ROOT
HETATM    1  C7  UNL     1      23.771   0.104  53.654  1.00  0.00    -0.010 C 
HETATM    2  C8  UNL     1      22.475  -0.173  53.640  1.00  0.00     0.004 A 
HETATM    3  C9  UNL     1      22.012  -1.461  54.157  1.00  0.00     0.192 A 
HETATM    4  N2  UNL     1      20.573  -1.534  54.036  1.00  0.00    -0.278 NA
HETATM    5  C10 UNL     1      19.843  -0.607  53.554  1.00  0.00     0.229 A 
HETATM    6  N3  UNL     1      20.317   0.638  53.060  1.00  0.00    -0.224 NA
HETATM    7  C11 UNL     1      21.589   0.852  53.101  1.00  0.00     0.137 A 
ENDROOT
BRANCH   1   8
HETATM    8  C6  UNL     1      24.802  -0.840  54.176  1.00  0.00     0.064 C 
BRANCH   8   9
HETATM    9  C5  UNL     1      26.051  -0.747  53.363  1.00  0.00    -0.052 A 
HETATM   10  C3  UNL     1      27.214  -0.087  52.826  1.00  0.00     0.134 A 
HETATM   11  C4  UNL     1      26.833  -1.491  52.546  1.00  0.00     0.008 A 
BRANCH  10  12
HETATM   12  N1  UNL     1      28.441   0.015  53.623  1.00  0.00    -0.388 N 
HETATM   13  H4  UNL     1      28.745  -0.923  53.930  1.00  0.00     0.159 HD
BRANCH  12  14
HETATM   14  C2  UNL     1      29.160   1.190  53.965  1.00  0.00     0.073 C 
HETATM   15  C1  UNL     1      28.568   2.315  53.603  1.00  0.00     0.029 C 
ENDBRANCH  12  14
ENDBRANCH  10  12
ENDBRANCH   8   9
ENDBRANCH   1   8
BRANCH   7  16
HETATM   16  N4  UNL     1      22.030   2.104  52.606  1.00  0.00    -0.340 N 
HETATM   17  H13 UNL     1      22.027   2.899  53.313  1.00  0.00     0.167 HD
BRANCH  16  18
HETATM   18  C12 UNL     1      22.468   2.389  51.291  1.00  0.00     0.035 A 
HETATM   19  C13 UNL     1      21.746   2.282  50.128  1.00  0.00     0.029 A 
HETATM   20  C14 UNL     1      22.210   2.578  48.869  1.00  0.00     0.004 A 
HETATM   21  C15 UNL     1      23.502   3.023  48.722  1.00  0.00     0.019 A 
HETATM   22  C16 UNL     1      24.273   3.149  49.856  1.00  0.00     0.013 A 
HETATM   23 BR1  UNL     1      26.060   3.763  49.655  1.00  0.00    -0.051 Br
HETATM   24  C17 UNL     1      23.760   2.839  51.096  1.00  0.00     0.048 A 
ENDBRANCH  16  18
ENDBRANCH   7  16
TORSDOF 6
ENDMDL
MODEL 7
REMARK VINA RESULT:      -6.8      1.697      2.527
REMARK  6 active torsions:
REMARK  status: ('A' for Active; 'I' for Inactive)
REMARK    1  A    between atoms: C2_2  and  N1_3 
REMARK    2  A    between atoms: N1_3  and  C3_4 
REMARK    3  A    between atoms: C5_6  and  C6_7 
REMARK    4  A    between atoms: C6_7  and  C7_8 
REMARK    5  A    between atoms: C11_14  and  N4_15 
REMARK    6  A    between atoms: N4_15  and  C12_16 
ROOT
HETATM    1  C7  UNL     1      24.969   2.006  52.240  1.00  0.00    -0.010 C 
HETATM    2  C8  UNL     1      25.851   1.423  53.040  1.00  0.00     0.004 A 
HETATM    3  C9  UNL     1      26.989   2.197  53.536  1.00  0.00     0.192 A 
HETATM    4  N2  UNL     1      27.806   1.354  54.380  1.00  0.00    -0.278 NA
HETATM    5  C10 UNL     1      27.552   0.132  54.640  1.00  0.00     0.229 A 
HETATM    6  N3  UNL     1      26.437  -0.597  54.148  1.00  0.00    -0.224 NA
HETATM    7  C11 UNL     1      25.611   0.024  53.374  1.00  0.00     0.137 A 
ENDROOT
BRANCH   1   8
HETATM    8  C6  UNL     1      25.074   3.431  51.810  1.00  0.00     0.064 C 
BRANCH   8   9
HETATM    9  C5  UNL     1      25.776   3.528  50.496  1.00  0.00    -0.052 A 
HETATM   10  C3  UNL     1      26.211   4.192  49.293  1.00  0.00     0.134 A 
HETATM   11  C4  UNL     1      26.520   2.786  49.643  1.00  0.00     0.008 A 
BRANCH  10  12
HETATM   12  N1  UNL     1      27.400   5.051  49.311  1.00  0.00    -0.388 N 
HETATM   13  H4  UNL     1      28.023   4.780  50.087  1.00  0.00     0.159 HD
BRANCH  12  14
HETATM   14  C2  UNL     1      27.715   6.116  48.428  1.00  0.00     0.073 C 
HETATM   15  C1  UNL     1      28.975   6.139  48.029  1.00  0.00     0.029 C 
ENDBRANCH  12  14
ENDBRANCH  10  12
ENDBRANCH   8   9
ENDBRANCH   1   8
BRANCH   7  16
HETATM   16  N4  UNL     1      24.506  -0.728  52.903  1.00  0.00    -0.340 N 
HETATM   17  H13 UNL     1      24.737  -1.467  52.175  1.00  0.00     0.167 HD
BRANCH  16  18
HETATM   18  C12 UNL     1      23.156  -0.592  53.306  1.00  0.00     0.035 A 
HETATM   19  C13 UNL     1      22.638  -0.766  54.565  1.00  0.00     0.029 A 
HETATM   20  C14 UNL     1      21.317  -0.616  54.914  1.00  0.00     0.004 A 
HETATM   21  C15 UNL     1      20.409  -0.260  53.946  1.00  0.00     0.019 A 
HETATM   22  C16 UNL     1      20.873  -0.072  52.663  1.00  0.00     0.013 A 
HETATM   23 BR1  UNL     1      19.619   0.420  51.324  1.00  0.00    -0.051 Br
HETATM   24  C17 UNL     1      22.208  -0.235  52.366  1.00  0.00     0.048 A 
ENDBRANCH  16  18
ENDBRANCH   7  16
TORSDOF 6
ENDMDL
MODEL 8
REMARK VINA RESULT:      -6.7      2.552      5.052
REMARK  6 active torsions:
REMARK  status: ('A' for Active; 'I' for Inactive)
REMARK    1  A    between atoms: C2_2  and  N1_3 
REMARK    2  A    between atoms: N1_3  and  C3_4 
REMARK    3  A    between atoms: C5_6  and  C6_7 
REMARK    4  A    between atoms: C6_7  and  C7_8 
REMARK    5  A    between atoms: C11_14  and  N4_15 
REMARK    6  A    between atoms: N4_15  and  C12_16 
ROOT
HETATM    1  C7  UNL     1      22.776   1.748  52.159  1.00  0.00    -0.010 C 
HETATM    2  C8  UNL     1      22.533   0.849  53.102  1.00  0.00     0.004 A 
HETATM    3  C9  UNL     1      21.270   0.909  53.840  1.00  0.00     0.192 A 
HETATM    4  N2  UNL     1      21.234  -0.163  54.809  1.00  0.00    -0.278 NA
HETATM    5  C10 UNL     1      22.166  -1.018  54.974  1.00  0.00     0.229 A 
HETATM    6  N3  UNL     1      23.382  -1.056  54.241  1.00  0.00    -0.224 NA
HETATM    7  C11 UNL     1      23.563  -0.156  53.334  1.00  0.00     0.137 A 
ENDROOT
BRANCH   1   8
HETATM    8  C6  UNL     1      21.819   2.837  51.802  1.00  0.00     0.064 C 
BRANCH   8   9
HETATM    9  C5  UNL     1      22.533   4.144  51.704  1.00  0.00    -0.052 A 
HETATM   10  C3  UNL     1      23.654   5.036  51.862  1.00  0.00     0.134 A 
HETATM   11  C4  UNL     1      22.341   5.421  51.295  1.00  0.00     0.008 A 
BRANCH  10  12
HETATM   12  N1  UNL     1      24.727   5.060  50.862  1.00  0.00    -0.388 N 
HETATM   13  H4  UNL     1      25.193   5.981  50.862  1.00  0.00     0.159 HD
BRANCH  12  14
HETATM   14  C2  UNL     1      25.123   4.014  49.989  1.00  0.00     0.073 C 
HETATM   15  C1  UNL     1      26.408   3.711  50.050  1.00  0.00     0.029 C 
ENDBRANCH  12  14
ENDBRANCH  10  12
ENDBRANCH   8   9
ENDBRANCH   1   8
BRANCH   7  16
HETATM   16  N4  UNL     1      24.783  -0.224  52.617  1.00  0.00    -0.340 N 
HETATM   17  H13 UNL     1      24.754  -0.798  51.723  1.00  0.00     0.167 HD
BRANCH  16  18
HETATM   18  C12 UNL     1      26.009   0.390  52.971  1.00  0.00     0.035 A 
HETATM   19  C13 UNL     1      26.236   1.721  53.220  1.00  0.00     0.029 A 
HETATM   20  C14 UNL     1      27.444   2.274  53.570  1.00  0.00     0.004 A 
HETATM   21  C15 UNL     1      28.542   1.455  53.691  1.00  0.00     0.019 A 
HETATM   22  C16 UNL     1      28.372   0.109  53.453  1.00  0.00     0.013 A 
HETATM   23 BR1  UNL     1      29.888  -1.023  53.620  1.00  0.00    -0.051 Br
HETATM   24  C17 UNL     1      27.138  -0.395  53.105  1.00  0.00     0.048 A 
ENDBRANCH  16  18
ENDBRANCH   7  16
TORSDOF 6
ENDMDL
MODEL 9
REMARK VINA RESULT:      -6.7      1.952      5.079
REMARK  6 active torsions:
REMARK  status: ('A' for Active; 'I' for Inactive)
REMARK    1  A    between atoms: C2_2  and  N1_3 
REMARK    2  A    between atoms: N1_3  and  C3_4 
REMARK    3  A    between atoms: C5_6  and  C6_7 
REMARK    4  A    between atoms: C6_7  and  C7_8 
REMARK    5  A    between atoms: C11_14  and  N4_15 
REMARK    6  A    between atoms: N4_15  and  C12_16 
ROOT
HETATM    1  C7  UNL     1      24.293   0.454  53.327  1.00  0.00    -0.010 C 
HETATM    2  C8  UNL     1      25.597   0.678  53.247  1.00  0.00     0.004 A 
HETATM    3  C9  UNL     1      26.530  -0.401  53.571  1.00  0.00     0.192 A 
HETATM    4  N2  UNL     1      27.885   0.079  53.415  1.00  0.00    -0.278 NA
HETATM    5  C10 UNL     1      28.194   1.259  53.048  1.00  0.00     0.229 A 
HETATM    6  N3  UNL     1      27.267   2.290  52.735  1.00  0.00    -0.224 NA
HETATM    7  C11 UNL     1      26.010   2.012  52.829  1.00  0.00     0.137 A 
ENDROOT
BRANCH   1   8
HETATM    8  C6  UNL     1      23.714  -0.860  53.736  1.00  0.00     0.064 C 
BRANCH   8   9
HETATM    9  C5  UNL     1      22.295  -0.690  54.169  1.00  0.00    -0.052 A 
HETATM   10  C3  UNL     1      21.119   0.063  54.525  1.00  0.00     0.134 A 
HETATM   11  C4  UNL     1      21.203  -1.416  54.508  1.00  0.00     0.008 A 
BRANCH  10  12
HETATM   12  N1  UNL     1      20.233   0.588  53.480  1.00  0.00    -0.388 N 
HETATM   13  H4  UNL     1      19.258   0.303  53.664  1.00  0.00     0.159 HD
BRANCH  12  14
HETATM   14  C2  UNL     1      20.588   1.375  52.354  1.00  0.00     0.073 C 
HETATM   15  C1  UNL     1      20.406   2.674  52.518  1.00  0.00     0.029 C 
ENDBRANCH  12  14
ENDBRANCH  10  12
ENDBRANCH   8   9
ENDBRANCH   1   8
BRANCH   7  16
HETATM   16  N4  UNL     1      25.111   3.058  52.506  1.00  0.00    -0.340 N 
HETATM   17  H13 UNL     1      24.793   3.654  53.327  1.00  0.00     0.167 HD
BRANCH  16  18
HETATM   18  C12 UNL     1      24.610   3.379  51.222  1.00  0.00     0.035 A 
HETATM   19  C13 UNL     1      24.975   4.434  50.422  1.00  0.00     0.029 A 
HETATM   20  C14 UNL     1      24.468   4.703  49.174  1.00  0.00     0.004 A 
HETATM   21  C15 UNL     1      23.512   3.866  48.648  1.00  0.00     0.019 A 
HETATM   22  C16 UNL     1      23.109   2.791  49.407  1.00  0.00     0.013 A 
HETATM   23 BR1  UNL     1      21.788   1.633  48.681  1.00  0.00    -0.051 Br
HETATM   24  C17 UNL     1      23.649   2.565  50.654  1.00  0.00     0.048 A 
ENDBRANCH  16  18
ENDBRANCH   7  16
TORSDOF 6
ENDMDL
