MODEL 1
REMARK VINA RESULT:      -7.0      0.000      0.000
REMARK  7 active torsions:
REMARK  status: ('A' for Active; 'I' for Inactive)
REMARK    1  A    between atoms: C2_2  and  C3_3 
REMARK       I    between atoms: C3_3  and  N1_5 
REMARK    2  A    between atoms: N1_5  and  C4_6 
REMARK    3  A    between atoms: C14_19  and  O2_20 
REMARK    4  A    between atoms: C17_23  and  N5_24 
REMARK    5  A    between atoms: N5_24  and  C19_26 
REMARK    6  A    between atoms: C19_26  and  C20_27 
REMARK    7  A    between atoms: C20_27  and  N6_28 
ROOT
HETATM    1  C4  UNL     1      24.203   2.340  52.256  1.00  0.00     0.057 C 
HETATM    2  C5  UNL     1      25.139   2.310  53.122  1.00  0.00     0.004 C 
HETATM    3  C6  UNL     1      25.990   1.638  54.127  1.00  0.00     0.051 C 
HETATM    4  C7  UNL     1      27.430   1.696  53.401  1.00  0.00     0.151 C 
HETATM    5  N2  UNL     1      26.966   1.274  52.060  1.00  0.00    -0.304 NA
HETATM    6  C8  UNL     1      26.517   2.214  51.298  1.00  0.00     0.102 C 
HETATM    7  C9  UNL     1      25.971   3.064  50.262  1.00  0.00     0.167 C 
HETATM    8  N3  UNL     1      24.844   3.895  50.583  1.00  0.00    -0.360 N 
HETATM    9  C10 UNL     1      24.659   4.726  49.444  1.00  0.00     0.270 C 
HETATM   10  N4  UNL     1      25.678   5.734  49.237  1.00  0.00    -0.286 NA
HETATM   11  C11 UNL     1      25.668   6.923  49.728  1.00  0.00     0.089 C 
HETATM   12  C12 UNL     1      24.676   7.652  50.633  1.00  0.00     0.076 C 
HETATM   13  C13 UNL     1      23.756   6.617  51.102  1.00  0.00     0.011 C 
HETATM   14  C14 UNL     1      22.834   5.711  51.496  1.00  0.00     0.046 C 
HETATM   15  C16 UNL     1      23.307   4.529  52.266  1.00  0.00     0.124 C 
HETATM   16  C17 UNL     1      23.727   3.408  51.278  1.00  0.00     0.150 C 
ENDROOT
BRANCH  16  17
HETATM   17  N5  UNL     1      22.661   2.873  50.580  1.00  0.00    -0.385 N 
HETATM   18  C18 UNL     1      21.367   3.075  51.189  1.00  0.00     0.146 C 
BRANCH  17  19
HETATM   19  C19 UNL     1      22.689   2.124  49.426  1.00  0.00     0.138 C 
BRANCH  19  20
HETATM   20  C20 UNL     1      21.277   1.679  48.941  1.00  0.00     0.135 C 
BRANCH  20  21
HETATM   21  N6  UNL     1      20.913   2.405  47.741  1.00  0.00    -0.419 N 
HETATM   22  C21 UNL     1      19.668   3.102  47.812  1.00  0.00     0.142 C 
HETATM   23  C22 UNL     1      21.973   3.113  47.110  1.00  0.00     0.142 C 
ENDBRANCH  20  21
ENDBRANCH  19  20
ENDBRANCH  17  19
ENDBRANCH  16  17
BRANCH   1  24
HETATM   24  N1  UNL     1      23.868   0.981  52.439  1.00  0.00    -0.324 N 
HETATM   25  C3  UNL     1      22.730   0.444  53.149  1.00  0.00     0.241 C 
HETATM   26  O1  UNL     1      21.796   1.041  53.763  1.00  0.00    -0.269 OA
HETATM   27  H4  UNL     1      24.483   0.184  52.058  1.00  0.00     0.169 HD
BRANCH  25  28
HETATM   28  C2  UNL     1      22.566  -0.997  53.208  1.00  0.00     0.048 C 
HETATM   29  C1  UNL     1      21.891  -1.701  54.111  1.00  0.00     0.037 C 
ENDBRANCH  25  28
ENDBRANCH   1  24
BRANCH  14  30
HETATM   30  O2  UNL     1      22.053   6.634  50.832  1.00  0.00    -0.360 OA
HETATM   31  C15 UNL     1      21.320   6.312  49.659  1.00  0.00     0.209 C 
ENDBRANCH  14  30
TORSDOF 7
ENDMDL
MODEL 2
REMARK VINA RESULT:      -6.6      1.951      4.942
REMARK  7 active torsions:
REMARK  status: ('A' for Active; 'I' for Inactive)
REMARK    1  A    between atoms: C2_2  and  C3_3 
REMARK       I    between atoms: C3_3  and  N1_5 
REMARK    2  A    between atoms: N1_5  and  C4_6 
REMARK    3  A    between atoms: C14_19  and  O2_20 
REMARK    4  A    between atoms: C17_23  and  N5_24 
REMARK    5  A    between atoms: N5_24  and  C19_26 
REMARK    6  A    between atoms: C19_26  and  C20_27 
REMARK    7  A    between atoms: C20_27  and  N6_28 
ROOT
HETATM    1  C4  UNL     1      22.803   1.489  51.965  1.00  0.00     0.057 C 
HETATM    2  C5  UNL     1      22.290   0.354  52.241  1.00  0.00     0.004 C 
HETATM    3  C6  UNL     1      22.177  -0.889  53.034  1.00  0.00     0.051 C 
HETATM    4  C7  UNL     1      20.721  -0.698  53.704  1.00  0.00     0.151 C 
HETATM    5  N2  UNL     1      20.899   0.716  54.106  1.00  0.00    -0.304 NA
HETATM    6  C8  UNL     1      20.625   1.596  53.203  1.00  0.00     0.102 C 
HETATM    7  C9  UNL     1      20.392   2.766  52.384  1.00  0.00     0.167 C 
HETATM    8  N3  UNL     1      21.063   2.860  51.117  1.00  0.00    -0.360 N 
HETATM    9  C10 UNL     1      20.503   4.003  50.483  1.00  0.00     0.270 C 
HETATM   10  N4  UNL     1      19.130   3.861  50.043  1.00  0.00    -0.286 NA
HETATM   11  C11 UNL     1      18.751   3.417  48.897  1.00  0.00     0.089 C 
HETATM   12  C12 UNL     1      19.531   2.914  47.682  1.00  0.00     0.076 C 
HETATM   13  C13 UNL     1      20.911   2.775  48.145  1.00  0.00     0.011 C 
HETATM   14  C14 UNL     1      22.212   2.710  48.504  1.00  0.00     0.046 C 
HETATM   15  C16 UNL     1      22.577   1.811  49.632  1.00  0.00     0.124 C 
HETATM   16  C17 UNL     1      22.430   2.582  50.971  1.00  0.00     0.150 C 
ENDROOT
BRANCH  16  17
HETATM   17  N5  UNL     1      23.358   3.596  51.116  1.00  0.00    -0.385 N 
HETATM   18  C18 UNL     1      22.959   4.671  51.994  1.00  0.00     0.146 C 
BRANCH  17  19
HETATM   19  C19 UNL     1      24.571   3.737  50.480  1.00  0.00     0.138 C 
BRANCH  19  20
HETATM   20  C20 UNL     1      25.009   5.221  50.302  1.00  0.00     0.135 C 
BRANCH  20  21
HETATM   21  N6  UNL     1      25.922   5.337  49.182  1.00  0.00    -0.419 N 
HETATM   22  C21 UNL     1      26.319   6.672  48.864  1.00  0.00     0.142 C 
HETATM   23  C22 UNL     1      26.958   4.364  49.134  1.00  0.00     0.142 C 
ENDBRANCH  20  21
ENDBRANCH  19  20
ENDBRANCH  17  19
ENDBRANCH  16  17
BRANCH   1  24
HETATM   24  N1  UNL     1      23.751   1.415  53.008  1.00  0.00    -0.324 N 
HETATM   25  C3  UNL     1      25.150   1.072  52.902  1.00  0.00     0.241 C 
HETATM   26  O1  UNL     1      25.839   0.759  51.886  1.00  0.00    -0.269 OA
HETATM   27  H4  UNL     1      23.486   1.599  54.035  1.00  0.00     0.169 HD
BRANCH  25  28
HETATM   28  C2  UNL     1      25.956   1.067  54.110  1.00  0.00     0.048 C 
HETATM   29  C1  UNL     1      26.316   0.017  54.841  1.00  0.00     0.037 C 
ENDBRANCH  25  28
ENDBRANCH   1  24
BRANCH  14  30
HETATM   30  O2  UNL     1      22.255   3.612  47.461  1.00  0.00    -0.360 OA
HETATM   31  C15 UNL     1      22.560   4.985  47.650  1.00  0.00     0.209 C 
ENDBRANCH  14  30
TORSDOF 7
ENDMDL
MODEL 3
REMARK VINA RESULT:      -5.6      1.992      2.704
REMARK  7 active torsions:
REMARK  status: ('A' for Active; 'I' for Inactive)
REMARK    1  A    between atoms: C2_2  and  C3_3 
REMARK       I    between atoms: C3_3  and  N1_5 
REMARK    2  A    between atoms: N1_5  and  C4_6 
REMARK    3  A    between atoms: C14_19  and  O2_20 
REMARK    4  A    between atoms: C17_23  and  N5_24 
REMARK    5  A    between atoms: N5_24  and  C19_26 
REMARK    6  A    between atoms: C19_26  and  C20_27 
REMARK    7  A    between atoms: C20_27  and  N6_28 
ROOT
HETATM    1  C4  UNL     1      21.856   3.142  51.055  1.00  0.00     0.057 C 
HETATM    2  C5  UNL     1      22.390   2.735  52.140  1.00  0.00     0.004 C 
HETATM    3  C6  UNL     1      22.620   1.740  53.209  1.00  0.00     0.051 C 
HETATM    4  C7  UNL     1      24.176   1.383  52.970  1.00  0.00     0.151 C 
HETATM    5  N2  UNL     1      24.099   1.249  51.497  1.00  0.00    -0.304 NA
HETATM    6  C8  UNL     1      24.223   2.345  50.825  1.00  0.00     0.102 C 
HETATM    7  C9  UNL     1      24.326   3.410  49.852  1.00  0.00     0.167 C 
HETATM    8  N3  UNL     1      23.441   4.534  49.971  1.00  0.00    -0.360 N 
HETATM    9  C10 UNL     1      23.899   5.472  49.005  1.00  0.00     0.270 C 
HETATM   10  N4  UNL     1      25.168   6.104  49.303  1.00  0.00    -0.286 NA
HETATM   11  C11 UNL     1      25.327   7.185  49.982  1.00  0.00     0.089 C 
HETATM   12  C12 UNL     1      24.333   8.121  50.669  1.00  0.00     0.076 C 
HETATM   13  C13 UNL     1      23.057   7.409  50.641  1.00  0.00     0.011 C 
HETATM   14  C14 UNL     1      21.840   6.827  50.566  1.00  0.00     0.046 C 
HETATM   15  C16 UNL     1      21.667   5.495  51.207  1.00  0.00     0.124 C 
HETATM   16  C17 UNL     1      22.065   4.384  50.198  1.00  0.00     0.150 C 
ENDROOT
BRANCH  16  17
HETATM   17  N5  UNL     1      21.197   4.289  49.127  1.00  0.00    -0.385 N 
HETATM   18  C18 UNL     1      19.904   4.901  49.330  1.00  0.00     0.146 C 
BRANCH  17  19
HETATM   19  C19 UNL     1      21.388   3.632  47.932  1.00  0.00     0.138 C 
BRANCH  19  20
HETATM   20  C20 UNL     1      21.164   4.537  46.684  1.00  0.00     0.135 C 
BRANCH  20  21
HETATM   21  N6  UNL     1      20.461   3.798  45.655  1.00  0.00    -0.419 N 
HETATM   22  C21 UNL     1      19.098   3.493  45.955  1.00  0.00     0.142 C 
HETATM   23  C22 UNL     1      20.712   4.221  44.320  1.00  0.00     0.142 C 
ENDBRANCH  20  21
ENDBRANCH  19  20
ENDBRANCH  17  19
ENDBRANCH  16  17
BRANCH   1  24
HETATM   24  N1  UNL     1      21.109   1.958  50.874  1.00  0.00    -0.324 N 
HETATM   25  C3  UNL     1      19.732   1.722  51.239  1.00  0.00     0.241 C 
HETATM   26  O1  UNL     1      18.893   2.490  51.798  1.00  0.00    -0.269 OA
HETATM   27  H4  UNL     1      21.540   1.072  50.439  1.00  0.00     0.169 HD
BRANCH  25  28
HETATM   28  C2  UNL     1      19.150   0.424  50.949  1.00  0.00     0.048 C 
HETATM   29  C1  UNL     1      18.309  -0.275  51.705  1.00  0.00     0.037 C 
ENDBRANCH  25  28
ENDBRANCH   1  24
BRANCH  14  30
HETATM   30  O2  UNL     1      21.627   8.007  49.883  1.00  0.00    -0.360 OA
HETATM   31  C15 UNL     1      20.338   8.582  49.735  1.00  0.00     0.209 C 
ENDBRANCH  14  30
TORSDOF 7
ENDMDL
MODEL 4
REMARK VINA RESULT:      -5.5      2.831      6.351
REMARK  7 active torsions:
REMARK  status: ('A' for Active; 'I' for Inactive)
REMARK    1  A    between atoms: C2_2  and  C3_3 
REMARK       I    between atoms: C3_3  and  N1_5 
REMARK    2  A    between atoms: N1_5  and  C4_6 
REMARK    3  A    between atoms: C14_19  and  O2_20 
REMARK    4  A    between atoms: C17_23  and  N5_24 
REMARK    5  A    between atoms: N5_24  and  C19_26 
REMARK    6  A    between atoms: C19_26  and  C20_27 
REMARK    7  A    between atoms: C20_27  and  N6_28 
ROOT
HETATM    1  C4  UNL     1      22.876   6.170  48.201  1.00  0.00     0.057 C 
HETATM    2  C5  UNL     1      22.732   6.154  46.934  1.00  0.00     0.004 C 
HETATM    3  C6  UNL     1      21.947   6.303  45.690  1.00  0.00     0.051 C 
HETATM    4  C7  UNL     1      22.660   7.591  45.027  1.00  0.00     0.151 C 
HETATM    5  N2  UNL     1      22.722   8.409  46.259  1.00  0.00    -0.304 NA
HETATM    6  C8  UNL     1      23.745   8.205  47.019  1.00  0.00     0.102 C 
HETATM    7  C9  UNL     1      24.776   8.167  48.034  1.00  0.00     0.167 C 
HETATM    8  N3  UNL     1      25.087   6.906  48.647  1.00  0.00    -0.360 N 
HETATM    9  C10 UNL     1      26.235   7.155  49.448  1.00  0.00     0.270 C 
HETATM   10  N4  UNL     1      27.462   7.402  48.718  1.00  0.00    -0.286 NA
HETATM   11  C11 UNL     1      28.300   6.505  48.333  1.00  0.00     0.089 C 
HETATM   12  C12 UNL     1      28.316   4.984  48.482  1.00  0.00     0.076 C 
HETATM   13  C13 UNL     1      26.984   4.635  48.972  1.00  0.00     0.011 C 
HETATM   14  C14 UNL     1      25.795   4.272  49.502  1.00  0.00     0.046 C 
HETATM   15  C16 UNL     1      24.563   4.601  48.735  1.00  0.00     0.124 C 
HETATM   16  C17 UNL     1      24.092   6.032  49.109  1.00  0.00     0.150 C 
ENDROOT
BRANCH  16  17
HETATM   17  N5  UNL     1      23.640   6.130  50.411  1.00  0.00    -0.385 N 
HETATM   18  C18 UNL     1      23.164   7.437  50.799  1.00  0.00     0.146 C 
BRANCH  17  19
HETATM   19  C19 UNL     1      23.651   5.163  51.391  1.00  0.00     0.138 C 
BRANCH  19  20
HETATM   20  C20 UNL     1      22.262   4.942  52.061  1.00  0.00     0.135 C 
BRANCH  20  21
HETATM   21  N6  UNL     1      21.883   3.547  51.970  1.00  0.00    -0.419 N 
HETATM   22  C21 UNL     1      22.861   2.624  52.452  1.00  0.00     0.142 C 
HETATM   23  C22 UNL     1      20.538   3.254  52.330  1.00  0.00     0.142 C 
ENDBRANCH  20  21
ENDBRANCH  19  20
ENDBRANCH  17  19
ENDBRANCH  16  17
BRANCH   1  24
HETATM   24  N1  UNL     1      21.526   6.502  48.441  1.00  0.00    -0.324 N 
HETATM   25  C3  UNL     1      20.454   5.610  48.817  1.00  0.00     0.241 C 
HETATM   26  O1  UNL     1      20.464   4.358  49.008  1.00  0.00    -0.269 OA
HETATM   27  H4  UNL     1      21.157   7.509  48.336  1.00  0.00     0.169 HD
BRANCH  25  28
HETATM   28  C2  UNL     1      19.129   6.166  49.027  1.00  0.00     0.048 C 
HETATM   29  C1  UNL     1      18.403   6.879  48.171  1.00  0.00     0.037 C 
ENDBRANCH  25  28
ENDBRANCH   1  24
BRANCH  14  30
HETATM   30  O2  UNL     1      26.678   3.818  50.460  1.00  0.00    -0.360 OA
HETATM   31  C15 UNL     1      26.553   2.544  51.073  1.00  0.00     0.209 C 
ENDBRANCH  14  30
TORSDOF 7
ENDMDL
MODEL 5
REMARK VINA RESULT:      -5.5      2.643      3.884
REMARK  7 active torsions:
REMARK  status: ('A' for Active; 'I' for Inactive)
REMARK    1  A    between atoms: C2_2  and  C3_3 
REMARK       I    between atoms: C3_3  and  N1_5 
REMARK    2  A    between atoms: N1_5  and  C4_6 
REMARK    3  A    between atoms: C14_19  and  O2_20 
REMARK    4  A    between atoms: C17_23  and  N5_24 
REMARK    5  A    between atoms: N5_24  and  C19_26 
REMARK    6  A    between atoms: C19_26  and  C20_27 
REMARK    7  A    between atoms: C20_27  and  N6_28 
ROOT
HETATM    1  C4  UNL     1      20.360   1.702  51.857  1.00  0.00     0.057 C 
HETATM    2  C5  UNL     1      20.698   1.335  53.032  1.00  0.00     0.004 C 
HETATM    3  C6  UNL     1      20.635   0.440  54.206  1.00  0.00     0.051 C 
HETATM    4  C7  UNL     1      22.120  -0.194  54.192  1.00  0.00     0.151 C 
HETATM    5  N2  UNL     1      22.175  -0.475  52.740  1.00  0.00    -0.304 NA
HETATM    6  C8  UNL     1      22.560   0.504  51.991  1.00  0.00     0.102 C 
HETATM    7  C9  UNL     1      22.951   1.423  50.944  1.00  0.00     0.167 C 
HETATM    8  N3  UNL     1      22.271   2.685  50.852  1.00  0.00    -0.360 N 
HETATM    9  C10 UNL     1      22.986   3.421  49.868  1.00  0.00     0.270 C 
HETATM   10  N4  UNL     1      24.308   3.864  50.260  1.00  0.00    -0.286 NA
HETATM   11  C11 UNL     1      24.584   4.973  50.852  1.00  0.00     0.089 C 
HETATM   12  C12 UNL     1      23.705   6.130  51.325  1.00  0.00     0.076 C 
HETATM   13  C13 UNL     1      22.333   5.640  51.206  1.00  0.00     0.011 C 
HETATM   14  C14 UNL     1      21.047   5.261  51.036  1.00  0.00     0.046 C 
HETATM   15  C16 UNL     1      20.575   4.055  51.770  1.00  0.00     0.124 C 
HETATM   16  C17 UNL     1      20.874   2.790  50.922  1.00  0.00     0.150 C 
ENDROOT
BRANCH  16  17
HETATM   17  N5  UNL     1      20.119   2.722  49.766  1.00  0.00    -0.385 N 
HETATM   18  C18 UNL     1      20.603   1.792  48.772  1.00  0.00     0.146 C 
BRANCH  17  19
HETATM   19  C19 UNL     1      19.016   3.471  49.425  1.00  0.00     0.138 C 
BRANCH  19  20
HETATM   20  C20 UNL     1      18.261   2.929  48.175  1.00  0.00     0.135 C 
BRANCH  20  21
HETATM   21  N6  UNL     1      16.830   3.016  48.385  1.00  0.00    -0.419 N 
HETATM   22  C21 UNL     1      16.177   4.062  47.663  1.00  0.00     0.142 C 
HETATM   23  C22 UNL     1      16.140   1.772  48.415  1.00  0.00     0.142 C 
ENDBRANCH  20  21
ENDBRANCH  19  20
ENDBRANCH  17  19
ENDBRANCH  16  17
BRANCH   1  24
HETATM   24  N1  UNL     1      19.440   0.645  51.694  1.00  0.00    -0.324 N 
HETATM   25  C3  UNL     1      17.999   0.732  51.653  1.00  0.00     0.241 C 
HETATM   26  O1  UNL     1      17.239   1.741  51.756  1.00  0.00    -0.269 OA
HETATM   27  H4  UNL     1      19.757  -0.381  51.603  1.00  0.00     0.169 HD
BRANCH  25  28
HETATM   28  C2  UNL     1      17.234  -0.488  51.464  1.00  0.00     0.048 C 
HETATM   29  C1  UNL     1      16.730  -1.283  52.402  1.00  0.00     0.037 C 
ENDBRANCH  25  28
ENDBRANCH   1  24
BRANCH  14  30
HETATM   30  O2  UNL     1      21.118   6.377  50.228  1.00  0.00    -0.360 OA
HETATM   31  C15 UNL     1      21.023   6.305  48.813  1.00  0.00     0.209 C 
ENDBRANCH  14  30
TORSDOF 7
ENDMDL
MODEL 6
REMARK VINA RESULT:      -5.5      2.404      5.559
REMARK  7 active torsions:
REMARK  status: ('A' for Active; 'I' for Inactive)
REMARK    1  A    between atoms: C2_2  and  C3_3 
REMARK       I    between atoms: C3_3  and  N1_5 
REMARK    2  A    between atoms: N1_5  and  C4_6 
REMARK    3  A    between atoms: C14_19  and  O2_20 
REMARK    4  A    between atoms: C17_23  and  N5_24 
REMARK    5  A    between atoms: N5_24  and  C19_26 
REMARK    6  A    between atoms: C19_26  and  C20_27 
REMARK    7  A    between atoms: C20_27  and  N6_28 
ROOT
HETATM    1  C4  UNL     1      23.172   2.907  49.998  1.00  0.00     0.057 C 
HETATM    2  C5  UNL     1      23.598   2.059  50.851  1.00  0.00     0.004 C 
HETATM    3  C6  UNL     1      24.661   1.369  51.612  1.00  0.00     0.051 C 
HETATM    4  C7  UNL     1      24.347   1.877  53.112  1.00  0.00     0.151 C 
HETATM    5  N2  UNL     1      24.144   3.303  52.774  1.00  0.00    -0.304 NA
HETATM    6  C8  UNL     1      22.954   3.627  52.390  1.00  0.00     0.102 C 
HETATM    7  C9  UNL     1      21.728   4.243  51.934  1.00  0.00     0.167 C 
HETATM    8  N3  UNL     1      21.075   3.696  50.778  1.00  0.00    -0.360 N 
HETATM    9  C10 UNL     1      19.833   4.382  50.691  1.00  0.00     0.270 C 
HETATM   10  N4  UNL     1      18.866   4.053  51.718  1.00  0.00    -0.286 NA
HETATM   11  C11 UNL     1      17.999   3.105  51.657  1.00  0.00     0.089 C 
HETATM   12  C12 UNL     1      17.692   2.063  50.582  1.00  0.00     0.076 C 
HETATM   13  C13 UNL     1      18.798   2.159  49.631  1.00  0.00     0.011 C 
HETATM   14  C14 UNL     1      19.754   2.269  48.682  1.00  0.00     0.046 C 
HETATM   15  C16 UNL     1      21.167   2.040  49.091  1.00  0.00     0.124 C 
HETATM   16  C17 UNL     1      21.774   3.372  49.606  1.00  0.00     0.150 C 
ENDROOT
BRANCH  16  17
HETATM   17  N5  UNL     1      21.926   4.318  48.610  1.00  0.00    -0.385 N 
HETATM   18  C18 UNL     1      22.302   3.794  47.318  1.00  0.00     0.146 C 
BRANCH  17  19
HETATM   19  C19 UNL     1      21.830   5.688  48.716  1.00  0.00     0.138 C 
BRANCH  19  20
HETATM   20  C20 UNL     1      22.327   6.444  47.448  1.00  0.00     0.135 C 
BRANCH  20  21
HETATM   21  N6  UNL     1      23.375   7.377  47.806  1.00  0.00    -0.419 N 
HETATM   22  C21 UNL     1      24.214   7.787  46.725  1.00  0.00     0.142 C 
HETATM   23  C22 UNL     1      22.993   8.410  48.707  1.00  0.00     0.142 C 
ENDBRANCH  20  21
ENDBRANCH  19  20
ENDBRANCH  17  19
ENDBRANCH  16  17
BRANCH   1  24
HETATM   24  N1  UNL     1      24.467   3.349  49.656  1.00  0.00    -0.324 N 
HETATM   25  C3  UNL     1      25.042   4.653  49.888  1.00  0.00     0.241 C 
HETATM   26  O1  UNL     1      24.537   5.682  50.428  1.00  0.00    -0.269 OA
HETATM   27  H4  UNL     1      25.171   2.714  49.143  1.00  0.00     0.169 HD
BRANCH  25  28
HETATM   28  C2  UNL     1      26.409   4.895  49.463  1.00  0.00     0.048 C 
HETATM   29  C1  UNL     1      26.849   5.848  48.647  1.00  0.00     0.037 C 
ENDBRANCH  25  28
ENDBRANCH   1  24
BRANCH  14  30
HETATM   30  O2  UNL     1      18.611   2.540  47.959  1.00  0.00    -0.360 OA
HETATM   31  C15 UNL     1      18.434   3.747  47.233  1.00  0.00     0.209 C 
ENDBRANCH  14  30
TORSDOF 7
ENDMDL
MODEL 7
REMARK VINA RESULT:      -5.3     23.882     26.963
REMARK  7 active torsions:
REMARK  status: ('A' for Active; 'I' for Inactive)
REMARK    1  A    between atoms: C2_2  and  C3_3 
REMARK       I    between atoms: C3_3  and  N1_5 
REMARK    2  A    between atoms: N1_5  and  C4_6 
REMARK    3  A    between atoms: C14_19  and  O2_20 
REMARK    4  A    between atoms: C17_23  and  N5_24 
REMARK    5  A    between atoms: N5_24  and  C19_26 
REMARK    6  A    between atoms: C19_26  and  C20_27 
REMARK    7  A    between atoms: C20_27  and  N6_28 
ROOT
HETATM    1  C4  UNL     1      40.219   1.851  70.753  1.00  0.00     0.057 C 
HETATM    2  C5  UNL     1      39.143   1.206  70.986  1.00  0.00     0.004 C 
HETATM    3  C6  UNL     1      37.681   1.099  71.177  1.00  0.00     0.051 C 
HETATM    4  C7  UNL     1      37.265   0.216  69.891  1.00  0.00     0.151 C 
HETATM    5  N2  UNL     1      38.078   0.957  68.901  1.00  0.00    -0.304 NA
HETATM    6  C8  UNL     1      39.309   0.582  68.790  1.00  0.00     0.102 C 
HETATM    7  C9  UNL     1      40.705   0.364  68.478  1.00  0.00     0.167 C 
HETATM    8  N3  UNL     1      41.660   0.400  69.550  1.00  0.00    -0.360 N 
HETATM    9  C10 UNL     1      42.887  -0.022  68.969  1.00  0.00     0.270 C 
HETATM   10  N4  UNL     1      42.955  -1.422  68.604  1.00  0.00    -0.286 NA
HETATM   11  C11 UNL     1      43.340  -2.380  69.372  1.00  0.00     0.089 C 
HETATM   12  C12 UNL     1      43.822  -2.403  70.822  1.00  0.00     0.076 C 
HETATM   13  C13 UNL     1      43.529  -1.068  71.342  1.00  0.00     0.011 C 
HETATM   14  C14 UNL     1      43.353   0.175  71.842  1.00  0.00     0.046 C 
HETATM   15  C16 UNL     1      41.969   0.721  71.873  1.00  0.00     0.124 C 
HETATM   16  C17 UNL     1      41.660   1.413  70.519  1.00  0.00     0.150 C 
ENDROOT
BRANCH  16  17
HETATM   17  N5  UNL     1      42.404   2.561  70.316  1.00  0.00    -0.385 N 
HETATM   18  C18 UNL     1      42.901   3.190  71.517  1.00  0.00     0.146 C 
BRANCH  17  19
HETATM   19  C19 UNL     1      42.668   3.204  69.128  1.00  0.00     0.138 C 
BRANCH  19  20
HETATM   20  C20 UNL     1      43.802   4.267  69.237  1.00  0.00     0.135 C 
BRANCH  20  21
HETATM   21  N6  UNL     1      44.720   4.129  68.125  1.00  0.00    -0.419 N 
HETATM   22  C21 UNL     1      44.601   2.908  67.392  1.00  0.00     0.142 C 
HETATM   23  C22 UNL     1      44.906   5.299  67.337  1.00  0.00     0.142 C 
ENDBRANCH  20  21
ENDBRANCH  19  20
ENDBRANCH  17  19
ENDBRANCH  16  17
BRANCH   1  24
HETATM   24  N1  UNL     1      39.559   3.094  70.653  1.00  0.00    -0.324 N 
HETATM   25  C3  UNL     1      39.415   4.098  71.681  1.00  0.00     0.241 C 
HETATM   26  O1  UNL     1      39.826   4.103  72.880  1.00  0.00    -0.269 OA
HETATM   27  H4  UNL     1      39.060   3.406  69.751  1.00  0.00     0.169 HD
BRANCH  25  28
HETATM   28  C2  UNL     1      38.702   5.322  71.361  1.00  0.00     0.048 C 
HETATM   29  C1  UNL     1      37.483   5.439  70.845  1.00  0.00     0.037 C 
ENDBRANCH  25  28
ENDBRANCH   1  24
BRANCH  14  30
HETATM   30  O2  UNL     1      44.717   0.013  71.970  1.00  0.00    -0.360 OA
HETATM   31  C15 UNL     1      45.651   0.815  71.264  1.00  0.00     0.209 C 
ENDBRANCH  14  30
TORSDOF 7
ENDMDL
MODEL 8
REMARK VINA RESULT:      -5.0     22.921     26.236
REMARK  7 active torsions:
REMARK  status: ('A' for Active; 'I' for Inactive)
REMARK    1  A    between atoms: C2_2  and  C3_3 
REMARK       I    between atoms: C3_3  and  N1_5 
REMARK    2  A    between atoms: N1_5  and  C4_6 
REMARK    3  A    between atoms: C14_19  and  O2_20 
REMARK    4  A    between atoms: C17_23  and  N5_24 
REMARK    5  A    between atoms: N5_24  and  C19_26 
REMARK    6  A    between atoms: C19_26  and  C20_27 
REMARK    7  A    between atoms: C20_27  and  N6_28 
ROOT
HETATM    1  C4  UNL     1      42.431  -0.756  69.552  1.00  0.00     0.057 C 
HETATM    2  C5  UNL     1      43.508  -1.316  69.946  1.00  0.00     0.004 C 
HETATM    3  C6  UNL     1      44.908  -1.303  70.419  1.00  0.00     0.051 C 
HETATM    4  C7  UNL     1      44.732  -1.862  71.923  1.00  0.00     0.151 C 
HETATM    5  N2  UNL     1      43.562  -1.029  72.282  1.00  0.00    -0.304 NA
HETATM    6  C8  UNL     1      42.409  -1.504  71.946  1.00  0.00     0.102 C 
HETATM    7  C9  UNL     1      41.018  -1.803  71.681  1.00  0.00     0.167 C 
HETATM    8  N3  UNL     1      40.624  -2.083  70.328  1.00  0.00    -0.360 N 
HETATM    9  C10 UNL     1      39.270  -2.509  70.416  1.00  0.00     0.270 C 
HETATM   10  N4  UNL     1      39.064  -3.807  71.024  1.00  0.00    -0.286 NA
HETATM   11  C11 UNL     1      39.060  -4.934  70.404  1.00  0.00     0.089 C 
HETATM   12  C12 UNL     1      39.256  -5.297  68.933  1.00  0.00     0.076 C 
HETATM   13  C13 UNL     1      39.734  -4.070  68.298  1.00  0.00     0.011 C 
HETATM   14  C14 UNL     1      40.098  -2.940  67.653  1.00  0.00     0.046 C 
HETATM   15  C16 UNL     1      41.353  -2.267  68.085  1.00  0.00     0.124 C 
HETATM   16  C17 UNL     1      41.036  -1.289  69.248  1.00  0.00     0.150 C 
ENDROOT
BRANCH  16  17
HETATM   17  N5  UNL     1      40.267  -0.210  68.854  1.00  0.00    -0.385 N 
HETATM   18  C18 UNL     1      40.167  -0.018  67.426  1.00  0.00     0.146 C 
BRANCH  17  19
HETATM   19  C19 UNL     1      39.648   0.730  69.647  1.00  0.00     0.138 C 
BRANCH  19  20
HETATM   20  C20 UNL     1      38.104   0.785  69.454  1.00  0.00     0.135 C 
BRANCH  20  21
HETATM   21  N6  UNL     1      37.443   0.801  70.743  1.00  0.00    -0.419 N 
HETATM   22  C21 UNL     1      37.364   2.085  71.365  1.00  0.00     0.142 C 
HETATM   23  C22 UNL     1      36.268   0.005  70.837  1.00  0.00     0.142 C 
ENDBRANCH  20  21
ENDBRANCH  19  20
ENDBRANCH  17  19
ENDBRANCH  16  17
BRANCH   1  24
HETATM   24  N1  UNL     1      42.970   0.545  69.636  1.00  0.00    -0.324 N 
HETATM   25  C3  UNL     1      43.358   1.409  68.546  1.00  0.00     0.241 C 
HETATM   26  O1  UNL     1      43.317   1.212  67.295  1.00  0.00    -0.269 OA
HETATM   27  H4  UNL     1      43.168   1.022  70.582  1.00  0.00     0.169 HD
BRANCH  25  28
HETATM   28  C2  UNL     1      43.885   2.726  68.858  1.00  0.00     0.048 C 
HETATM   29  C1  UNL     1      44.401   3.614  68.014  1.00  0.00     0.037 C 
ENDBRANCH  25  28
ENDBRANCH   1  24
BRANCH  14  30
HETATM   30  O2  UNL     1      38.927  -3.268  67.002  1.00  0.00    -0.360 OA
HETATM   31  C15 UNL     1      37.742  -2.496  67.124  1.00  0.00     0.209 C 
ENDBRANCH  14  30
TORSDOF 7
ENDMDL
MODEL 9
REMARK VINA RESULT:      -4.9     23.514     25.244
REMARK  7 active torsions:
REMARK  status: ('A' for Active; 'I' for Inactive)
REMARK    1  A    between atoms: C2_2  and  C3_3 
REMARK       I    between atoms: C3_3  and  N1_5 
REMARK    2  A    between atoms: N1_5  and  C4_6 
REMARK    3  A    between atoms: C14_19  and  O2_20 
REMARK    4  A    between atoms: C17_23  and  N5_24 
REMARK    5  A    between atoms: N5_24  and  C19_26 
REMARK    6  A    between atoms: C19_26  and  C20_27 
REMARK    7  A    between atoms: C20_27  and  N6_28 
ROOT
HETATM    1  C4  UNL     1      40.125  -0.692  69.269  1.00  0.00     0.057 C 
HETATM    2  C5  UNL     1      41.086  -0.243  68.559  1.00  0.00     0.004 C 
HETATM    3  C6  UNL     1      42.080   0.781  68.175  1.00  0.00     0.051 C 
HETATM    4  C7  UNL     1      43.458   0.033  68.559  1.00  0.00     0.151 C 
HETATM    5  N2  UNL     1      43.021  -0.471  69.880  1.00  0.00    -0.304 NA
HETATM    6  C8  UNL     1      42.385  -1.595  69.872  1.00  0.00     0.102 C 
HETATM    7  C9  UNL     1      41.658  -2.817  70.136  1.00  0.00     0.167 C 
HETATM    8  N3  UNL     1      40.418  -3.039  69.446  1.00  0.00    -0.360 N 
HETATM    9  C10 UNL     1      40.046  -4.373  69.769  1.00  0.00     0.270 C 
HETATM   10  N4  UNL     1      40.865  -5.409  69.176  1.00  0.00    -0.286 NA
HETATM   11  C11 UNL     1      40.670  -5.956  68.028  1.00  0.00     0.089 C 
HETATM   12  C12 UNL     1      39.603  -5.737  66.955  1.00  0.00     0.076 C 
HETATM   13  C13 UNL     1      38.897  -4.523  67.362  1.00  0.00     0.011 C 
HETATM   14  C14 UNL     1      38.162  -3.454  67.740  1.00  0.00     0.046 C 
HETATM   15  C16 UNL     1      38.864  -2.151  67.900  1.00  0.00     0.124 C 
HETATM   16  C17 UNL     1      39.432  -2.047  69.340  1.00  0.00     0.150 C 
ENDROOT
BRANCH  16  17
HETATM   17  N5  UNL     1      38.447  -1.949  70.305  1.00  0.00    -0.385 N 
HETATM   18  C18 UNL     1      38.846  -2.355  71.632  1.00  0.00     0.146 C 
BRANCH  17  19
HETATM   19  C19 UNL     1      37.130  -1.581  70.142  1.00  0.00     0.138 C 
BRANCH  19  20
HETATM   20  C20 UNL     1      36.291  -1.686  71.450  1.00  0.00     0.135 C 
BRANCH  20  21
HETATM   21  N6  UNL     1      35.333  -0.601  71.514  1.00  0.00    -0.419 N 
HETATM   22  C21 UNL     1      34.224  -0.825  72.387  1.00  0.00     0.142 C 
HETATM   23  C22 UNL     1      35.892   0.706  71.560  1.00  0.00     0.142 C 
ENDBRANCH  20  21
ENDBRANCH  19  20
ENDBRANCH  17  19
ENDBRANCH  16  17
BRANCH   1  24
HETATM   24  N1  UNL     1      40.038   0.479  70.052  1.00  0.00    -0.324 N 
HETATM   25  C3  UNL     1      39.106   1.572  69.900  1.00  0.00     0.241 C 
HETATM   26  O1  UNL     1      38.179   1.741  69.053  1.00  0.00    -0.269 OA
HETATM   27  H4  UNL     1      40.716   0.675  70.865  1.00  0.00     0.169 HD
BRANCH  25  28
HETATM   28  C2  UNL     1      39.183   2.685  70.829  1.00  0.00     0.048 C 
HETATM   29  C1  UNL     1      38.318   3.684  70.973  1.00  0.00     0.037 C 
ENDBRANCH  25  28
ENDBRANCH   1  24
BRANCH  14  30
HETATM   30  O2  UNL     1      37.207  -4.448  67.699  1.00  0.00    -0.360 OA
HETATM   31  C15 UNL     1      36.589  -4.964  68.868  1.00  0.00     0.209 C 
ENDBRANCH  14  30
TORSDOF 7
ENDMDL
