MODEL 1
REMARK VINA RESULT:      -7.4      0.000      0.000
REMARK  7 active torsions:
REMARK  status: ('A' for Active; 'I' for Inactive)
REMARK    1  A    between atoms: N1_2  and  C3_4 
REMARK    2  A    between atoms: C3_4  and  C4_5 
REMARK    3  A    between atoms: C4_5  and  C5_6 
REMARK    4  A    between atoms: C5_6  and  C6_7 
REMARK    5  A    between atoms: C10_11  and  O1_12 
REMARK    6  A    between atoms: O1_12  and  C11_13 
REMARK    7  A    between atoms: C11_13  and  C12_14 
ROOT
HETATM    1  C6  UNL     1      25.235   0.047  54.130  1.00  0.00     0.030 C 
HETATM    2  C7  UNL     1      25.961  -0.881  53.249  1.00  0.00    -0.018 C 
HETATM    3  C8  UNL     1      26.666  -0.764  52.136  1.00  0.00    -0.001 C 
HETATM    4  C9  UNL     1      26.863   0.560  51.500  1.00  0.00     0.036 C 
HETATM    5  C10 UNL     1      26.970   1.748  52.130  1.00  0.00     0.068 C 
HETATM    6  C17 UNL     1      26.913   1.962  53.596  1.00  0.00     0.033 C 
HETATM    7  C18 UNL     1      26.164   1.216  54.393  1.00  0.00    -0.015 C 
ENDROOT
BRANCH   5   8
HETATM    8  O1  UNL     1      27.154   2.893  51.348  1.00  0.00    -0.347 OA
BRANCH   8   9
HETATM    9  C11 UNL     1      26.455   2.938  50.136  1.00  0.00     0.205 C 
BRANCH   9  10
HETATM   10  C12 UNL     1      26.867   4.074  49.280  1.00  0.00     0.030 C 
HETATM   11  C13 UNL     1      26.600   5.367  49.309  1.00  0.00     0.041 C 
HETATM   12  C14 UNL     1      27.126   6.343  48.338  1.00  0.00     0.027 C 
HETATM   13  N3  UNL     1      25.743   5.906  50.338  1.00  0.00    -0.321 N 
HETATM   14  C15 UNL     1      26.753   7.579  48.526  1.00  0.00    -0.009 C 
HETATM   15  C16 UNL     1      25.868   8.080  49.606  1.00  0.00     0.137 C 
HETATM   16  N2  UNL     1      25.981   7.216  50.768  1.00  0.00    -0.237 NA
HETATM   17  H24 UNL     1      26.896   7.234  51.229  1.00  0.00     0.146 HD
HETATM   18  H25 UNL     1      24.973   5.280  50.718  1.00  0.00     0.180 HD
ENDBRANCH   9  10
ENDBRANCH   8   9
ENDBRANCH   5   8
BRANCH   1  19
HETATM   19  C5  UNL     1      24.041   0.602  53.444  1.00  0.00     0.014 C 
BRANCH  19  20
HETATM   20  C4  UNL     1      22.818  -0.213  53.349  1.00  0.00     0.031 C 
BRANCH  20  21
HETATM   21  C3  UNL     1      21.911  -0.008  52.194  1.00  0.00     0.271 C 
BRANCH  21  22
HETATM   22  N1  UNL     1      20.586   0.396  52.666  1.00  0.00     0.080 N 
HETATM   23  C1  UNL     1      20.367  -0.122  54.020  1.00  0.00     0.309 C 
HETATM   24  C2  UNL     1      20.464   1.839  52.734  1.00  0.00     0.309 C 
ENDBRANCH  21  22
ENDBRANCH  20  21
ENDBRANCH  19  20
ENDBRANCH   1  19
TORSDOF 7
ENDMDL
MODEL 2
REMARK VINA RESULT:      -7.3      1.278      1.531
REMARK  7 active torsions:
REMARK  status: ('A' for Active; 'I' for Inactive)
REMARK    1  A    between atoms: N1_2  and  C3_4 
REMARK    2  A    between atoms: C3_4  and  C4_5 
REMARK    3  A    between atoms: C4_5  and  C5_6 
REMARK    4  A    between atoms: C5_6  and  C6_7 
REMARK    5  A    between atoms: C10_11  and  O1_12 
REMARK    6  A    between atoms: O1_12  and  C11_13 
REMARK    7  A    between atoms: C11_13  and  C12_14 
ROOT
HETATM    1  C6  UNL     1      24.985  -0.211  53.891  1.00  0.00     0.030 C 
HETATM    2  C7  UNL     1      26.121  -0.841  53.199  1.00  0.00    -0.018 C 
HETATM    3  C8  UNL     1      26.933  -0.493  52.215  1.00  0.00    -0.001 C 
HETATM    4  C9  UNL     1      26.790   0.822  51.544  1.00  0.00     0.036 C 
HETATM    5  C10 UNL     1      26.386   1.976  52.114  1.00  0.00     0.068 C 
HETATM    6  C17 UNL     1      26.002   2.157  53.535  1.00  0.00     0.033 C 
HETATM    7  C18 UNL     1      25.414   1.201  54.237  1.00  0.00    -0.015 C 
ENDROOT
BRANCH   5   8
HETATM    8  O1  UNL     1      26.317   3.117  51.309  1.00  0.00    -0.347 OA
BRANCH   8   9
HETATM    9  C11 UNL     1      26.342   2.906  49.925  1.00  0.00     0.205 C 
BRANCH   9  10
HETATM   10  C12 UNL     1      26.895   4.060  49.180  1.00  0.00     0.030 C 
HETATM   11  C13 UNL     1      26.694   5.362  49.257  1.00  0.00     0.041 C 
HETATM   12  C14 UNL     1      27.365   6.357  48.400  1.00  0.00     0.027 C 
HETATM   13  N3  UNL     1      25.768   5.895  50.228  1.00  0.00    -0.321 N 
HETATM   14  C15 UNL     1      27.039   7.600  48.622  1.00  0.00    -0.009 C 
HETATM   15  C16 UNL     1      26.078   8.093  49.638  1.00  0.00     0.137 C 
HETATM   16  N2  UNL     1      26.029   7.165  50.754  1.00  0.00    -0.237 NA
HETATM   17  H24 UNL     1      26.894   7.107  51.301  1.00  0.00     0.146 HD
HETATM   18  H25 UNL     1      24.933   5.296  50.495  1.00  0.00     0.180 HD
ENDBRANCH   9  10
ENDBRANCH   8   9
ENDBRANCH   5   8
BRANCH   1  19
HETATM   19  C5  UNL     1      23.816  -0.088  52.984  1.00  0.00     0.014 C 
BRANCH  19  20
HETATM   20  C4  UNL     1      22.632   0.666  53.430  1.00  0.00     0.031 C 
BRANCH  20  21
HETATM   21  C3  UNL     1      21.932   1.538  52.456  1.00  0.00     0.271 C 
BRANCH  21  22
HETATM   22  N1  UNL     1      22.910   2.285  51.663  1.00  0.00     0.080 N 
HETATM   23  C1  UNL     1      22.608   2.130  50.236  1.00  0.00     0.309 C 
HETATM   24  C2  UNL     1      22.860   3.704  51.960  1.00  0.00     0.309 C 
ENDBRANCH  21  22
ENDBRANCH  20  21
ENDBRANCH  19  20
ENDBRANCH   1  19
TORSDOF 7
ENDMDL
MODEL 3
REMARK VINA RESULT:      -7.2      3.332      6.944
REMARK  7 active torsions:
REMARK  status: ('A' for Active; 'I' for Inactive)
REMARK    1  A    between atoms: N1_2  and  C3_4 
REMARK    2  A    between atoms: C3_4  and  C4_5 
REMARK    3  A    between atoms: C4_5  and  C5_6 
REMARK    4  A    between atoms: C5_6  and  C6_7 
REMARK    5  A    between atoms: C10_11  and  O1_12 
REMARK    6  A    between atoms: O1_12  and  C11_13 
REMARK    7  A    between atoms: C11_13  and  C12_14 
ROOT
HETATM    1  C6  UNL     1      26.404   2.150  52.191  1.00  0.00     0.030 C 
HETATM    2  C7  UNL     1      26.665   2.929  50.969  1.00  0.00    -0.018 C 
HETATM    3  C8  UNL     1      25.946   3.314  49.928  1.00  0.00    -0.001 C 
HETATM    4  C9  UNL     1      24.512   2.952  49.822  1.00  0.00     0.036 C 
HETATM    5  C10 UNL     1      23.639   2.815  50.842  1.00  0.00     0.068 C 
HETATM    6  C17 UNL     1      23.947   3.001  52.281  1.00  0.00     0.033 C 
HETATM    7  C18 UNL     1      25.129   2.705  52.797  1.00  0.00    -0.015 C 
ENDROOT
BRANCH   5   8
HETATM    8  O1  UNL     1      22.320   2.467  50.536  1.00  0.00    -0.347 OA
BRANCH   8   9
HETATM    9  C11 UNL     1      22.060   1.102  50.362  1.00  0.00     0.205 C 
BRANCH   9  10
HETATM   10  C12 UNL     1      21.259   0.527  51.467  1.00  0.00     0.030 C 
HETATM   11  C13 UNL     1      21.582  -0.117  52.573  1.00  0.00     0.041 C 
HETATM   12  C14 UNL     1      20.604  -0.614  53.559  1.00  0.00     0.027 C 
HETATM   13  N3  UNL     1      22.968  -0.375  52.882  1.00  0.00    -0.321 N 
HETATM   14  C15 UNL     1      21.110  -1.228  54.591  1.00  0.00    -0.009 C 
HETATM   15  C16 UNL     1      22.550  -1.466  54.860  1.00  0.00     0.137 C 
HETATM   16  N2  UNL     1      23.341  -0.423  54.230  1.00  0.00    -0.237 NA
HETATM   17  H24 UNL     1      23.211   0.513  54.625  1.00  0.00     0.146 HD
HETATM   18  H25 UNL     1      23.638  -0.516  52.069  1.00  0.00     0.180 HD
ENDBRANCH   9  10
ENDBRANCH   8   9
ENDBRANCH   5   8
BRANCH   1  19
HETATM   19  C5  UNL     1      26.133   0.728  51.864  1.00  0.00     0.014 C 
BRANCH  19  20
HETATM   20  C4  UNL     1      26.882  -0.329  52.564  1.00  0.00     0.031 C 
BRANCH  20  21
HETATM   21  C3  UNL     1      27.060  -0.226  54.032  1.00  0.00     0.271 C 
BRANCH  21  22
HETATM   22  N1  UNL     1      28.482  -0.313  54.370  1.00  0.00     0.080 N 
HETATM   23  C1  UNL     1      29.175  -1.130  53.369  1.00  0.00     0.309 C 
HETATM   24  C2  UNL     1      29.109   0.994  54.366  1.00  0.00     0.309 C 
ENDBRANCH  21  22
ENDBRANCH  20  21
ENDBRANCH  19  20
ENDBRANCH   1  19
TORSDOF 7
ENDMDL
MODEL 4
REMARK VINA RESULT:      -7.0      2.548      6.390
REMARK  7 active torsions:
REMARK  status: ('A' for Active; 'I' for Inactive)
REMARK    1  A    between atoms: N1_2  and  C3_4 
REMARK    2  A    between atoms: C3_4  and  C4_5 
REMARK    3  A    between atoms: C4_5  and  C5_6 
REMARK    4  A    between atoms: C5_6  and  C6_7 
REMARK    5  A    between atoms: C10_11  and  O1_12 
REMARK    6  A    between atoms: O1_12  and  C11_13 
REMARK    7  A    between atoms: C11_13  and  C12_14 
ROOT
HETATM    1  C6  UNL     1      26.803   2.035  51.754  1.00  0.00     0.030 C 
HETATM    2  C7  UNL     1      27.880   2.221  52.740  1.00  0.00    -0.018 C 
HETATM    3  C8  UNL     1      28.196   1.674  53.902  1.00  0.00    -0.001 C 
HETATM    4  C9  UNL     1      27.361   0.596  54.484  1.00  0.00     0.036 C 
HETATM    5  C10 UNL     1      26.679  -0.349  53.805  1.00  0.00     0.068 C 
HETATM    6  C17 UNL     1      26.631  -0.496  52.330  1.00  0.00     0.033 C 
HETATM    7  C18 UNL     1      26.688   0.543  51.512  1.00  0.00    -0.015 C 
ENDROOT
BRANCH   5   8
HETATM    8  O1  UNL     1      25.943  -1.284  54.540  1.00  0.00    -0.347 OA
BRANCH   8   9
HETATM    9  C11 UNL     1      24.648  -0.905  54.912  1.00  0.00     0.205 C 
BRANCH   9  10
HETATM   10  C12 UNL     1      23.818  -0.494  53.757  1.00  0.00     0.030 C 
HETATM   11  C13 UNL     1      22.514  -0.409  53.568  1.00  0.00     0.041 C 
HETATM   12  C14 UNL     1      21.886   0.034  52.310  1.00  0.00     0.027 C 
HETATM   13  N3  UNL     1      21.605  -0.760  54.632  1.00  0.00    -0.321 N 
HETATM   14  C15 UNL     1      20.582   0.055  52.311  1.00  0.00    -0.009 C 
HETATM   15  C16 UNL     1      19.693  -0.318  53.438  1.00  0.00     0.137 C 
HETATM   16  N2  UNL     1      20.380  -0.087  54.697  1.00  0.00    -0.237 NA
HETATM   17  H24 UNL     1      20.574   0.898  54.906  1.00  0.00     0.146 HD
HETATM   18  H25 UNL     1      21.911  -1.515  55.316  1.00  0.00     0.180 HD
ENDBRANCH   9  10
ENDBRANCH   8   9
ENDBRANCH   5   8
BRANCH   1  19
HETATM   19  C5  UNL     1      25.498   2.476  52.307  1.00  0.00     0.014 C 
BRANCH  19  20
HETATM   20  C4  UNL     1      24.344   2.624  51.404  1.00  0.00     0.031 C 
BRANCH  20  21
HETATM   21  C3  UNL     1      23.249   3.546  51.790  1.00  0.00     0.271 C 
BRANCH  21  22
HETATM   22  N1  UNL     1      23.103   4.597  50.781  1.00  0.00     0.080 N 
HETATM   23  C1  UNL     1      23.808   5.804  51.222  1.00  0.00     0.309 C 
HETATM   24  C2  UNL     1      23.684   4.200  49.513  1.00  0.00     0.309 C 
ENDBRANCH  21  22
ENDBRANCH  20  21
ENDBRANCH  19  20
ENDBRANCH   1  19
TORSDOF 7
ENDMDL
MODEL 5
REMARK VINA RESULT:      -7.0      3.020      7.984
REMARK  7 active torsions:
REMARK  status: ('A' for Active; 'I' for Inactive)
REMARK    1  A    between atoms: N1_2  and  C3_4 
REMARK    2  A    between atoms: C3_4  and  C4_5 
REMARK    3  A    between atoms: C4_5  and  C5_6 
REMARK    4  A    between atoms: C5_6  and  C6_7 
REMARK    5  A    between atoms: C10_11  and  O1_12 
REMARK    6  A    between atoms: O1_12  and  C11_13 
REMARK    7  A    between atoms: C11_13  and  C12_14 
ROOT
HETATM    1  C6  UNL     1      25.708   6.454  48.781  1.00  0.00     0.030 C 
HETATM    2  C7  UNL     1      26.884   5.594  48.570  1.00  0.00    -0.018 C 
HETATM    3  C8  UNL     1      27.277   4.413  49.017  1.00  0.00    -0.001 C 
HETATM    4  C9  UNL     1      26.437   3.643  49.966  1.00  0.00     0.036 C 
HETATM    5  C10 UNL     1      25.089   3.626  50.016  1.00  0.00     0.068 C 
HETATM    6  C17 UNL     1      24.176   4.379  49.122  1.00  0.00     0.033 C 
HETATM    7  C18 UNL     1      24.487   5.568  48.630  1.00  0.00    -0.015 C 
ENDROOT
BRANCH   5   8
HETATM    8  O1  UNL     1      24.478   2.831  50.990  1.00  0.00    -0.347 OA
BRANCH   8   9
HETATM    9  C11 UNL     1      24.692   3.205  52.323  1.00  0.00     0.205 C 
BRANCH   9  10
HETATM   10  C12 UNL     1      25.165   2.081  53.163  1.00  0.00     0.030 C 
HETATM   11  C13 UNL     1      26.360   1.711  53.583  1.00  0.00     0.041 C 
HETATM   12  C14 UNL     1      26.613   0.531  54.431  1.00  0.00     0.027 C 
HETATM   13  N3  UNL     1      27.526   2.478  53.215  1.00  0.00    -0.321 N 
HETATM   14  C15 UNL     1      27.861   0.323  54.746  1.00  0.00    -0.009 C 
HETATM   15  C16 UNL     1      29.024   1.148  54.338  1.00  0.00     0.137 C 
HETATM   16  N2  UNL     1      28.595   2.518  54.116  1.00  0.00    -0.237 NA
HETATM   17  H24 UNL     1      28.279   3.011  54.957  1.00  0.00     0.146 HD
HETATM   18  H25 UNL     1      27.514   2.976  52.276  1.00  0.00     0.180 HD
ENDBRANCH   9  10
ENDBRANCH   8   9
ENDBRANCH   5   8
BRANCH   1  19
HETATM   19  C5  UNL     1      25.680   6.979  50.169  1.00  0.00     0.014 C 
BRANCH  19  20
HETATM   20  C4  UNL     1      26.224   8.320  50.446  1.00  0.00     0.031 C 
BRANCH  20  21
HETATM   21  C3  UNL     1      26.223   9.329  49.359  1.00  0.00     0.271 C 
BRANCH  21  22
HETATM   22  N1  UNL     1      27.472  10.093  49.387  1.00  0.00     0.080 N 
HETATM   23  C1  UNL     1      28.612   9.172  49.405  1.00  0.00     0.309 C 
HETATM   24  C2  UNL     1      27.611  10.925  48.208  1.00  0.00     0.309 C 
ENDBRANCH  21  22
ENDBRANCH  20  21
ENDBRANCH  19  20
ENDBRANCH   1  19
TORSDOF 7
ENDMDL
MODEL 6
REMARK VINA RESULT:      -6.9      2.233      2.747
REMARK  7 active torsions:
REMARK  status: ('A' for Active; 'I' for Inactive)
REMARK    1  A    between atoms: N1_2  and  C3_4 
REMARK    2  A    between atoms: C3_4  and  C4_5 
REMARK    3  A    between atoms: C4_5  and  C5_6 
REMARK    4  A    between atoms: C5_6  and  C6_7 
REMARK    5  A    between atoms: C10_11  and  O1_12 
REMARK    6  A    between atoms: O1_12  and  C11_13 
REMARK    7  A    between atoms: C11_13  and  C12_14 
ROOT
HETATM    1  C6  UNL     1      23.262   1.129  52.723  1.00  0.00     0.030 C 
HETATM    2  C7  UNL     1      24.261   0.098  53.045  1.00  0.00    -0.018 C 
HETATM    3  C8  UNL     1      25.541  -0.090  52.768  1.00  0.00    -0.001 C 
HETATM    4  C9  UNL     1      26.290   0.889  51.944  1.00  0.00     0.036 C 
HETATM    5  C10 UNL     1      26.097   2.224  51.907  1.00  0.00     0.068 C 
HETATM    6  C17 UNL     1      25.090   2.979  52.692  1.00  0.00     0.033 C 
HETATM    7  C18 UNL     1      23.910   2.470  53.008  1.00  0.00    -0.015 C 
ENDROOT
BRANCH   5   8
HETATM    8  O1  UNL     1      26.911   2.982  51.060  1.00  0.00    -0.347 OA
BRANCH   8   9
HETATM    9  C11 UNL     1      26.540   3.021  49.710  1.00  0.00     0.205 C 
BRANCH   9  10
HETATM   10  C12 UNL     1      27.010   4.246  49.023  1.00  0.00     0.030 C 
HETATM   11  C13 UNL     1      26.737   5.528  49.180  1.00  0.00     0.041 C 
HETATM   12  C14 UNL     1      27.331   6.607  48.369  1.00  0.00     0.027 C 
HETATM   13  N3  UNL     1      25.807   5.951  50.199  1.00  0.00    -0.321 N 
HETATM   14  C15 UNL     1      26.941   7.814  48.670  1.00  0.00    -0.009 C 
HETATM   15  C16 UNL     1      25.978   8.193  49.732  1.00  0.00     0.137 C 
HETATM   16  N2  UNL     1      26.009   7.201  50.793  1.00  0.00    -0.237 NA
HETATM   17  H24 UNL     1      26.888   7.161  51.318  1.00  0.00     0.146 HD
HETATM   18  H25 UNL     1      25.013   5.290  50.448  1.00  0.00     0.180 HD
ENDBRANCH   9  10
ENDBRANCH   8   9
ENDBRANCH   5   8
BRANCH   1  19
HETATM   19  C5  UNL     1      22.936   1.116  51.275  1.00  0.00     0.014 C 
BRANCH  19  20
HETATM   20  C4  UNL     1      22.134   2.212  50.705  1.00  0.00     0.031 C 
BRANCH  20  21
HETATM   21  C3  UNL     1      22.625   2.896  49.484  1.00  0.00     0.271 C 
BRANCH  21  22
HETATM   22  N1  UNL     1      21.509   3.150  48.571  1.00  0.00     0.080 N 
HETATM   23  C1  UNL     1      21.980   3.071  47.186  1.00  0.00     0.309 C 
HETATM   24  C2  UNL     1      20.462   2.158  48.726  1.00  0.00     0.309 C 
ENDBRANCH  21  22
ENDBRANCH  20  21
ENDBRANCH  19  20
ENDBRANCH   1  19
TORSDOF 7
ENDMDL
MODEL 7
REMARK VINA RESULT:      -6.9      2.564      5.076
REMARK  7 active torsions:
REMARK  status: ('A' for Active; 'I' for Inactive)
REMARK    1  A    between atoms: N1_2  and  C3_4 
REMARK    2  A    between atoms: C3_4  and  C4_5 
REMARK    3  A    between atoms: C4_5  and  C5_6 
REMARK    4  A    between atoms: C5_6  and  C6_7 
REMARK    5  A    between atoms: C10_11  and  O1_12 
REMARK    6  A    between atoms: O1_12  and  C11_13 
REMARK    7  A    between atoms: C11_13  and  C12_14 
ROOT
HETATM    1  C6  UNL     1      21.832   2.817  49.890  1.00  0.00     0.030 C 
HETATM    2  C7  UNL     1      21.552   3.734  51.007  1.00  0.00    -0.018 C 
HETATM    3  C8  UNL     1      22.275   4.545  51.760  1.00  0.00    -0.001 C 
HETATM    4  C9  UNL     1      23.737   4.673  51.551  1.00  0.00     0.036 C 
HETATM    5  C10 UNL     1      24.392   4.582  50.375  1.00  0.00     0.068 C 
HETATM    6  C17 UNL     1      23.772   4.334  49.051  1.00  0.00     0.033 C 
HETATM    7  C18 UNL     1      22.693   3.582  48.903  1.00  0.00    -0.015 C 
ENDROOT
BRANCH   5   8
HETATM    8  O1  UNL     1      25.783   4.732  50.384  1.00  0.00    -0.347 OA
BRANCH   8   9
HETATM    9  C11 UNL     1      26.520   3.749  49.712  1.00  0.00     0.205 C 
BRANCH   9  10
HETATM   10  C12 UNL     1      26.388   2.411  50.333  1.00  0.00     0.030 C 
HETATM   11  C13 UNL     1      26.750   1.923  51.505  1.00  0.00     0.041 C 
HETATM   12  C14 UNL     1      26.517   0.530  51.929  1.00  0.00     0.027 C 
HETATM   13  N3  UNL     1      27.417   2.767  52.467  1.00  0.00    -0.321 N 
HETATM   14  C15 UNL     1      26.944   0.228  53.124  1.00  0.00    -0.009 C 
HETATM   15  C16 UNL     1      27.626   1.140  54.074  1.00  0.00     0.137 C 
HETATM   16  N2  UNL     1      27.205   2.508  53.825  1.00  0.00    -0.237 NA
HETATM   17  H24 UNL     1      26.219   2.698  54.031  1.00  0.00     0.146 HD
HETATM   18  H25 UNL     1      28.038   3.545  52.094  1.00  0.00     0.180 HD
ENDBRANCH   9  10
ENDBRANCH   8   9
ENDBRANCH   5   8
BRANCH   1  19
HETATM   19  C5  UNL     1      22.640   1.658  50.347  1.00  0.00     0.014 C 
BRANCH  19  20
HETATM   20  C4  UNL     1      22.109   0.780  51.403  1.00  0.00     0.031 C 
BRANCH  20  21
HETATM   21  C3  UNL     1      22.910   0.581  52.635  1.00  0.00     0.271 C 
BRANCH  21  22
HETATM   22  N1  UNL     1      22.021   0.432  53.789  1.00  0.00     0.080 N 
HETATM   23  C1  UNL     1      20.664   0.849  53.421  1.00  0.00     0.309 C 
HETATM   24  C2  UNL     1      21.943  -0.949  54.224  1.00  0.00     0.309 C 
ENDBRANCH  21  22
ENDBRANCH  20  21
ENDBRANCH  19  20
ENDBRANCH   1  19
TORSDOF 7
ENDMDL
MODEL 8
REMARK VINA RESULT:      -6.9      1.793      3.865
REMARK  7 active torsions:
REMARK  status: ('A' for Active; 'I' for Inactive)
REMARK    1  A    between atoms: N1_2  and  C3_4 
REMARK    2  A    between atoms: C3_4  and  C4_5 
REMARK    3  A    between atoms: C4_5  and  C5_6 
REMARK    4  A    between atoms: C5_6  and  C6_7 
REMARK    5  A    between atoms: C10_11  and  O1_12 
REMARK    6  A    between atoms: O1_12  and  C11_13 
REMARK    7  A    between atoms: C11_13  and  C12_14 
ROOT
HETATM    1  C6  UNL     1      21.408   0.677  52.264  1.00  0.00     0.030 C 
HETATM    2  C7  UNL     1      20.691   1.951  52.444  1.00  0.00    -0.018 C 
HETATM    3  C8  UNL     1      21.034   3.228  52.459  1.00  0.00    -0.001 C 
HETATM    4  C9  UNL     1      22.445   3.637  52.259  1.00  0.00     0.036 C 
HETATM    5  C10 UNL     1      23.358   3.020  51.482  1.00  0.00     0.068 C 
HETATM    6  C17 UNL     1      23.128   1.801  50.669  1.00  0.00     0.033 C 
HETATM    7  C18 UNL     1      22.294   0.845  51.045  1.00  0.00    -0.015 C 
ENDROOT
BRANCH   5   8
HETATM    8  O1  UNL     1      24.646   3.563  51.424  1.00  0.00    -0.347 OA
BRANCH   8   9
HETATM    9  C11 UNL     1      25.572   2.887  50.619  1.00  0.00     0.205 C 
BRANCH   9  10
HETATM   10  C12 UNL     1      26.281   3.789  49.683  1.00  0.00     0.030 C 
HETATM   11  C13 UNL     1      26.317   5.101  49.549  1.00  0.00     0.041 C 
HETATM   12  C14 UNL     1      27.108   5.809  48.525  1.00  0.00     0.027 C 
HETATM   13  N3  UNL     1      25.550   5.941  50.438  1.00  0.00    -0.321 N 
HETATM   14  C15 UNL     1      27.019   7.109  48.547  1.00  0.00    -0.009 C 
HETATM   15  C16 UNL     1      26.212   7.924  49.488  1.00  0.00     0.137 C 
HETATM   16  N2  UNL     1      26.057   7.209  50.742  1.00  0.00    -0.237 NA
HETATM   17  H24 UNL     1      26.925   7.081  51.273  1.00  0.00     0.146 HD
HETATM   18  H25 UNL     1      24.637   5.554  50.819  1.00  0.00     0.180 HD
ENDBRANCH   9  10
ENDBRANCH   8   9
ENDBRANCH   5   8
BRANCH   1  19
HETATM   19  C5  UNL     1      22.312   0.412  53.412  1.00  0.00     0.014 C 
BRANCH  19  20
HETATM   20  C4  UNL     1      23.456  -0.497  53.234  1.00  0.00     0.031 C 
BRANCH  20  21
HETATM   21  C3  UNL     1      24.554  -0.466  54.230  1.00  0.00     0.271 C 
BRANCH  21  22
HETATM   22  N1  UNL     1      25.723   0.208  53.663  1.00  0.00     0.080 N 
HETATM   23  C1  UNL     1      26.823   0.184  54.633  1.00  0.00     0.309 C 
HETATM   24  C2  UNL     1      26.193  -0.462  52.466  1.00  0.00     0.309 C 
ENDBRANCH  21  22
ENDBRANCH  20  21
ENDBRANCH  19  20
ENDBRANCH   1  19
TORSDOF 7
ENDMDL
MODEL 9
REMARK VINA RESULT:      -6.7      3.047      6.816
REMARK  7 active torsions:
REMARK  status: ('A' for Active; 'I' for Inactive)
REMARK    1  A    between atoms: N1_2  and  C3_4 
REMARK    2  A    between atoms: C3_4  and  C4_5 
REMARK    3  A    between atoms: C4_5  and  C5_6 
REMARK    4  A    between atoms: C5_6  and  C6_7 
REMARK    5  A    between atoms: C10_11  and  O1_12 
REMARK    6  A    between atoms: O1_12  and  C11_13 
REMARK    7  A    between atoms: C11_13  and  C12_14 
ROOT
HETATM    1  C6  UNL     1      24.914   5.928  48.982  1.00  0.00     0.030 C 
HETATM    2  C7  UNL     1      26.243   5.315  48.827  1.00  0.00    -0.018 C 
HETATM    3  C8  UNL     1      26.845   4.242  49.310  1.00  0.00    -0.001 C 
HETATM    4  C9  UNL     1      26.140   3.334  50.247  1.00  0.00     0.036 C 
HETATM    5  C10 UNL     1      24.822   3.050  50.252  1.00  0.00     0.068 C 
HETATM    6  C17 UNL     1      23.810   3.595  49.314  1.00  0.00     0.033 C 
HETATM    7  C18 UNL     1      23.898   4.815  48.808  1.00  0.00    -0.015 C 
ENDROOT
BRANCH   5   8
HETATM    8  O1  UNL     1      24.344   2.162  51.222  1.00  0.00    -0.347 OA
BRANCH   8   9
HETATM    9  C11 UNL     1      24.529   2.541  52.558  1.00  0.00     0.205 C 
BRANCH   9  10
HETATM   10  C12 UNL     1      25.250   1.516  53.348  1.00  0.00     0.030 C 
HETATM   11  C13 UNL     1      26.513   1.377  53.703  1.00  0.00     0.041 C 
HETATM   12  C14 UNL     1      27.029   0.255  54.509  1.00  0.00     0.027 C 
HETATM   13  N3  UNL     1      27.491   2.360  53.302  1.00  0.00    -0.321 N 
HETATM   14  C15 UNL     1      28.307   0.287  54.762  1.00  0.00    -0.009 C 
HETATM   15  C16 UNL     1      29.270   1.327  54.323  1.00  0.00     0.137 C 
HETATM   16  N2  UNL     1      28.576   2.592  54.154  1.00  0.00    -0.237 NA
HETATM   17  H24 UNL     1      28.213   3.001  55.021  1.00  0.00     0.146 HD
HETATM   18  H25 UNL     1      27.338   2.861  52.377  1.00  0.00     0.180 HD
ENDBRANCH   9  10
ENDBRANCH   8   9
ENDBRANCH   5   8
BRANCH   1  19
HETATM   19  C5  UNL     1      24.731   6.456  50.358  1.00  0.00     0.014 C 
BRANCH  19  20
HETATM   20  C4  UNL     1      23.890   7.646  50.569  1.00  0.00     0.031 C 
BRANCH  20  21
HETATM   21  C3  UNL     1      22.424   7.470  50.701  1.00  0.00     0.271 C 
BRANCH  21  22
HETATM   22  N1  UNL     1      21.774   7.718  49.412  1.00  0.00     0.080 N 
HETATM   23  C1  UNL     1      20.492   7.009  49.364  1.00  0.00     0.309 C 
HETATM   24  C2  UNL     1      21.492   9.128  49.223  1.00  0.00     0.309 C 
ENDBRANCH  21  22
ENDBRANCH  20  21
ENDBRANCH  19  20
ENDBRANCH   1  19
TORSDOF 7
ENDMDL
