MODEL 1
REMARK VINA RESULT:      -9.3      0.000      0.000
REMARK  6 active torsions:
REMARK  status: ('A' for Active; 'I' for Inactive)
REMARK    1  A    between atoms: C7_9  and  N3_10 
REMARK       I    between atoms: N3_10  and  C8_11 
REMARK    2  A    between atoms: C8_11  and  C9_13 
REMARK    3  A    between atoms: C10_14  and  C11_15 
REMARK    4  A    between atoms: C11_15  and  N4_16 
REMARK    5  A    between atoms: C18_24  and  N5_25 
REMARK    6  A    between atoms: N5_25  and  C19_26 
ROOT
HETATM    1  N1  UNL     1      23.051  -1.485  55.636  1.00  0.00    -0.191 NA
HETATM    2  C1  UNL     1      22.948  -0.920  54.641  1.00  0.00     0.103 C 
HETATM    3  C2  UNL     1      22.808  -0.191  53.394  1.00  0.00     0.089 A 
HETATM    4  C3  UNL     1      21.700  -0.509  52.644  1.00  0.00     0.142 A 
HETATM    5  N2  UNL     1      21.549   0.150  51.489  1.00  0.00    -0.259 NA
HETATM    6  C4  UNL     1      22.444   1.075  51.095  1.00  0.00     0.069 A 
HETATM    7  C5  UNL     1      22.214   1.710  49.891  1.00  0.00     0.035 A 
HETATM    8  C6  UNL     1      23.120   2.659  49.473  1.00  0.00     0.032 A 
HETATM    9  C7  UNL     1      24.251   3.043  50.148  1.00  0.00     0.035 A 
HETATM   10  C16 UNL     1      24.434   2.380  51.341  1.00  0.00     0.045 A 
HETATM   11  C17 UNL     1      23.557   1.424  51.801  1.00  0.00     0.023 A 
HETATM   12  C18 UNL     1      23.744   0.768  52.992  1.00  0.00     0.067 A 
ENDROOT
BRANCH  12  13
HETATM   13  N5  UNL     1      24.870   1.050  53.810  1.00  0.00    -0.357 N 
HETATM   14  H18 UNL     1      24.985   1.752  54.570  1.00  0.00     0.166 HD
BRANCH  13  15
HETATM   15  C19 UNL     1      25.969   0.180  53.463  1.00  0.00     0.014 A 
HETATM   16  C20 UNL     1      25.985  -0.932  52.713  1.00  0.00     0.026 A 
HETATM   17  C21 UNL     1      27.336  -1.476  52.643  1.00  0.00     0.021 A 
HETATM   18  C22 UNL     1      28.112  -0.679  53.356  1.00  0.00     0.017 A 
HETATM   19 CL1  UNL     1      29.843  -1.019  53.508  1.00  0.00    -0.089 Cl
HETATM   20  C23 UNL     1      27.348   0.449  53.951  1.00  0.00     0.108 A 
ENDBRANCH  13  15
ENDBRANCH  12  13
BRANCH   9  21
HETATM   21  N3  UNL     1      25.201   4.009  49.763  1.00  0.00    -0.324 N 
HETATM   22  C8  UNL     1      26.525   3.801  49.309  1.00  0.00     0.245 C 
HETATM   23  O1  UNL     1      26.960   2.630  49.216  1.00  0.00    -0.268 OA
HETATM   24  H4  UNL     1      24.965   5.011  49.791  1.00  0.00     0.169 HD
BRANCH  22  25
HETATM   25  C9  UNL     1      27.456   4.822  48.930  1.00  0.00     0.072 C 
HETATM   26  C10 UNL     1      27.171   6.066  48.606  1.00  0.00    -0.002 C 
BRANCH  26  27
HETATM   27  C11 UNL     1      25.987   6.921  48.479  1.00  0.00     0.144 C 
BRANCH  27  28
HETATM   28  N4  UNL     1      26.177   8.306  48.687  1.00  0.00    -0.405 N 
HETATM   29  C12 UNL     1      25.120   9.191  48.370  1.00  0.00     0.143 C 
HETATM   30  C13 UNL     1      25.742  10.566  48.127  1.00  0.00     0.187 C 
HETATM   31  O2  UNL     1      26.578  10.945  49.176  1.00  0.00    -0.388 OA
HETATM   32  C14 UNL     1      27.618  10.054  49.401  1.00  0.00     0.187 C 
HETATM   33  C15 UNL     1      26.935   8.735  49.801  1.00  0.00     0.143 C 
ENDBRANCH  27  28
ENDBRANCH  26  27
ENDBRANCH  22  25
ENDBRANCH   9  21
TORSDOF 6
ENDMDL
MODEL 2
REMARK VINA RESULT:      -9.1      2.202      3.361
REMARK  6 active torsions:
REMARK  status: ('A' for Active; 'I' for Inactive)
REMARK    1  A    between atoms: C7_9  and  N3_10 
REMARK       I    between atoms: N3_10  and  C8_11 
REMARK    2  A    between atoms: C8_11  and  C9_13 
REMARK    3  A    between atoms: C10_14  and  C11_15 
REMARK    4  A    between atoms: C11_15  and  N4_16 
REMARK    5  A    between atoms: C18_24  and  N5_25 
REMARK    6  A    between atoms: N5_25  and  C19_26 
ROOT
HETATM    1  N1  UNL     1      25.286  -1.068  56.334  1.00  0.00    -0.191 NA
HETATM    2  C1  UNL     1      24.538  -0.877  55.482  1.00  0.00     0.103 C 
HETATM    3  C2  UNL     1      23.586  -0.619  54.419  1.00  0.00     0.089 A 
HETATM    4  C3  UNL     1      22.402  -1.316  54.502  1.00  0.00     0.142 A 
HETATM    5  N2  UNL     1      21.508  -1.095  53.531  1.00  0.00    -0.259 NA
HETATM    6  C4  UNL     1      21.767  -0.233  52.531  1.00  0.00     0.069 A 
HETATM    7  C5  UNL     1      20.791  -0.061  51.570  1.00  0.00     0.035 A 
HETATM    8  C6  UNL     1      21.040   0.818  50.540  1.00  0.00     0.032 A 
HETATM    9  C7  UNL     1      22.184   1.555  50.370  1.00  0.00     0.035 A 
HETATM   10  C16 UNL     1      23.125   1.347  51.354  1.00  0.00     0.045 A 
HETATM   11  C17 UNL     1      22.923   0.479  52.403  1.00  0.00     0.023 A 
HETATM   12  C18 UNL     1      23.864   0.278  53.383  1.00  0.00     0.067 A 
ENDROOT
BRANCH  12  13
HETATM   13  N5  UNL     1      25.106   0.965  53.350  1.00  0.00    -0.357 N 
HETATM   14  H18 UNL     1      25.310   1.982  53.443  1.00  0.00     0.166 HD
BRANCH  13  15
HETATM   15  C19 UNL     1      26.189   0.030  53.160  1.00  0.00     0.014 A 
HETATM   16  C20 UNL     1      26.224  -1.122  52.473  1.00  0.00     0.026 A 
HETATM   17  C21 UNL     1      27.547  -1.727  52.566  1.00  0.00     0.021 A 
HETATM   18  C22 UNL     1      28.288  -0.926  53.310  1.00  0.00     0.017 A 
HETATM   19 CL1  UNL     1      29.978  -1.333  53.650  1.00  0.00    -0.089 Cl
HETATM   20  C23 UNL     1      27.526   0.266  53.767  1.00  0.00     0.108 A 
ENDBRANCH  13  15
ENDBRANCH  12  13
BRANCH   9  21
HETATM   21  N3  UNL     1      22.481   2.466  49.338  1.00  0.00    -0.324 N 
HETATM   22  C8  UNL     1      21.881   3.722  49.080  1.00  0.00     0.245 C 
HETATM   23  O1  UNL     1      20.966   4.125  49.834  1.00  0.00    -0.268 OA
HETATM   24  H4  UNL     1      23.218   2.252  48.652  1.00  0.00     0.169 HD
BRANCH  22  25
HETATM   25  C9  UNL     1      22.219   4.613  48.011  1.00  0.00     0.072 C 
HETATM   26  C10 UNL     1      23.132   5.560  48.034  1.00  0.00    -0.002 C 
BRANCH  26  27
HETATM   27  C11 UNL     1      24.110   6.115  48.974  1.00  0.00     0.144 C 
BRANCH  27  28
HETATM   28  N4  UNL     1      25.302   5.380  49.161  1.00  0.00    -0.405 N 
HETATM   29  C12 UNL     1      26.541   6.016  48.911  1.00  0.00     0.143 C 
HETATM   30  C13 UNL     1      27.561   4.917  48.620  1.00  0.00     0.187 C 
HETATM   31  O2  UNL     1      27.556   3.935  49.610  1.00  0.00    -0.388 OA
HETATM   32  C14 UNL     1      26.322   3.322  49.769  1.00  0.00     0.187 C 
HETATM   33  C15 UNL     1      25.372   4.446  50.220  1.00  0.00     0.143 C 
ENDBRANCH  27  28
ENDBRANCH  26  27
ENDBRANCH  22  25
ENDBRANCH   9  21
TORSDOF 6
ENDMDL
MODEL 3
REMARK VINA RESULT:      -9.0      2.439      3.231
REMARK  6 active torsions:
REMARK  status: ('A' for Active; 'I' for Inactive)
REMARK    1  A    between atoms: C7_9  and  N3_10 
REMARK       I    between atoms: N3_10  and  C8_11 
REMARK    2  A    between atoms: C8_11  and  C9_13 
REMARK    3  A    between atoms: C10_14  and  C11_15 
REMARK    4  A    between atoms: C11_15  and  N4_16 
REMARK    5  A    between atoms: C18_24  and  N5_25 
REMARK    6  A    between atoms: N5_25  and  C19_26 
ROOT
HETATM    1  N1  UNL     1      22.481  -1.046  54.844  1.00  0.00    -0.191 NA
HETATM    2  C1  UNL     1      22.564  -0.436  53.873  1.00  0.00     0.103 C 
HETATM    3  C2  UNL     1      22.656   0.349  52.657  1.00  0.00     0.089 A 
HETATM    4  C3  UNL     1      21.707   0.072  51.700  1.00  0.00     0.142 A 
HETATM    5  N2  UNL     1      21.771   0.784  50.569  1.00  0.00    -0.259 NA
HETATM    6  C4  UNL     1      22.723   1.719  50.390  1.00  0.00     0.069 A 
HETATM    7  C5  UNL     1      22.719   2.409  49.194  1.00  0.00     0.035 A 
HETATM    8  C6  UNL     1      23.685   3.370  48.995  1.00  0.00     0.032 A 
HETATM    9  C7  UNL     1      24.670   3.716  49.885  1.00  0.00     0.035 A 
HETATM   10  C16 UNL     1      24.630   2.998  51.059  1.00  0.00     0.045 A 
HETATM   11  C17 UNL     1      23.684   2.028  51.305  1.00  0.00     0.023 A 
HETATM   12  C18 UNL     1      23.648   1.318  52.479  1.00  0.00     0.067 A 
ENDROOT
BRANCH  12  13
HETATM   13  N5  UNL     1      24.603   1.555  53.503  1.00  0.00    -0.357 N 
HETATM   14  H18 UNL     1      24.558   2.195  54.323  1.00  0.00     0.166 HD
BRANCH  13  15
HETATM   15  C19 UNL     1      25.776   0.741  53.291  1.00  0.00     0.014 A 
HETATM   16  C20 UNL     1      25.897  -0.462  52.709  1.00  0.00     0.026 A 
HETATM   17  C21 UNL     1      27.290  -0.894  52.724  1.00  0.00     0.021 A 
HETATM   18  C22 UNL     1      27.985   0.060  53.318  1.00  0.00     0.017 A 
HETATM   19 CL1  UNL     1      29.735  -0.108  53.526  1.00  0.00    -0.089 Cl
HETATM   20  C23 UNL     1      27.120   1.192  53.740  1.00  0.00     0.108 A 
ENDBRANCH  13  15
ENDBRANCH  12  13
BRANCH   9  21
HETATM   21  N3  UNL     1      25.674   4.691  49.726  1.00  0.00    -0.324 N 
HETATM   22  C8  UNL     1      25.628   5.877  48.956  1.00  0.00     0.245 C 
HETATM   23  O1  UNL     1      24.587   6.146  48.315  1.00  0.00    -0.268 OA
HETATM   24  H4  UNL     1      26.579   4.588  50.206  1.00  0.00     0.169 HD
BRANCH  22  25
HETATM   25  C9  UNL     1      26.682   6.838  48.826  1.00  0.00     0.072 C 
HETATM   26  C10 UNL     1      27.936   6.594  48.510  1.00  0.00    -0.002 C 
BRANCH  26  27
HETATM   27  C11 UNL     1      28.777   5.440  48.181  1.00  0.00     0.144 C 
BRANCH  27  28
HETATM   28  N4  UNL     1      30.174   5.612  48.311  1.00  0.00    -0.405 N 
HETATM   29  C12 UNL     1      31.033   4.809  47.524  1.00  0.00     0.143 C 
HETATM   30  C13 UNL     1      32.384   4.762  48.238  1.00  0.00     0.187 C 
HETATM   31  O2  UNL     1      32.843   6.041  48.553  1.00  0.00    -0.388 OA
HETATM   32  C14 UNL     1      31.971   6.753  49.364  1.00  0.00     0.187 C 
HETATM   33  C15 UNL     1      30.687   6.910  48.529  1.00  0.00     0.143 C 
ENDBRANCH  27  28
ENDBRANCH  26  27
ENDBRANCH  22  25
ENDBRANCH   9  21
TORSDOF 6
ENDMDL
MODEL 4
REMARK VINA RESULT:      -9.0      5.087     10.354
REMARK  6 active torsions:
REMARK  status: ('A' for Active; 'I' for Inactive)
REMARK    1  A    between atoms: C7_9  and  N3_10 
REMARK       I    between atoms: N3_10  and  C8_11 
REMARK    2  A    between atoms: C8_11  and  C9_13 
REMARK    3  A    between atoms: C10_14  and  C11_15 
REMARK    4  A    between atoms: C11_15  and  N4_16 
REMARK    5  A    between atoms: C18_24  and  N5_25 
REMARK    6  A    between atoms: N5_25  and  C19_26 
ROOT
HETATM    1  N1  UNL     1      28.611   2.296  52.708  1.00  0.00    -0.191 NA
HETATM    2  C1  UNL     1      27.787   1.646  53.177  1.00  0.00     0.103 C 
HETATM    3  C2  UNL     1      26.740   0.843  53.779  1.00  0.00     0.089 A 
HETATM    4  C3  UNL     1      27.068   0.239  54.971  1.00  0.00     0.142 A 
HETATM    5  N2  UNL     1      26.118  -0.508  55.545  1.00  0.00    -0.259 NA
HETATM    6  C4  UNL     1      24.908  -0.652  54.975  1.00  0.00     0.069 A 
HETATM    7  C5  UNL     1      23.984  -1.438  55.633  1.00  0.00     0.035 A 
HETATM    8  C6  UNL     1      22.740  -1.596  55.063  1.00  0.00     0.032 A 
HETATM    9  C7  UNL     1      22.320  -1.037  53.883  1.00  0.00     0.035 A 
HETATM   10  C16 UNL     1      23.279  -0.263  53.267  1.00  0.00     0.045 A 
HETATM   11  C17 UNL     1      24.535  -0.077  53.797  1.00  0.00     0.023 A 
HETATM   12  C18 UNL     1      25.486   0.698  53.179  1.00  0.00     0.067 A 
ENDROOT
BRANCH  12  13
HETATM   13  N5  UNL     1      25.208   1.345  51.945  1.00  0.00    -0.357 N 
HETATM   14  H18 UNL     1      25.490   1.086  50.976  1.00  0.00     0.166 HD
BRANCH  13  15
HETATM   15  C19 UNL     1      24.408   2.525  52.169  1.00  0.00     0.014 A 
HETATM   16  C20 UNL     1      24.425   3.398  53.187  1.00  0.00     0.026 A 
HETATM   17  C21 UNL     1      23.428   4.441  52.977  1.00  0.00     0.021 A 
HETATM   18  C22 UNL     1      22.826   4.176  51.831  1.00  0.00     0.017 A 
HETATM   19 CL1  UNL     1      21.539   5.235  51.233  1.00  0.00    -0.089 Cl
HETATM   20  C23 UNL     1      23.369   2.949  51.193  1.00  0.00     0.108 A 
ENDBRANCH  13  15
ENDBRANCH  12  13
BRANCH   9  21
HETATM   21  N3  UNL     1      21.061  -1.167  53.265  1.00  0.00    -0.324 N 
HETATM   22  C8  UNL     1      19.940  -0.310  53.375  1.00  0.00     0.245 C 
HETATM   23  O1  UNL     1      20.022   0.709  54.098  1.00  0.00    -0.268 OA
HETATM   24  H4  UNL     1      20.868  -1.963  52.641  1.00  0.00     0.169 HD
BRANCH  22  25
HETATM   25  C9  UNL     1      18.676  -0.489  52.725  1.00  0.00     0.072 C 
HETATM   26  C10 UNL     1      17.844  -1.496  52.886  1.00  0.00    -0.002 C 
BRANCH  26  27
HETATM   27  C11 UNL     1      17.763  -2.737  53.662  1.00  0.00     0.144 C 
BRANCH  27  28
HETATM   28  N4  UNL     1      16.604  -3.525  53.484  1.00  0.00    -0.405 N 
HETATM   29  C12 UNL     1      15.656  -3.129  52.510  1.00  0.00     0.143 C 
HETATM   30  C13 UNL     1      14.317  -3.750  52.907  1.00  0.00     0.187 C 
HETATM   31  O2  UNL     1      14.434  -5.120  53.140  1.00  0.00    -0.388 OA
HETATM   32  C14 UNL     1      15.347  -5.432  54.138  1.00  0.00     0.187 C 
HETATM   33  C15 UNL     1      16.703  -4.929  53.610  1.00  0.00     0.143 C 
ENDBRANCH  27  28
ENDBRANCH  26  27
ENDBRANCH  22  25
ENDBRANCH   9  21
TORSDOF 6
ENDMDL
MODEL 5
REMARK VINA RESULT:      -8.9      4.578      9.971
REMARK  6 active torsions:
REMARK  status: ('A' for Active; 'I' for Inactive)
REMARK    1  A    between atoms: C7_9  and  N3_10 
REMARK       I    between atoms: N3_10  and  C8_11 
REMARK    2  A    between atoms: C8_11  and  C9_13 
REMARK    3  A    between atoms: C10_14  and  C11_15 
REMARK    4  A    between atoms: C11_15  and  N4_16 
REMARK    5  A    between atoms: C18_24  and  N5_25 
REMARK    6  A    between atoms: N5_25  and  C19_26 
ROOT
HETATM    1  N1  UNL     1      34.835   8.137  48.377  1.00  0.00    -0.191 NA
HETATM    2  C1  UNL     1      33.694   8.106  48.241  1.00  0.00     0.103 C 
HETATM    3  C2  UNL     1      32.256   8.058  48.048  1.00  0.00     0.089 A 
HETATM    4  C3  UNL     1      31.696   9.183  47.490  1.00  0.00     0.142 A 
HETATM    5  N2  UNL     1      30.371   9.162  47.303  1.00  0.00    -0.259 NA
HETATM    6  C4  UNL     1      29.637   8.089  47.649  1.00  0.00     0.069 A 
HETATM    7  C5  UNL     1      28.277   8.148  47.422  1.00  0.00     0.035 A 
HETATM    8  C6  UNL     1      27.512   7.057  47.769  1.00  0.00     0.032 A 
HETATM    9  C7  UNL     1      27.976   5.895  48.330  1.00  0.00     0.035 A 
HETATM   10  C16 UNL     1      29.338   5.887  48.536  1.00  0.00     0.045 A 
HETATM   11  C17 UNL     1      30.145   6.953  48.206  1.00  0.00     0.023 A 
HETATM   12  C18 UNL     1      31.502   6.938  48.412  1.00  0.00     0.067 A 
ENDROOT
BRANCH  12  13
HETATM   13  N5  UNL     1      32.139   5.807  48.988  1.00  0.00    -0.357 N 
HETATM   14  H18 UNL     1      32.311   5.574  49.988  1.00  0.00     0.166 HD
BRANCH  13  15
HETATM   15  C19 UNL     1      32.575   4.899  47.954  1.00  0.00     0.014 A 
HETATM   16  C20 UNL     1      31.863   4.071  47.176  1.00  0.00     0.026 A 
HETATM   17  C21 UNL     1      32.743   3.344  46.269  1.00  0.00     0.021 A 
HETATM   18  C22 UNL     1      33.976   3.750  46.519  1.00  0.00     0.017 A 
HETATM   19 CL1  UNL     1      35.338   3.083  45.603  1.00  0.00    -0.089 Cl
HETATM   20  C23 UNL     1      34.014   4.769  47.600  1.00  0.00     0.108 A 
ENDBRANCH  13  15
ENDBRANCH  12  13
BRANCH   9  21
HETATM   21  N3  UNL     1      27.234   4.756  48.698  1.00  0.00    -0.324 N 
HETATM   22  C8  UNL     1      26.122   4.680  49.570  1.00  0.00     0.245 C 
HETATM   23  O1  UNL     1      25.699   5.728  50.109  1.00  0.00    -0.268 OA
HETATM   24  H4  UNL     1      27.480   3.831  48.319  1.00  0.00     0.169 HD
BRANCH  22  25
HETATM   25  C9  UNL     1      25.401   3.491  49.914  1.00  0.00     0.072 C 
HETATM   26  C10 UNL     1      25.778   2.560  50.765  1.00  0.00    -0.002 C 
BRANCH  26  27
HETATM   27  C11 UNL     1      26.910   2.283  51.654  1.00  0.00     0.144 C 
BRANCH  27  28
HETATM   28  N4  UNL     1      26.776   1.183  52.531  1.00  0.00    -0.405 N 
HETATM   29  C12 UNL     1      26.034   1.352  53.724  1.00  0.00     0.143 C 
HETATM   30  C13 UNL     1      26.515   0.286  54.708  1.00  0.00     0.187 C 
HETATM   31  O2  UNL     1      26.495  -0.986  54.139  1.00  0.00    -0.388 OA
HETATM   32  C14 UNL     1      27.279  -1.091  52.999  1.00  0.00     0.187 C 
HETATM   33  C15 UNL     1      26.649  -0.116  51.988  1.00  0.00     0.143 C 
ENDBRANCH  27  28
ENDBRANCH  26  27
ENDBRANCH  22  25
ENDBRANCH   9  21
TORSDOF 6
ENDMDL
MODEL 6
REMARK VINA RESULT:      -8.9      1.493      1.895
REMARK  6 active torsions:
REMARK  status: ('A' for Active; 'I' for Inactive)
REMARK    1  A    between atoms: C7_9  and  N3_10 
REMARK       I    between atoms: N3_10  and  C8_11 
REMARK    2  A    between atoms: C8_11  and  C9_13 
REMARK    3  A    between atoms: C10_14  and  C11_15 
REMARK    4  A    between atoms: C11_15  and  N4_16 
REMARK    5  A    between atoms: C18_24  and  N5_25 
REMARK    6  A    between atoms: N5_25  and  C19_26 
ROOT
HETATM    1  N1  UNL     1      22.002  -0.929  55.087  1.00  0.00    -0.191 NA
HETATM    2  C1  UNL     1      22.080  -0.425  54.057  1.00  0.00     0.103 C 
HETATM    3  C2  UNL     1      22.165   0.226  52.763  1.00  0.00     0.089 A 
HETATM    4  C3  UNL     1      21.222  -0.164  51.841  1.00  0.00     0.142 A 
HETATM    5  N2  UNL     1      21.281   0.423  50.640  1.00  0.00    -0.259 NA
HETATM    6  C4  UNL     1      22.220   1.346  50.363  1.00  0.00     0.069 A 
HETATM    7  C5  UNL     1      22.211   1.904  49.100  1.00  0.00     0.035 A 
HETATM    8  C6  UNL     1      23.164   2.851  48.800  1.00  0.00     0.032 A 
HETATM    9  C7  UNL     1      24.143   3.303  49.649  1.00  0.00     0.035 A 
HETATM   10  C16 UNL     1      24.108   2.715  50.894  1.00  0.00     0.045 A 
HETATM   11  C17 UNL     1      23.175   1.765  51.241  1.00  0.00     0.023 A 
HETATM   12  C18 UNL     1      23.145   1.184  52.484  1.00  0.00     0.067 A 
ENDROOT
BRANCH  12  13
HETATM   13  N5  UNL     1      24.094   1.542  53.478  1.00  0.00    -0.357 N 
HETATM   14  H18 UNL     1      24.020   2.233  54.254  1.00  0.00     0.166 HD
BRANCH  13  15
HETATM   15  C19 UNL     1      25.308   0.780  53.308  1.00  0.00     0.014 A 
HETATM   16  C20 UNL     1      25.488  -0.459  52.828  1.00  0.00     0.026 A 
HETATM   17  C21 UNL     1      26.903  -0.809  52.846  1.00  0.00     0.021 A 
HETATM   18  C22 UNL     1      27.553   0.231  53.340  1.00  0.00     0.017 A 
HETATM   19 CL1  UNL     1      29.314   0.181  53.518  1.00  0.00    -0.089 Cl
HETATM   20  C23 UNL     1      26.631   1.345  53.685  1.00  0.00     0.108 A 
ENDBRANCH  13  15
ENDBRANCH  12  13
BRANCH   9  21
HETATM   21  N3  UNL     1      25.134   4.269  49.389  1.00  0.00    -0.324 N 
HETATM   22  C8  UNL     1      26.526   4.073  49.224  1.00  0.00     0.245 C 
HETATM   23  O1  UNL     1      26.990   2.913  49.308  1.00  0.00    -0.268 OA
HETATM   24  H4  UNL     1      24.879   5.263  49.293  1.00  0.00     0.169 HD
BRANCH  22  25
HETATM   25  C9  UNL     1      27.495   5.095  48.962  1.00  0.00     0.072 C 
HETATM   26  C10 UNL     1      27.266   6.282  48.441  1.00  0.00    -0.002 C 
BRANCH  26  27
HETATM   27  C11 UNL     1      26.127   7.059  47.944  1.00  0.00     0.144 C 
BRANCH  27  28
HETATM   28  N4  UNL     1      25.098   7.343  48.869  1.00  0.00    -0.405 N 
HETATM   29  C12 UNL     1      25.452   7.805  50.159  1.00  0.00     0.143 C 
HETATM   30  C13 UNL     1      24.285   7.480  51.090  1.00  0.00     0.187 C 
HETATM   31  O2  UNL     1      23.073   7.941  50.576  1.00  0.00    -0.388 OA
HETATM   32  C14 UNL     1      22.768   7.411  49.330  1.00  0.00     0.187 C 
HETATM   33  C15 UNL     1      23.890   7.907  48.400  1.00  0.00     0.143 C 
ENDBRANCH  27  28
ENDBRANCH  26  27
ENDBRANCH  22  25
ENDBRANCH   9  21
TORSDOF 6
ENDMDL
MODEL 7
REMARK VINA RESULT:      -8.9      4.362      7.384
REMARK  6 active torsions:
REMARK  status: ('A' for Active; 'I' for Inactive)
REMARK    1  A    between atoms: C7_9  and  N3_10 
REMARK       I    between atoms: N3_10  and  C8_11 
REMARK    2  A    between atoms: C8_11  and  C9_13 
REMARK    3  A    between atoms: C10_14  and  C11_15 
REMARK    4  A    between atoms: C11_15  and  N4_16 
REMARK    5  A    between atoms: C18_24  and  N5_25 
REMARK    6  A    between atoms: N5_25  and  C19_26 
ROOT
HETATM    1  N1  UNL     1      28.665   2.262  52.708  1.00  0.00    -0.191 NA
HETATM    2  C1  UNL     1      27.834   1.619  53.173  1.00  0.00     0.103 C 
HETATM    3  C2  UNL     1      26.777   0.824  53.771  1.00  0.00     0.089 A 
HETATM    4  C3  UNL     1      27.093   0.221  54.966  1.00  0.00     0.142 A 
HETATM    5  N2  UNL     1      26.134  -0.517  55.536  1.00  0.00    -0.259 NA
HETATM    6  C4  UNL     1      24.926  -0.654  54.958  1.00  0.00     0.069 A 
HETATM    7  C5  UNL     1      23.992  -1.432  55.612  1.00  0.00     0.035 A 
HETATM    8  C6  UNL     1      22.751  -1.582  55.035  1.00  0.00     0.032 A 
HETATM    9  C7  UNL     1      22.343  -1.023  53.850  1.00  0.00     0.035 A 
HETATM   10  C16 UNL     1      23.311  -0.258  53.239  1.00  0.00     0.045 A 
HETATM   11  C17 UNL     1      24.565  -0.079  53.776  1.00  0.00     0.023 A 
HETATM   12  C18 UNL     1      25.525   0.687  53.162  1.00  0.00     0.067 A 
ENDROOT
BRANCH  12  13
HETATM   13  N5  UNL     1      25.260   1.333  51.925  1.00  0.00    -0.357 N 
HETATM   14  H18 UNL     1      25.431   1.007  50.951  1.00  0.00     0.166 HD
BRANCH  13  15
HETATM   15  C19 UNL     1      24.662   2.626  52.155  1.00  0.00     0.014 A 
HETATM   16  C20 UNL     1      24.211   3.178  53.291  1.00  0.00     0.026 A 
HETATM   17  C21 UNL     1      23.686   4.514  53.032  1.00  0.00     0.021 A 
HETATM   18  C22 UNL     1      23.831   4.742  51.739  1.00  0.00     0.017 A 
HETATM   19 CL1  UNL     1      23.303   6.281  51.040  1.00  0.00    -0.089 Cl
HETATM   20  C23 UNL     1      24.458   3.590  51.041  1.00  0.00     0.108 A 
ENDBRANCH  13  15
ENDBRANCH  12  13
BRANCH   9  21
HETATM   21  N3  UNL     1      21.087  -1.145  53.225  1.00  0.00    -0.324 N 
HETATM   22  C8  UNL     1      19.953  -0.311  53.369  1.00  0.00     0.245 C 
HETATM   23  O1  UNL     1      20.018   0.678  54.134  1.00  0.00    -0.268 OA
HETATM   24  H4  UNL     1      20.907  -1.917  52.568  1.00  0.00     0.169 HD
BRANCH  22  25
HETATM   25  C9  UNL     1      18.693  -0.482  52.708  1.00  0.00     0.072 C 
HETATM   26  C10 UNL     1      18.400  -0.141  51.471  1.00  0.00    -0.002 C 
BRANCH  26  27
HETATM   27  C11 UNL     1      19.064   0.474  50.318  1.00  0.00     0.144 C 
BRANCH  27  28
HETATM   28  N4  UNL     1      19.530   1.797  50.483  1.00  0.00    -0.405 N 
HETATM   29  C12 UNL     1      19.985   2.504  49.345  1.00  0.00     0.143 C 
HETATM   30  C13 UNL     1      20.929   3.599  49.842  1.00  0.00     0.187 C 
HETATM   31  O2  UNL     1      20.346   4.360  50.855  1.00  0.00    -0.388 OA
HETATM   32  C14 UNL     1      19.966   3.608  51.958  1.00  0.00     0.187 C 
HETATM   33  C15 UNL     1      18.897   2.635  51.430  1.00  0.00     0.143 C 
ENDBRANCH  27  28
ENDBRANCH  26  27
ENDBRANCH  22  25
ENDBRANCH   9  21
TORSDOF 6
ENDMDL
MODEL 8
REMARK VINA RESULT:      -8.8      3.236      4.874
REMARK  6 active torsions:
REMARK  status: ('A' for Active; 'I' for Inactive)
REMARK    1  A    between atoms: C7_9  and  N3_10 
REMARK       I    between atoms: N3_10  and  C8_11 
REMARK    2  A    between atoms: C8_11  and  C9_13 
REMARK    3  A    between atoms: C10_14  and  C11_15 
REMARK    4  A    between atoms: C11_15  and  N4_16 
REMARK    5  A    between atoms: C18_24  and  N5_25 
REMARK    6  A    between atoms: N5_25  and  C19_26 
ROOT
HETATM    1  N1  UNL     1      21.417  -1.419  54.929  1.00  0.00    -0.191 NA
HETATM    2  C1  UNL     1      22.341  -0.969  54.414  1.00  0.00     0.103 C 
HETATM    3  C2  UNL     1      23.500  -0.409  53.744  1.00  0.00     0.089 A 
HETATM    4  C3  UNL     1      24.625  -1.201  53.748  1.00  0.00     0.142 A 
HETATM    5  N2  UNL     1      25.708  -0.705  53.137  1.00  0.00    -0.259 NA
HETATM    6  C4  UNL     1      25.682   0.507  52.553  1.00  0.00     0.069 A 
HETATM    7  C5  UNL     1      26.841   0.944  51.943  1.00  0.00     0.035 A 
HETATM    8  C6  UNL     1      26.832   2.181  51.340  1.00  0.00     0.032 A 
HETATM    9  C7  UNL     1      25.764   3.040  51.284  1.00  0.00     0.035 A 
HETATM   10  C16 UNL     1      24.634   2.558  51.907  1.00  0.00     0.045 A 
HETATM   11  C17 UNL     1      24.595   1.328  52.523  1.00  0.00     0.023 A 
HETATM   12  C18 UNL     1      23.465   0.852  53.141  1.00  0.00     0.067 A 
ENDROOT
BRANCH  12  13
HETATM   13  N5  UNL     1      22.273   1.623  53.173  1.00  0.00    -0.357 N 
HETATM   14  H18 UNL     1      21.984   2.380  53.827  1.00  0.00     0.166 HD
BRANCH  13  15
HETATM   15  C19 UNL     1      21.393   1.228  52.099  1.00  0.00     0.014 A 
HETATM   16  C20 UNL     1      21.634   1.111  50.785  1.00  0.00     0.026 A 
HETATM   17  C21 UNL     1      20.431   0.678  50.085  1.00  0.00     0.021 A 
HETATM   18  C22 UNL     1      19.482   0.542  50.995  1.00  0.00     0.017 A 
HETATM   19 CL1  UNL     1      17.857   0.023  50.519  1.00  0.00    -0.089 Cl
HETATM   20  C23 UNL     1      19.973   0.869  52.359  1.00  0.00     0.108 A 
ENDBRANCH  13  15
ENDBRANCH  12  13
BRANCH   9  21
HETATM   21  N3  UNL     1      25.707   4.310  50.677  1.00  0.00    -0.324 N 
HETATM   22  C8  UNL     1      26.428   4.775  49.552  1.00  0.00     0.245 C 
HETATM   23  O1  UNL     1      27.231   4.003  48.982  1.00  0.00    -0.268 OA
HETATM   24  H4  UNL     1      25.080   5.037  51.050  1.00  0.00     0.169 HD
BRANCH  22  25
HETATM   25  C9  UNL     1      26.335   6.083  48.974  1.00  0.00     0.072 C 
HETATM   26  C10 UNL     1      25.284   6.607  48.378  1.00  0.00    -0.002 C 
BRANCH  26  27
HETATM   27  C11 UNL     1      23.909   6.224  48.045  1.00  0.00     0.144 C 
BRANCH  27  28
HETATM   28  N4  UNL     1      22.982   6.188  49.111  1.00  0.00    -0.405 N 
HETATM   29  C12 UNL     1      22.125   7.297  49.303  1.00  0.00     0.143 C 
HETATM   30  C13 UNL     1      21.681   7.274  50.765  1.00  0.00     0.187 C 
HETATM   31  O2  UNL     1      21.176   6.027  51.131  1.00  0.00    -0.388 OA
HETATM   32  C14 UNL     1      22.086   4.994  50.958  1.00  0.00     0.187 C 
HETATM   33  C15 UNL     1      22.370   4.959  49.446  1.00  0.00     0.143 C 
ENDBRANCH  27  28
ENDBRANCH  26  27
ENDBRANCH  22  25
ENDBRANCH   9  21
TORSDOF 6
ENDMDL
MODEL 9
REMARK VINA RESULT:      -8.5      2.873      4.324
REMARK  6 active torsions:
REMARK  status: ('A' for Active; 'I' for Inactive)
REMARK    1  A    between atoms: C7_9  and  N3_10 
REMARK       I    between atoms: N3_10  and  C8_11 
REMARK    2  A    between atoms: C8_11  and  C9_13 
REMARK    3  A    between atoms: C10_14  and  C11_15 
REMARK    4  A    between atoms: C11_15  and  N4_16 
REMARK    5  A    between atoms: C18_24  and  N5_25 
REMARK    6  A    between atoms: N5_25  and  C19_26 
ROOT
HETATM    1  N1  UNL     1      21.379  -1.232  54.906  1.00  0.00    -0.191 NA
HETATM    2  C1  UNL     1      22.304  -0.779  54.395  1.00  0.00     0.103 C 
HETATM    3  C2  UNL     1      23.466  -0.218  53.732  1.00  0.00     0.089 A 
HETATM    4  C3  UNL     1      24.625  -0.950  53.848  1.00  0.00     0.142 A 
HETATM    5  N2  UNL     1      25.710  -0.452  53.245  1.00  0.00    -0.259 NA
HETATM    6  C4  UNL     1      25.656   0.707  52.563  1.00  0.00     0.069 A 
HETATM    7  C5  UNL     1      26.821   1.151  51.968  1.00  0.00     0.035 A 
HETATM    8  C6  UNL     1      26.782   2.334  51.266  1.00  0.00     0.032 A 
HETATM    9  C7  UNL     1      25.680   3.132  51.094  1.00  0.00     0.035 A 
HETATM   10  C16 UNL     1      24.546   2.646  51.706  1.00  0.00     0.045 A 
HETATM   11  C17 UNL     1      24.534   1.468  52.419  1.00  0.00     0.023 A 
HETATM   12  C18 UNL     1      23.400   0.987  53.025  1.00  0.00     0.067 A 
ENDROOT
BRANCH  12  13
HETATM   13  N5  UNL     1      22.174   1.699  52.944  1.00  0.00    -0.357 N 
HETATM   14  H18 UNL     1      21.693   2.286  53.657  1.00  0.00     0.166 HD
BRANCH  13  15
HETATM   15  C19 UNL     1      21.581   1.524  51.639  1.00  0.00     0.014 A 
HETATM   16  C20 UNL     1      21.461   0.420  50.887  1.00  0.00     0.026 A 
HETATM   17  C21 UNL     1      20.785   0.732  49.634  1.00  0.00     0.021 A 
HETATM   18  C22 UNL     1      20.510   2.024  49.653  1.00  0.00     0.017 A 
HETATM   19 CL1  UNL     1      19.680   2.781  48.284  1.00  0.00    -0.089 Cl
HETATM   20  C23 UNL     1      20.974   2.669  50.909  1.00  0.00     0.108 A 
ENDBRANCH  13  15
ENDBRANCH  12  13
BRANCH   9  21
HETATM   21  N3  UNL     1      25.592   4.345  50.384  1.00  0.00    -0.324 N 
HETATM   22  C8  UNL     1      26.391   4.784  49.301  1.00  0.00     0.245 C 
HETATM   23  O1  UNL     1      27.305   4.040  48.878  1.00  0.00    -0.268 OA
HETATM   24  H4  UNL     1      24.878   5.043  50.632  1.00  0.00     0.169 HD
BRANCH  22  25
HETATM   25  C9  UNL     1      26.262   6.033  48.612  1.00  0.00     0.072 C 
HETATM   26  C10 UNL     1      27.234   6.864  48.298  1.00  0.00    -0.002 C 
BRANCH  26  27
HETATM   27  C11 UNL     1      28.689   6.953  48.448  1.00  0.00     0.144 C 
BRANCH  27  28
HETATM   28  N4  UNL     1      29.232   8.245  48.629  1.00  0.00    -0.405 N 
HETATM   29  C12 UNL     1      28.522   9.176  49.424  1.00  0.00     0.143 C 
HETATM   30  C13 UNL     1      28.974  10.571  48.995  1.00  0.00     0.187 C 
HETATM   31  O2  UNL     1      30.364  10.685  48.998  1.00  0.00    -0.388 OA
HETATM   32  C14 UNL     1      30.992   9.771  48.163  1.00  0.00     0.187 C 
HETATM   33  C15 UNL     1      30.634   8.390  48.740  1.00  0.00     0.143 C 
ENDBRANCH  27  28
ENDBRANCH  26  27
ENDBRANCH  22  25
ENDBRANCH   9  21
TORSDOF 6
ENDMDL
