MODEL 1
REMARK VINA RESULT:      -8.1      0.000      0.000
REMARK  4 active torsions:
REMARK  status: ('A' for Active; 'I' for Inactive)
REMARK    1  A    between atoms: C5_6  and  N1_7 
REMARK    2  A    between atoms: N1_7  and  C6_8 
REMARK    3  A    between atoms: C9_11  and  N2_12 
REMARK    4  A    between atoms: N2_12  and  C10_13 
ROOT
HETATM    1  C6  UNL     1      25.950   2.288  51.129  1.00  0.00     0.129 C 
HETATM    2  C7  UNL     1      26.664   1.171  51.462  1.00  0.00     0.052 C 
HETATM    3  C8  UNL     1      26.524  -0.111  51.942  1.00  0.00     0.033 C 
HETATM    4  C9  UNL     1      26.441  -0.519  53.254  1.00  0.00     0.030 C 
HETATM    5  C12 UNL     1      25.323  -0.896  53.955  1.00  0.00     0.030 C 
HETATM    6  C13 UNL     1      24.056  -0.424  53.741  1.00  0.00     0.021 C 
HETATM    7  C14 UNL     1      23.557   0.758  53.236  1.00  0.00     0.118 C 
HETATM    8  N3  UNL     1      23.080   1.238  52.083  1.00  0.00    -0.254 NA
HETATM    9  C15 UNL     1      23.645   2.284  51.440  1.00  0.00     0.234 C 
HETATM   10  N4  UNL     1      24.875   2.747  51.813  1.00  0.00    -0.225 NA
ENDROOT
BRANCH   1  11
HETATM   11  N1  UNL     1      26.491   2.894  49.964  1.00  0.00    -0.341 N 
HETATM   12  H4  UNL     1      27.010   2.079  49.598  1.00  0.00     0.167 HD
BRANCH  11  13
HETATM   13  C5  UNL     1      26.409   4.192  49.394  1.00  0.00     0.034 A 
HETATM   14  C4  UNL     1      25.198   4.834  49.347  1.00  0.00     0.029 A 
HETATM   15  C3  UNL     1      25.224   6.094  48.779  1.00  0.00     0.004 A 
HETATM   16  C2  UNL     1      26.382   6.647  48.301  1.00  0.00     0.019 A 
HETATM   17  C1  UNL     1      27.582   5.954  48.373  1.00  0.00     0.013 A 
HETATM   18 BR1  UNL     1      29.224   6.703  47.712  1.00  0.00    -0.051 Br
HETATM   19  C16 UNL     1      27.613   4.681  48.936  1.00  0.00     0.048 A 
ENDBRANCH  11  13
ENDBRANCH   1  11
BRANCH   4  20
HETATM   20  N2  UNL     1      27.679  -0.540  53.921  1.00  0.00    -0.362 N 
HETATM   21  H7  UNL     1      28.416  -1.298  53.878  1.00  0.00     0.162 HD
BRANCH  20  22
HETATM   22  C10 UNL     1      28.236   0.445  54.805  1.00  0.00     0.245 A 
HETATM   23  C11 UNL     1      29.369   1.280  54.256  1.00  0.00     0.224 A 
HETATM   24  O1  UNL     1      28.067   1.804  54.556  1.00  0.00    -0.360 OA
ENDBRANCH  20  22
ENDBRANCH   4  20
TORSDOF 4
ENDMDL
MODEL 2
REMARK VINA RESULT:      -7.9      1.560      1.982
REMARK  4 active torsions:
REMARK  status: ('A' for Active; 'I' for Inactive)
REMARK    1  A    between atoms: C5_6  and  N1_7 
REMARK    2  A    between atoms: N1_7  and  C6_8 
REMARK    3  A    between atoms: C9_11  and  N2_12 
REMARK    4  A    between atoms: N2_12  and  C10_13 
ROOT
HETATM    1  C6  UNL     1      24.172   2.137  51.501  1.00  0.00     0.129 C 
HETATM    2  C7  UNL     1      25.350   1.605  51.943  1.00  0.00     0.052 C 
HETATM    3  C8  UNL     1      25.886   0.493  52.552  1.00  0.00     0.033 C 
HETATM    4  C9  UNL     1      25.966   0.224  53.900  1.00  0.00     0.030 C 
HETATM    5  C12 UNL     1      25.182  -0.623  54.643  1.00  0.00     0.030 C 
HETATM    6  C13 UNL     1      23.870  -0.917  54.389  1.00  0.00     0.021 C 
HETATM    7  C14 UNL     1      22.848  -0.232  53.768  1.00  0.00     0.118 C 
HETATM    8  N3  UNL     1      22.246  -0.184  52.575  1.00  0.00    -0.254 NA
HETATM    9  C15 UNL     1      22.204   0.939  51.824  1.00  0.00     0.234 C 
HETATM   10  N4  UNL     1      22.984   2.016  52.141  1.00  0.00    -0.225 NA
ENDROOT
BRANCH   1  11
HETATM   11  N1  UNL     1      24.368   2.829  50.276  1.00  0.00    -0.341 N 
HETATM   12  H4  UNL     1      23.646   2.349  49.715  1.00  0.00     0.167 HD
BRANCH  11  13
HETATM   13  C5  UNL     1      25.245   3.863  49.853  1.00  0.00     0.034 A 
HETATM   14  C4  UNL     1      26.445   3.537  49.274  1.00  0.00     0.029 A 
HETATM   15  C3  UNL     1      27.223   4.613  48.891  1.00  0.00     0.004 A 
HETATM   16  C2  UNL     1      26.813   5.906  49.084  1.00  0.00     0.019 A 
HETATM   17  C1  UNL     1      25.590   6.182  49.676  1.00  0.00     0.013 A 
HETATM   18 BR1  UNL     1      24.986   7.984  49.960  1.00  0.00    -0.051 Br
HETATM   19  C16 UNL     1      24.764   5.134  50.080  1.00  0.00     0.048 A 
ENDBRANCH  11  13
ENDBRANCH   1  11
BRANCH   4  20
HETATM   20  N2  UNL     1      26.993   0.924  54.558  1.00  0.00    -0.362 N 
HETATM   21  H7  UNL     1      26.916   1.473  55.460  1.00  0.00     0.162 HD
BRANCH  20  22
HETATM   22  C10 UNL     1      28.370   1.061  54.177  1.00  0.00     0.245 A 
HETATM   23  C11 UNL     1      28.808   2.431  53.714  1.00  0.00     0.224 A 
HETATM   24  O1  UNL     1      29.248   1.827  54.939  1.00  0.00    -0.360 OA
ENDBRANCH  20  22
ENDBRANCH   4  20
TORSDOF 4
ENDMDL
MODEL 3
REMARK VINA RESULT:      -7.7      1.962      2.659
REMARK  4 active torsions:
REMARK  status: ('A' for Active; 'I' for Inactive)
REMARK    1  A    between atoms: C5_6  and  N1_7 
REMARK    2  A    between atoms: N1_7  and  C6_8 
REMARK    3  A    between atoms: C9_11  and  N2_12 
REMARK    4  A    between atoms: N2_12  and  C10_13 
ROOT
HETATM    1  C6  UNL     1      23.200   1.283  52.103  1.00  0.00     0.129 C 
HETATM    2  C7  UNL     1      24.325   0.588  52.448  1.00  0.00     0.052 C 
HETATM    3  C8  UNL     1      24.752  -0.536  53.117  1.00  0.00     0.033 C 
HETATM    4  C9  UNL     1      24.992  -0.677  54.466  1.00  0.00     0.030 C 
HETATM    5  C12 UNL     1      24.201  -1.283  55.409  1.00  0.00     0.030 C 
HETATM    6  C13 UNL     1      22.834  -1.352  55.373  1.00  0.00     0.021 C 
HETATM    7  C14 UNL     1      21.860  -0.554  54.811  1.00  0.00     0.118 C 
HETATM    8  N3  UNL     1      21.098  -0.516  53.714  1.00  0.00    -0.254 NA
HETATM    9  C15 UNL     1      21.132   0.512  52.838  1.00  0.00     0.234 C 
HETATM   10  N4  UNL     1      22.123   1.451  52.906  1.00  0.00    -0.225 NA
ENDROOT
BRANCH   1  11
HETATM   11  N1  UNL     1      23.320   1.798  50.785  1.00  0.00    -0.341 N 
HETATM   12  H4  UNL     1      23.087   0.936  50.265  1.00  0.00     0.167 HD
BRANCH  11  13
HETATM   13  C5  UNL     1      23.647   3.070  50.245  1.00  0.00     0.034 A 
HETATM   14  C4  UNL     1      22.664   4.014  50.094  1.00  0.00     0.029 A 
HETATM   15  C3  UNL     1      23.085   5.221  49.566  1.00  0.00     0.004 A 
HETATM   16  C2  UNL     1      24.392   5.442  49.223  1.00  0.00     0.019 A 
HETATM   17  C1  UNL     1      25.349   4.452  49.396  1.00  0.00     0.013 A 
HETATM   18 BR1  UNL     1      27.191   4.732  48.924  1.00  0.00    -0.051 Br
HETATM   19  C16 UNL     1      24.979   3.217  49.925  1.00  0.00     0.048 A 
ENDBRANCH  11  13
ENDBRANCH   1  11
BRANCH   4  20
HETATM   20  N2  UNL     1      26.213  -0.118  54.886  1.00  0.00    -0.362 N 
HETATM   21  H7  UNL     1      26.437   0.285  55.838  1.00  0.00     0.162 HD
BRANCH  20  22
HETATM   22  C10 UNL     1      27.430   0.037  54.141  1.00  0.00     0.245 A 
HETATM   23  C11 UNL     1      28.699   0.192  54.947  1.00  0.00     0.224 A 
HETATM   24  O1  UNL     1      28.402  -0.961  54.146  1.00  0.00    -0.360 OA
ENDBRANCH  20  22
ENDBRANCH   4  20
TORSDOF 4
ENDMDL
MODEL 4
REMARK VINA RESULT:      -7.5      1.680      2.151
REMARK  4 active torsions:
REMARK  status: ('A' for Active; 'I' for Inactive)
REMARK    1  A    between atoms: C5_6  and  N1_7 
REMARK    2  A    between atoms: N1_7  and  C6_8 
REMARK    3  A    between atoms: C9_11  and  N2_12 
REMARK    4  A    between atoms: N2_12  and  C10_13 
ROOT
HETATM    1  C6  UNL     1      25.124   3.645  50.256  1.00  0.00     0.129 C 
HETATM    2  C7  UNL     1      26.146   3.022  50.914  1.00  0.00     0.052 C 
HETATM    3  C8  UNL     1      26.462   1.874  51.605  1.00  0.00     0.033 C 
HETATM    4  C9  UNL     1      26.256   1.606  52.939  1.00  0.00     0.030 C 
HETATM    5  C12 UNL     1      25.277   0.829  53.506  1.00  0.00     0.030 C 
HETATM    6  C13 UNL     1      24.020   0.639  52.998  1.00  0.00     0.021 C 
HETATM    7  C14 UNL     1      23.198   1.401  52.196  1.00  0.00     0.118 C 
HETATM    8  N3  UNL     1      22.846   1.491  50.909  1.00  0.00    -0.254 NA
HETATM    9  C15 UNL     1      23.042   2.609  50.176  1.00  0.00     0.234 C 
HETATM   10  N4  UNL     1      23.828   3.622  50.650  1.00  0.00    -0.225 NA
ENDROOT
BRANCH   1  11
HETATM   11  N1  UNL     1      25.610   4.313  49.101  1.00  0.00    -0.341 N 
HETATM   12  H4  UNL     1      25.017   3.845  48.396  1.00  0.00     0.167 HD
BRANCH  11  13
HETATM   13  C5  UNL     1      26.591   5.314  48.876  1.00  0.00     0.034 A 
HETATM   14  C4  UNL     1      27.856   4.947  48.491  1.00  0.00     0.029 A 
HETATM   15  C3  UNL     1      28.736   5.995  48.292  1.00  0.00     0.004 A 
HETATM   16  C2  UNL     1      28.358   7.299  48.471  1.00  0.00     0.019 A 
HETATM   17  C1  UNL     1      27.066   7.616  48.862  1.00  0.00     0.013 A 
HETATM   18 BR1  UNL     1      26.505   9.436  49.121  1.00  0.00    -0.051 Br
HETATM   19  C16 UNL     1      26.138   6.599  49.076  1.00  0.00     0.048 A 
ENDBRANCH  11  13
ENDBRANCH   1  11
BRANCH   4  20
HETATM   20  N2  UNL     1      27.187   2.225  53.793  1.00  0.00    -0.362 N 
HETATM   21  H7  UNL     1      26.984   2.732  54.700  1.00  0.00     0.162 HD
BRANCH  20  22
HETATM   22  C10 UNL     1      28.612   2.318  53.647  1.00  0.00     0.245 A 
HETATM   23  C11 UNL     1      29.443   1.697  54.746  1.00  0.00     0.224 A 
HETATM   24  O1  UNL     1      29.379   1.180  53.409  1.00  0.00    -0.360 OA
ENDBRANCH  20  22
ENDBRANCH   4  20
TORSDOF 4
ENDMDL
MODEL 5
REMARK VINA RESULT:      -7.3      1.935      2.701
REMARK  4 active torsions:
REMARK  status: ('A' for Active; 'I' for Inactive)
REMARK    1  A    between atoms: C5_6  and  N1_7 
REMARK    2  A    between atoms: N1_7  and  C6_8 
REMARK    3  A    between atoms: C9_11  and  N2_12 
REMARK    4  A    between atoms: N2_12  and  C10_13 
ROOT
HETATM    1  C6  UNL     1      25.802   4.680  49.925  1.00  0.00     0.129 C 
HETATM    2  C7  UNL     1      26.420   3.583  50.454  1.00  0.00     0.052 C 
HETATM    3  C8  UNL     1      26.170   2.387  51.087  1.00  0.00     0.033 C 
HETATM    4  C9  UNL     1      25.976   2.166  52.432  1.00  0.00     0.030 C 
HETATM    5  C12 UNL     1      24.793   1.949  53.093  1.00  0.00     0.030 C 
HETATM    6  C13 UNL     1      23.574   2.454  52.726  1.00  0.00     0.021 C 
HETATM    7  C14 UNL     1      23.185   3.581  52.034  1.00  0.00     0.118 C 
HETATM    8  N3  UNL     1      22.815   3.925  50.797  1.00  0.00    -0.254 NA
HETATM    9  C15 UNL     1      23.485   4.841  50.064  1.00  0.00     0.234 C 
HETATM   10  N4  UNL     1      24.715   5.284  50.462  1.00  0.00    -0.225 NA
ENDROOT
BRANCH   1  11
HETATM   11  N1  UNL     1      26.454   5.092  48.733  1.00  0.00    -0.341 N 
HETATM   12  H4  UNL     1      25.853   4.597  48.053  1.00  0.00     0.167 HD
BRANCH  11  13
HETATM   13  C5  UNL     1      27.577   5.915  48.453  1.00  0.00     0.034 A 
HETATM   14  C4  UNL     1      27.424   7.278  48.415  1.00  0.00     0.029 A 
HETATM   15  C3  UNL     1      28.577   7.990  48.140  1.00  0.00     0.004 A 
HETATM   16  C2  UNL     1      29.777   7.366  47.923  1.00  0.00     0.019 A 
HETATM   17  C1  UNL     1      29.877   5.984  47.972  1.00  0.00     0.013 A 
HETATM   18 BR1  UNL     1      31.546   5.079  47.672  1.00  0.00    -0.051 Br
HETATM   19  C16 UNL     1      28.747   5.217  48.245  1.00  0.00     0.048 A 
ENDBRANCH  11  13
ENDBRANCH   1  11
BRANCH   4  20
HETATM   20  N2  UNL     1      27.164   2.170  53.185  1.00  0.00    -0.362 N 
HETATM   21  H7  UNL     1      27.707   3.016  53.516  1.00  0.00     0.162 HD
BRANCH  20  22
HETATM   22  C10 UNL     1      27.914   1.051  53.680  1.00  0.00     0.245 A 
HETATM   23  C11 UNL     1      29.260   1.361  54.295  1.00  0.00     0.224 A 
HETATM   24  O1  UNL     1      28.132   0.887  55.046  1.00  0.00    -0.360 OA
ENDBRANCH  20  22
ENDBRANCH   4  20
TORSDOF 4
ENDMDL
MODEL 6
REMARK VINA RESULT:      -7.2      1.730      2.224
REMARK  4 active torsions:
REMARK  status: ('A' for Active; 'I' for Inactive)
REMARK    1  A    between atoms: C5_6  and  N1_7 
REMARK    2  A    between atoms: N1_7  and  C6_8 
REMARK    3  A    between atoms: C9_11  and  N2_12 
REMARK    4  A    between atoms: N2_12  and  C10_13 
ROOT
HETATM    1  C6  UNL     1      23.172   2.919  51.715  1.00  0.00     0.129 C 
HETATM    2  C7  UNL     1      24.352   2.252  51.889  1.00  0.00     0.052 C 
HETATM    3  C8  UNL     1      24.874   1.007  52.156  1.00  0.00     0.033 C 
HETATM    4  C9  UNL     1      25.066   0.417  53.385  1.00  0.00     0.030 C 
HETATM    5  C12 UNL     1      24.306  -0.555  53.987  1.00  0.00     0.030 C 
HETATM    6  C13 UNL     1      22.960  -0.730  53.814  1.00  0.00     0.021 C 
HETATM    7  C14 UNL     1      21.927   0.123  53.486  1.00  0.00     0.118 C 
HETATM    8  N3  UNL     1      21.218   0.480  52.411  1.00  0.00    -0.254 NA
HETATM    9  C15 UNL     1      21.175   1.751  51.956  1.00  0.00     0.234 C 
HETATM   10  N4  UNL     1      22.047   2.690  52.432  1.00  0.00    -0.225 NA
ENDROOT
BRANCH   1  11
HETATM   11  N1  UNL     1      23.293   3.879  50.675  1.00  0.00    -0.341 N 
HETATM   12  H4  UNL     1      22.644   3.448  49.997  1.00  0.00     0.167 HD
BRANCH  11  13
HETATM   13  C5  UNL     1      24.037   5.078  50.517  1.00  0.00     0.034 A 
HETATM   14  C4  UNL     1      23.612   6.224  51.138  1.00  0.00     0.029 A 
HETATM   15  C3  UNL     1      24.407   7.335  50.927  1.00  0.00     0.004 A 
HETATM   16  C2  UNL     1      25.533   7.280  50.149  1.00  0.00     0.019 A 
HETATM   17  C1  UNL     1      25.919   6.094  49.542  1.00  0.00     0.013 A 
HETATM   18 BR1  UNL     1      27.494   5.984  48.446  1.00  0.00    -0.051 Br
HETATM   19  C16 UNL     1      25.154   4.944  49.722  1.00  0.00     0.048 A 
ENDBRANCH  11  13
ENDBRANCH   1  11
BRANCH   4  20
HETATM   20  N2  UNL     1      26.193   0.898  54.076  1.00  0.00    -0.362 N 
HETATM   21  H7  UNL     1      26.428   1.908  54.290  1.00  0.00     0.162 HD
BRANCH  20  22
HETATM   22  C10 UNL     1      27.277   0.153  54.651  1.00  0.00     0.245 A 
HETATM   23  C11 UNL     1      28.587   0.180  53.899  1.00  0.00     0.224 A 
HETATM   24  O1  UNL     1      28.390   0.803  55.176  1.00  0.00    -0.360 OA
ENDBRANCH  20  22
ENDBRANCH   4  20
TORSDOF 4
ENDMDL
MODEL 7
REMARK VINA RESULT:      -6.9      3.764      7.213
REMARK  4 active torsions:
REMARK  status: ('A' for Active; 'I' for Inactive)
REMARK    1  A    between atoms: C5_6  and  N1_7 
REMARK    2  A    between atoms: N1_7  and  C6_8 
REMARK    3  A    between atoms: C9_11  and  N2_12 
REMARK    4  A    between atoms: N2_12  and  C10_13 
ROOT
HETATM    1  C6  UNL     1      23.628   3.669  50.510  1.00  0.00     0.129 C 
HETATM    2  C7  UNL     1      24.577   4.629  50.728  1.00  0.00     0.052 C 
HETATM    3  C8  UNL     1      24.917   5.922  50.405  1.00  0.00     0.033 C 
HETATM    4  C9  UNL     1      25.602   6.365  49.297  1.00  0.00     0.030 C 
HETATM    5  C12 UNL     1      25.097   6.971  48.174  1.00  0.00     0.030 C 
HETATM    6  C13 UNL     1      23.852   6.756  47.649  1.00  0.00     0.021 C 
HETATM    7  C14 UNL     1      22.982   5.687  47.679  1.00  0.00     0.118 C 
HETATM    8  N3  UNL     1      21.900   5.288  48.355  1.00  0.00    -0.254 NA
HETATM    9  C15 UNL     1      21.867   4.139  49.065  1.00  0.00     0.234 C 
HETATM   10  N4  UNL     1      23.018   3.448  49.322  1.00  0.00    -0.225 NA
ENDROOT
BRANCH   1  11
HETATM   11  N1  UNL     1      23.371   2.945  51.704  1.00  0.00    -0.341 N 
HETATM   12  H4  UNL     1      22.660   3.574  52.112  1.00  0.00     0.167 HD
BRANCH  11  13
HETATM   13  C5  UNL     1      23.872   1.737  52.257  1.00  0.00     0.034 A 
HETATM   14  C4  UNL     1      25.160   1.351  51.982  1.00  0.00     0.029 A 
HETATM   15  C3  UNL     1      25.555   0.165  52.572  1.00  0.00     0.004 A 
HETATM   16  C2  UNL     1      24.710  -0.562  53.368  1.00  0.00     0.019 A 
HETATM   17  C1  UNL     1      23.416  -0.127  53.614  1.00  0.00     0.013 A 
HETATM   18 BR1  UNL     1      22.208  -1.124  54.727  1.00  0.00    -0.051 Br
HETATM   19  C16 UNL     1      22.966   1.062  53.045  1.00  0.00     0.048 A 
ENDBRANCH  11  13
ENDBRANCH   1  11
BRANCH   4  20
HETATM   20  N2  UNL     1      26.991   6.152  49.367  1.00  0.00    -0.362 N 
HETATM   21  H7  UNL     1      27.620   6.306  50.204  1.00  0.00     0.162 HD
BRANCH  20  22
HETATM   22  C10 UNL     1      27.878   5.682  48.340  1.00  0.00     0.245 A 
HETATM   23  C11 UNL     1      29.172   6.442  48.167  1.00  0.00     0.224 A 
HETATM   24  O1  UNL     1      29.100   5.099  48.666  1.00  0.00    -0.360 OA
ENDBRANCH  20  22
ENDBRANCH   4  20
TORSDOF 4
ENDMDL
MODEL 8
REMARK VINA RESULT:      -6.9      2.783      4.242
REMARK  4 active torsions:
REMARK  status: ('A' for Active; 'I' for Inactive)
REMARK    1  A    between atoms: C5_6  and  N1_7 
REMARK    2  A    between atoms: N1_7  and  C6_8 
REMARK    3  A    between atoms: C9_11  and  N2_12 
REMARK    4  A    between atoms: N2_12  and  C10_13 
ROOT
HETATM    1  C6  UNL     1      23.914   3.345  50.985  1.00  0.00     0.129 C 
HETATM    2  C7  UNL     1      23.440   2.683  52.083  1.00  0.00     0.052 C 
HETATM    3  C8  UNL     1      23.843   1.948  53.173  1.00  0.00     0.033 C 
HETATM    4  C9  UNL     1      24.108   0.598  53.233  1.00  0.00     0.030 C 
HETATM    5  C12 UNL     1      25.330  -0.025  53.254  1.00  0.00     0.030 C 
HETATM    6  C13 UNL     1      26.471   0.444  52.662  1.00  0.00     0.021 C 
HETATM    7  C14 UNL     1      26.708   1.261  51.577  1.00  0.00     0.118 C 
HETATM    8  N3  UNL     1      26.995   2.542  51.324  1.00  0.00    -0.254 NA
HETATM    9  C15 UNL     1      26.201   3.330  50.564  1.00  0.00     0.234 C 
HETATM   10  N4  UNL     1      24.944   2.921  50.216  1.00  0.00    -0.225 NA
ENDROOT
BRANCH   1  11
HETATM   11  N1  UNL     1      23.178   4.541  50.770  1.00  0.00    -0.341 N 
HETATM   12  H4  UNL     1      22.244   4.194  51.046  1.00  0.00     0.167 HD
BRANCH  11  13
HETATM   13  C5  UNL     1      23.517   5.845  50.322  1.00  0.00     0.034 A 
HETATM   14  C4  UNL     1      23.977   6.771  51.224  1.00  0.00     0.029 A 
HETATM   15  C3  UNL     1      24.285   8.008  50.688  1.00  0.00     0.004 A 
HETATM   16  C2  UNL     1      24.135   8.274  49.353  1.00  0.00     0.019 A 
HETATM   17  C1  UNL     1      23.665   7.302  48.484  1.00  0.00     0.013 A 
HETATM   18 BR1  UNL     1      23.444   7.645  46.605  1.00  0.00    -0.051 Br
HETATM   19  C16 UNL     1      23.340   6.037  48.970  1.00  0.00     0.048 A 
ENDBRANCH  11  13
ENDBRANCH   1  11
BRANCH   4  20
HETATM   20  N2  UNL     1      22.954  -0.205  53.278  1.00  0.00    -0.362 N 
HETATM   21  H7  UNL     1      22.563  -0.807  52.500  1.00  0.00     0.162 HD
BRANCH  20  22
HETATM   22  C10 UNL     1      22.042  -0.402  54.370  1.00  0.00     0.245 A 
HETATM   23  C11 UNL     1      21.196  -1.653  54.324  1.00  0.00     0.224 A 
HETATM   24  O1  UNL     1      22.239  -1.433  55.285  1.00  0.00    -0.360 OA
ENDBRANCH  20  22
ENDBRANCH   4  20
TORSDOF 4
ENDMDL
MODEL 9
REMARK VINA RESULT:      -6.9      2.840      3.294
REMARK  4 active torsions:
REMARK  status: ('A' for Active; 'I' for Inactive)
REMARK    1  A    between atoms: C5_6  and  N1_7 
REMARK    2  A    between atoms: N1_7  and  C6_8 
REMARK    3  A    between atoms: C9_11  and  N2_12 
REMARK    4  A    between atoms: N2_12  and  C10_13 
ROOT
HETATM    1  C6  UNL     1      23.456   2.903  51.527  1.00  0.00     0.129 C 
HETATM    2  C7  UNL     1      24.604   2.177  51.668  1.00  0.00     0.052 C 
HETATM    3  C8  UNL     1      25.072   0.925  51.997  1.00  0.00     0.033 C 
HETATM    4  C9  UNL     1      25.323   0.420  53.253  1.00  0.00     0.030 C 
HETATM    5  C12 UNL     1      24.556  -0.453  53.984  1.00  0.00     0.030 C 
HETATM    6  C13 UNL     1      23.193  -0.553  53.924  1.00  0.00     0.021 C 
HETATM    7  C14 UNL     1      22.190   0.337  53.604  1.00  0.00     0.118 C 
HETATM    8  N3  UNL     1      21.422   0.655  52.557  1.00  0.00    -0.254 NA
HETATM    9  C15 UNL     1      21.418   1.889  52.005  1.00  0.00     0.234 C 
HETATM   10  N4  UNL     1      22.377   2.803  52.339  1.00  0.00    -0.225 NA
ENDROOT
BRANCH   1  11
HETATM   11  N1  UNL     1      23.551   3.771  50.407  1.00  0.00    -0.341 N 
HETATM   12  H4  UNL     1      24.154   4.496  50.829  1.00  0.00     0.167 HD
BRANCH  11  13
HETATM   13  C5  UNL     1      23.028   3.746  49.087  1.00  0.00     0.034 A 
HETATM   14  C4  UNL     1      22.645   2.550  48.534  1.00  0.00     0.029 A 
HETATM   15  C3  UNL     1      22.143   2.632  47.249  1.00  0.00     0.004 A 
HETATM   16  C2  UNL     1      22.043   3.827  46.588  1.00  0.00     0.019 A 
HETATM   17  C1  UNL     1      22.445   5.009  47.192  1.00  0.00     0.013 A 
HETATM   18 BR1  UNL     1      22.316   6.702  46.291  1.00  0.00    -0.051 Br
HETATM   19  C16 UNL     1      22.958   4.984  48.487  1.00  0.00     0.048 A 
ENDBRANCH  11  13
ENDBRANCH   1  11
BRANCH   4  20
HETATM   20  N2  UNL     1      26.526   0.879  53.819  1.00  0.00    -0.362 N 
HETATM   21  H7  UNL     1      26.651   1.697  54.479  1.00  0.00     0.162 HD
BRANCH  20  22
HETATM   22  C10 UNL     1      27.853   0.360  53.645  1.00  0.00     0.245 A 
HETATM   23  C11 UNL     1      28.665   0.150  54.902  1.00  0.00     0.224 A 
HETATM   24  O1  UNL     1      28.180  -0.922  54.081  1.00  0.00    -0.360 OA
ENDBRANCH  20  22
ENDBRANCH   4  20
TORSDOF 4
ENDMDL
