MODEL 1
REMARK VINA RESULT:      -7.0      0.000      0.000
REMARK  6 active torsions:
REMARK  status: ('A' for Active; 'I' for Inactive)
REMARK    1  A    between atoms: C2_2  and  C3_3 
REMARK    2  A    between atoms: C4_5  and  C5_6 
REMARK    3  A    between atoms: C5_6  and  N1_7 
REMARK    4  A    between atoms: N1_7  and  C6_8 
REMARK    5  A    between atoms: C11_15  and  N4_16 
REMARK    6  A    between atoms: N4_16  and  N5_17 
ROOT
HETATM    1  C6  UNL     1      23.465   3.440  52.500  1.00  0.00     0.137 A 
HETATM    2  N2  UNL     1      22.213   3.302  52.054  1.00  0.00    -0.224 NA
HETATM    3  C7  UNL     1      21.565   2.126  52.050  1.00  0.00     0.235 A 
HETATM    4  N3  UNL     1      22.172   0.993  52.514  1.00  0.00    -0.241 NA
HETATM    5  C8  UNL     1      23.444   1.045  52.985  1.00  0.00     0.072 A 
HETATM    6  C9  UNL     1      24.051  -0.099  53.451  1.00  0.00     0.035 A 
HETATM    7  C10 UNL     1      25.345  -0.034  53.927  1.00  0.00     0.033 A 
HETATM    8  C11 UNL     1      26.013   1.198  53.926  1.00  0.00     0.053 A 
HETATM    9  C12 UNL     1      25.343   2.305  53.445  1.00  0.00     0.048 A 
HETATM   10  C13 UNL     1      24.053   2.282  52.961  1.00  0.00     0.041 A 
ENDROOT
BRANCH   1  11
HETATM   11  N1  UNL     1      24.134   4.707  52.493  1.00  0.00    -0.370 N 
HETATM   12  H9  UNL     1      24.852   5.010  53.149  1.00  0.00     0.161 HD
BRANCH  11  13
HETATM   13  C5  UNL     1      23.738   5.641  51.439  1.00  0.00     0.150 C 
BRANCH  13  14
HETATM   14  C4  UNL     1      24.843   5.898  50.482  1.00  0.00     0.012 C 
HETATM   15  C3  UNL     1      25.533   5.179  49.609  1.00  0.00     0.009 C 
HETATM   16 CL1  UNL     1      26.779   6.012  48.703  1.00  0.00    -0.089 Cl
BRANCH  15  17
HETATM   17  C2  UNL     1      25.274   3.731  49.396  1.00  0.00     0.046 C 
HETATM   18  C1  UNL     1      26.447   2.996  50.040  1.00  0.00     0.011 C 
ENDBRANCH  15  17
ENDBRANCH  13  14
ENDBRANCH  11  13
ENDBRANCH   1  11
BRANCH   8  19
HETATM   19  N4  UNL     1      27.365   1.295  54.419  1.00  0.00    -0.254 N 
HETATM   20  H13 UNL     1      27.691   0.552  55.076  1.00  0.00     0.191 HD
BRANCH  19  21
HETATM   21  N5  UNL     1      28.228   2.345  54.039  1.00  0.00    -0.014 NA
HETATM   22  O1  UNL     1      29.323   2.438  54.659  1.00  0.00    -0.042 OA
ENDBRANCH  19  21
ENDBRANCH   8  19
TORSDOF 6
ENDMDL
MODEL 2
REMARK VINA RESULT:      -6.9      2.240      2.831
REMARK  6 active torsions:
REMARK  status: ('A' for Active; 'I' for Inactive)
REMARK    1  A    between atoms: C2_2  and  C3_3 
REMARK    2  A    between atoms: C4_5  and  C5_6 
REMARK    3  A    between atoms: C5_6  and  N1_7 
REMARK    4  A    between atoms: N1_7  and  C6_8 
REMARK    5  A    between atoms: C11_15  and  N4_16 
REMARK    6  A    between atoms: N4_16  and  N5_17 
ROOT
HETATM    1  C6  UNL     1      25.320   2.925  51.562  1.00  0.00     0.137 A 
HETATM    2  N2  UNL     1      24.169   3.603  51.581  1.00  0.00    -0.224 NA
HETATM    3  C7  UNL     1      23.054   3.132  52.163  1.00  0.00     0.235 A 
HETATM    4  N3  UNL     1      23.049   1.911  52.775  1.00  0.00    -0.241 NA
HETATM    5  C8  UNL     1      24.177   1.157  52.801  1.00  0.00     0.072 A 
HETATM    6  C9  UNL     1      24.167  -0.074  53.418  1.00  0.00     0.035 A 
HETATM    7  C10 UNL     1      25.320  -0.832  53.438  1.00  0.00     0.033 A 
HETATM    8  C11 UNL     1      26.477  -0.332  52.828  1.00  0.00     0.053 A 
HETATM    9  C12 UNL     1      26.416   0.910  52.227  1.00  0.00     0.048 A 
HETATM   10  C13 UNL     1      25.286   1.697  52.185  1.00  0.00     0.041 A 
ENDROOT
BRANCH   1  11
HETATM   11  N1  UNL     1      26.496   3.452  50.934  1.00  0.00    -0.370 N 
HETATM   12  H9  UNL     1      27.312   3.831  51.412  1.00  0.00     0.161 HD
BRANCH  11  13
HETATM   13  C5  UNL     1      26.511   3.434  49.471  1.00  0.00     0.150 C 
BRANCH  13  14
HETATM   14  C4  UNL     1      27.325   4.540  48.912  1.00  0.00     0.012 C 
HETATM   15  C3  UNL     1      27.107   5.797  48.554  1.00  0.00     0.009 C 
HETATM   16 CL1  UNL     1      28.474   6.694  47.928  1.00  0.00    -0.089 Cl
BRANCH  15  17
HETATM   17  C2  UNL     1      25.768   6.432  48.673  1.00  0.00     0.046 C 
HETATM   18  C1  UNL     1      25.715   7.036  50.074  1.00  0.00     0.011 C 
ENDBRANCH  15  17
ENDBRANCH  13  14
ENDBRANCH  11  13
ENDBRANCH   1  11
BRANCH   8  19
HETATM   19  N4  UNL     1      27.697  -1.103  52.834  1.00  0.00    -0.254 N 
HETATM   20  H13 UNL     1      28.591  -0.587  52.683  1.00  0.00     0.191 HD
BRANCH  19  21
HETATM   21  N5  UNL     1      27.699  -2.500  53.034  1.00  0.00    -0.014 NA
HETATM   22  O1  UNL     1      28.797  -3.029  53.361  1.00  0.00    -0.042 OA
ENDBRANCH  19  21
ENDBRANCH   8  19
TORSDOF 6
ENDMDL
MODEL 3
REMARK VINA RESULT:      -6.9      3.418      5.215
REMARK  6 active torsions:
REMARK  status: ('A' for Active; 'I' for Inactive)
REMARK    1  A    between atoms: C2_2  and  C3_3 
REMARK    2  A    between atoms: C4_5  and  C5_6 
REMARK    3  A    between atoms: C5_6  and  N1_7 
REMARK    4  A    between atoms: N1_7  and  C6_8 
REMARK    5  A    between atoms: C11_15  and  N4_16 
REMARK    6  A    between atoms: N4_16  and  N5_17 
ROOT
HETATM    1  C6  UNL     1      24.354   2.356  52.252  1.00  0.00     0.137 A 
HETATM    2  N2  UNL     1      24.666   2.940  51.091  1.00  0.00    -0.224 NA
HETATM    3  C7  UNL     1      23.914   2.815  49.986  1.00  0.00     0.235 A 
HETATM    4  N3  UNL     1      22.770   2.068  50.000  1.00  0.00    -0.241 NA
HETATM    5  C8  UNL     1      22.380   1.441  51.138  1.00  0.00     0.072 A 
HETATM    6  C9  UNL     1      21.228   0.689  51.148  1.00  0.00     0.035 A 
HETATM    7  C10 UNL     1      20.841   0.055  52.312  1.00  0.00     0.033 A 
HETATM    8  C11 UNL     1      21.633   0.191  53.459  1.00  0.00     0.053 A 
HETATM    9  C12 UNL     1      22.776   0.961  53.378  1.00  0.00     0.048 A 
HETATM   10  C13 UNL     1      23.196   1.608  52.237  1.00  0.00     0.041 A 
ENDROOT
BRANCH   1  11
HETATM   11  N1  UNL     1      25.173   2.506  53.417  1.00  0.00    -0.370 N 
HETATM   12  H9  UNL     1      24.877   2.891  54.313  1.00  0.00     0.161 HD
BRANCH  11  13
HETATM   13  C5  UNL     1      26.561   2.059  53.294  1.00  0.00     0.150 C 
BRANCH  13  14
HETATM   14  C4  UNL     1      26.650   0.614  52.969  1.00  0.00     0.012 C 
HETATM   15  C3  UNL     1      27.427  -0.397  53.329  1.00  0.00     0.009 C 
HETATM   16 CL1  UNL     1      27.082  -1.958  52.614  1.00  0.00    -0.089 Cl
BRANCH  15  17
HETATM   17  C2  UNL     1      28.544  -0.230  54.296  1.00  0.00     0.046 C 
HETATM   18  C1  UNL     1      29.794  -0.742  53.583  1.00  0.00     0.011 C 
ENDBRANCH  15  17
ENDBRANCH  13  14
ENDBRANCH  11  13
ENDBRANCH   1  11
BRANCH   8  19
HETATM   19  N4  UNL     1      21.252  -0.460  54.689  1.00  0.00    -0.254 N 
HETATM   20  H13 UNL     1      20.581   0.043  55.310  1.00  0.00     0.191 HD
BRANCH  19  21
HETATM   21  N5  UNL     1      21.757  -1.727  55.055  1.00  0.00    -0.014 NA
HETATM   22  O1  UNL     1      22.824  -1.744  55.727  1.00  0.00    -0.042 OA
ENDBRANCH  19  21
ENDBRANCH   8  19
TORSDOF 6
ENDMDL
MODEL 4
REMARK VINA RESULT:      -6.7      2.319      2.912
REMARK  6 active torsions:
REMARK  status: ('A' for Active; 'I' for Inactive)
REMARK    1  A    between atoms: C2_2  and  C3_3 
REMARK    2  A    between atoms: C4_5  and  C5_6 
REMARK    3  A    between atoms: C5_6  and  N1_7 
REMARK    4  A    between atoms: N1_7  and  C6_8 
REMARK    5  A    between atoms: C11_15  and  N4_16 
REMARK    6  A    between atoms: N4_16  and  N5_17 
ROOT
HETATM    1  C6  UNL     1      21.840   0.789  51.726  1.00  0.00     0.137 A 
HETATM    2  N2  UNL     1      20.518   0.939  51.599  1.00  0.00    -0.224 NA
HETATM    3  C7  UNL     1      19.641   0.480  52.505  1.00  0.00     0.235 A 
HETATM    4  N3  UNL     1      20.072  -0.178  53.623  1.00  0.00    -0.241 NA
HETATM    5  C8  UNL     1      21.399  -0.374  53.829  1.00  0.00     0.072 A 
HETATM    6  C9  UNL     1      21.829  -1.037  54.956  1.00  0.00     0.035 A 
HETATM    7  C10 UNL     1      23.180  -1.231  55.155  1.00  0.00     0.033 A 
HETATM    8  C11 UNL     1      24.087  -0.747  54.204  1.00  0.00     0.053 A 
HETATM    9  C12 UNL     1      23.587  -0.091  53.097  1.00  0.00     0.048 A 
HETATM   10  C13 UNL     1      22.247   0.122  52.861  1.00  0.00     0.041 A 
ENDROOT
BRANCH   1  11
HETATM   11  N1  UNL     1      22.755   1.290  50.744  1.00  0.00    -0.370 N 
HETATM   12  H9  UNL     1      23.257   0.734  50.053  1.00  0.00     0.161 HD
BRANCH  11  13
HETATM   13  C5  UNL     1      22.976   2.737  50.744  1.00  0.00     0.150 C 
BRANCH  13  14
HETATM   14  C4  UNL     1      24.284   3.098  50.146  1.00  0.00     0.012 C 
HETATM   15  C3  UNL     1      25.552   3.054  50.529  1.00  0.00     0.009 C 
HETATM   16 CL1  UNL     1      26.748   3.629  49.386  1.00  0.00    -0.089 Cl
BRANCH  15  17
HETATM   17  C2  UNL     1      25.956   2.541  51.864  1.00  0.00     0.046 C 
HETATM   18  C1  UNL     1      26.692   1.229  51.603  1.00  0.00     0.011 C 
ENDBRANCH  15  17
ENDBRANCH  13  14
ENDBRANCH  11  13
ENDBRANCH   1  11
BRANCH   8  19
HETATM   19  N4  UNL     1      25.506  -0.935  54.387  1.00  0.00    -0.254 N 
HETATM   20  H13 UNL     1      25.996  -1.568  53.718  1.00  0.00     0.191 HD
BRANCH  19  21
HETATM   21  N5  UNL     1      26.220  -0.296  55.424  1.00  0.00    -0.014 NA
HETATM   22  O1  UNL     1      26.864   0.744  55.117  1.00  0.00    -0.042 OA
ENDBRANCH  19  21
ENDBRANCH   8  19
TORSDOF 6
ENDMDL
MODEL 5
REMARK VINA RESULT:      -6.6      4.361      5.993
REMARK  6 active torsions:
REMARK  status: ('A' for Active; 'I' for Inactive)
REMARK    1  A    between atoms: C2_2  and  C3_3 
REMARK    2  A    between atoms: C4_5  and  C5_6 
REMARK    3  A    between atoms: C5_6  and  N1_7 
REMARK    4  A    between atoms: N1_7  and  C6_8 
REMARK    5  A    between atoms: C11_15  and  N4_16 
REMARK    6  A    between atoms: N4_16  and  N5_17 
ROOT
HETATM    1  C6  UNL     1      23.561  -0.299  53.392  1.00  0.00     0.137 A 
HETATM    2  N2  UNL     1      23.808  -0.894  54.562  1.00  0.00    -0.224 NA
HETATM    3  C7  UNL     1      22.840  -1.396  55.345  1.00  0.00     0.235 A 
HETATM    4  N3  UNL     1      21.528  -1.318  54.970  1.00  0.00    -0.241 NA
HETATM    5  C8  UNL     1      21.190  -0.729  53.795  1.00  0.00     0.072 A 
HETATM    6  C9  UNL     1      19.867  -0.651  53.421  1.00  0.00     0.035 A 
HETATM    7  C10 UNL     1      19.534  -0.049  52.225  1.00  0.00     0.033 A 
HETATM    8  C11 UNL     1      20.553   0.471  51.415  1.00  0.00     0.053 A 
HETATM    9  C12 UNL     1      21.857   0.359  51.852  1.00  0.00     0.048 A 
HETATM   10  C13 UNL     1      22.231  -0.233  53.038  1.00  0.00     0.041 A 
ENDROOT
BRANCH   1  11
HETATM   11  N1  UNL     1      24.614   0.227  52.575  1.00  0.00    -0.370 N 
HETATM   12  H9  UNL     1      24.506   0.903  51.820  1.00  0.00     0.161 HD
BRANCH  11  13
HETATM   13  C5  UNL     1      25.963  -0.259  52.866  1.00  0.00     0.150 C 
BRANCH  13  14
HETATM   14  C4  UNL     1      26.917   0.855  53.089  1.00  0.00     0.012 C 
HETATM   15  C3  UNL     1      28.053   1.018  53.752  1.00  0.00     0.009 C 
HETATM   16 CL1  UNL     1      28.794   2.604  53.680  1.00  0.00    -0.089 Cl
BRANCH  15  17
HETATM   17  C2  UNL     1      28.682  -0.084  54.526  1.00  0.00     0.046 C 
HETATM   18  C1  UNL     1      29.680  -0.743  53.579  1.00  0.00     0.011 C 
ENDBRANCH  15  17
ENDBRANCH  13  14
ENDBRANCH  11  13
ENDBRANCH   1  11
BRANCH   8  19
HETATM   19  N4  UNL     1      20.234   1.105  50.159  1.00  0.00    -0.254 N 
HETATM   20  H13 UNL     1      19.335   1.632  50.102  1.00  0.00     0.191 HD
BRANCH  19  21
HETATM   21  N5  UNL     1      21.091   1.026  49.041  1.00  0.00    -0.014 NA
HETATM   22  O1  UNL     1      21.589   2.108  48.625  1.00  0.00    -0.042 OA
ENDBRANCH  19  21
ENDBRANCH   8  19
TORSDOF 6
ENDMDL
MODEL 6
REMARK VINA RESULT:      -6.5      2.614      4.405
REMARK  6 active torsions:
REMARK  status: ('A' for Active; 'I' for Inactive)
REMARK    1  A    between atoms: C2_2  and  C3_3 
REMARK    2  A    between atoms: C4_5  and  C5_6 
REMARK    3  A    between atoms: C5_6  and  N1_7 
REMARK    4  A    between atoms: N1_7  and  C6_8 
REMARK    5  A    between atoms: C11_15  and  N4_16 
REMARK    6  A    between atoms: N4_16  and  N5_17 
ROOT
HETATM    1  C6  UNL     1      26.669   2.222  52.330  1.00  0.00     0.137 A 
HETATM    2  N2  UNL     1      27.955   2.020  52.631  1.00  0.00    -0.224 NA
HETATM    3  C7  UNL     1      28.378   0.978  53.364  1.00  0.00     0.235 A 
HETATM    4  N3  UNL     1      27.492   0.057  53.845  1.00  0.00    -0.241 NA
HETATM    5  C8  UNL     1      26.166   0.187  53.586  1.00  0.00     0.072 A 
HETATM    6  C9  UNL     1      25.276  -0.743  54.073  1.00  0.00     0.035 A 
HETATM    7  C10 UNL     1      23.930  -0.601  53.804  1.00  0.00     0.033 A 
HETATM    8  C11 UNL     1      23.498   0.490  53.038  1.00  0.00     0.053 A 
HETATM    9  C12 UNL     1      24.445   1.385  52.581  1.00  0.00     0.048 A 
HETATM   10  C13 UNL     1      25.796   1.278  52.829  1.00  0.00     0.041 A 
ENDROOT
BRANCH   1  11
HETATM   11  N1  UNL     1      26.243   3.342  51.545  1.00  0.00    -0.370 N 
HETATM   12  H9  UNL     1      25.758   4.168  51.892  1.00  0.00     0.161 HD
BRANCH  11  13
HETATM   13  C5  UNL     1      26.543   3.280  50.114  1.00  0.00     0.150 C 
BRANCH  13  14
HETATM   14  C4  UNL     1      26.231   4.557  49.426  1.00  0.00     0.012 C 
HETATM   15  C3  UNL     1      26.901   5.430  48.689  1.00  0.00     0.009 C 
HETATM   16 CL1  UNL     1      26.013   6.823  48.105  1.00  0.00    -0.089 Cl
BRANCH  15  17
HETATM   17  C2  UNL     1      28.339   5.250  48.362  1.00  0.00     0.046 C 
HETATM   18  C1  UNL     1      28.831   6.611  47.874  1.00  0.00     0.011 C 
ENDBRANCH  15  17
ENDBRANCH  13  14
ENDBRANCH  11  13
ENDBRANCH   1  11
BRANCH   8  19
HETATM   19  N4  UNL     1      22.097   0.664  52.740  1.00  0.00    -0.254 N 
HETATM   20  H13 UNL     1      21.848   1.322  51.970  1.00  0.00     0.191 HD
BRANCH  19  21
HETATM   21  N5  UNL     1      21.089  -0.022  53.451  1.00  0.00    -0.014 NA
HETATM   22  O1  UNL     1      20.712   0.486  54.542  1.00  0.00    -0.042 OA
ENDBRANCH  19  21
ENDBRANCH   8  19
TORSDOF 6
ENDMDL
MODEL 7
REMARK VINA RESULT:      -6.4      3.810      5.605
REMARK  6 active torsions:
REMARK  status: ('A' for Active; 'I' for Inactive)
REMARK    1  A    between atoms: C2_2  and  C3_3 
REMARK    2  A    between atoms: C4_5  and  C5_6 
REMARK    3  A    between atoms: C5_6  and  N1_7 
REMARK    4  A    between atoms: N1_7  and  C6_8 
REMARK    5  A    between atoms: C11_15  and  N4_16 
REMARK    6  A    between atoms: N4_16  and  N5_17 
ROOT
HETATM    1  C6  UNL     1      23.205   0.836  52.616  1.00  0.00     0.137 A 
HETATM    2  N2  UNL     1      22.701   2.054  52.396  1.00  0.00    -0.224 NA
HETATM    3  C7  UNL     1      23.469   3.136  52.192  1.00  0.00     0.235 A 
HETATM    4  N3  UNL     1      24.832   3.037  52.201  1.00  0.00    -0.241 NA
HETATM    5  C8  UNL     1      25.426   1.836  52.419  1.00  0.00     0.072 A 
HETATM    6  C9  UNL     1      26.799   1.740  52.429  1.00  0.00     0.035 A 
HETATM    7  C10 UNL     1      27.392   0.514  52.651  1.00  0.00     0.033 A 
HETATM    8  C11 UNL     1      26.582  -0.609  52.863  1.00  0.00     0.053 A 
HETATM    9  C12 UNL     1      25.212  -0.440  52.840  1.00  0.00     0.048 A 
HETATM   10  C13 UNL     1      24.581   0.765  52.622  1.00  0.00     0.041 A 
ENDROOT
BRANCH   1  11
HETATM   11  N1  UNL     1      22.362  -0.303  52.831  1.00  0.00    -0.370 N 
HETATM   12  H9  UNL     1      22.354  -1.156  52.274  1.00  0.00     0.161 HD
BRANCH  11  13
HETATM   13  C5  UNL     1      21.435  -0.217  53.959  1.00  0.00     0.150 C 
BRANCH  13  14
HETATM   14  C4  UNL     1      20.099  -0.768  53.622  1.00  0.00     0.012 C 
HETATM   15  C3  UNL     1      19.067  -0.381  52.886  1.00  0.00     0.009 C 
HETATM   16 CL1  UNL     1      17.684  -1.454  52.831  1.00  0.00    -0.089 Cl
BRANCH  15  17
HETATM   17  C2  UNL     1      19.068   0.902  52.136  1.00  0.00     0.046 C 
HETATM   18  C1  UNL     1      19.393   0.540  50.689  1.00  0.00     0.011 C 
ENDBRANCH  15  17
ENDBRANCH  13  14
ENDBRANCH  11  13
ENDBRANCH   1  11
BRANCH   8  19
HETATM   19  N4  UNL     1      27.175  -1.903  53.098  1.00  0.00    -0.254 N 
HETATM   20  H13 UNL     1      26.574  -2.741  52.943  1.00  0.00     0.191 HD
BRANCH  19  21
HETATM   21  N5  UNL     1      28.514  -2.049  53.519  1.00  0.00    -0.014 NA
HETATM   22  O1  UNL     1      28.975  -3.222  53.563  1.00  0.00    -0.042 OA
ENDBRANCH  19  21
ENDBRANCH   8  19
TORSDOF 6
ENDMDL
MODEL 8
REMARK VINA RESULT:      -6.4      2.990      4.955
REMARK  6 active torsions:
REMARK  status: ('A' for Active; 'I' for Inactive)
REMARK    1  A    between atoms: C2_2  and  C3_3 
REMARK    2  A    between atoms: C4_5  and  C5_6 
REMARK    3  A    between atoms: C5_6  and  N1_7 
REMARK    4  A    between atoms: N1_7  and  C6_8 
REMARK    5  A    between atoms: C11_15  and  N4_16 
REMARK    6  A    between atoms: N4_16  and  N5_17 
ROOT
HETATM    1  C6  UNL     1      23.613  -0.300  53.642  1.00  0.00     0.137 A 
HETATM    2  N2  UNL     1      22.704  -0.820  54.471  1.00  0.00    -0.224 NA
HETATM    3  C7  UNL     1      21.438  -0.377  54.538  1.00  0.00     0.235 A 
HETATM    4  N3  UNL     1      21.015   0.649  53.742  1.00  0.00    -0.241 NA
HETATM    5  C8  UNL     1      21.874   1.235  52.871  1.00  0.00     0.072 A 
HETATM    6  C9  UNL     1      21.444   2.269  52.071  1.00  0.00     0.035 A 
HETATM    7  C10 UNL     1      22.328   2.858  51.189  1.00  0.00     0.033 A 
HETATM    8  C11 UNL     1      23.646   2.389  51.127  1.00  0.00     0.053 A 
HETATM    9  C12 UNL     1      24.010   1.348  51.958  1.00  0.00     0.048 A 
HETATM   10  C13 UNL     1      23.159   0.734  52.851  1.00  0.00     0.041 A 
ENDROOT
BRANCH   1  11
HETATM   11  N1  UNL     1      24.957  -0.792  53.589  1.00  0.00    -0.370 N 
HETATM   12  H9  UNL     1      25.342  -1.412  52.878  1.00  0.00     0.161 HD
BRANCH  11  13
HETATM   13  C5  UNL     1      25.848  -0.353  54.664  1.00  0.00     0.150 C 
BRANCH  13  14
HETATM   14  C4  UNL     1      26.740   0.750  54.229  1.00  0.00     0.012 C 
HETATM   15  C3  UNL     1      28.048   0.950  54.168  1.00  0.00     0.009 C 
HETATM   16 CL1  UNL     1      28.588   2.496  53.547  1.00  0.00    -0.089 Cl
BRANCH  15  17
HETATM   17  C2  UNL     1      29.027  -0.081  54.603  1.00  0.00     0.046 C 
HETATM   18  C1  UNL     1      29.401  -0.859  53.344  1.00  0.00     0.011 C 
ENDBRANCH  15  17
ENDBRANCH  13  14
ENDBRANCH  11  13
ENDBRANCH   1  11
BRANCH   8  19
HETATM   19  N4  UNL     1      24.590   2.985  50.214  1.00  0.00    -0.254 N 
HETATM   20  H13 UNL     1      24.357   2.957  49.197  1.00  0.00     0.191 HD
BRANCH  19  21
HETATM   21  N5  UNL     1      25.787   3.586  50.659  1.00  0.00    -0.014 NA
HETATM   22  O1  UNL     1      26.856   2.947  50.460  1.00  0.00    -0.042 OA
ENDBRANCH  19  21
ENDBRANCH   8  19
TORSDOF 6
ENDMDL
MODEL 9
REMARK VINA RESULT:      -6.3      3.285      5.165
REMARK  6 active torsions:
REMARK  status: ('A' for Active; 'I' for Inactive)
REMARK    1  A    between atoms: C2_2  and  C3_3 
REMARK    2  A    between atoms: C4_5  and  C5_6 
REMARK    3  A    between atoms: C5_6  and  N1_7 
REMARK    4  A    between atoms: N1_7  and  C6_8 
REMARK    5  A    between atoms: C11_15  and  N4_16 
REMARK    6  A    between atoms: N4_16  and  N5_17 
ROOT
HETATM    1  C6  UNL     1      24.749  -0.463  53.675  1.00  0.00     0.137 A 
HETATM    2  N2  UNL     1      25.257  -0.953  54.810  1.00  0.00    -0.224 NA
HETATM    3  C7  UNL     1      24.493  -1.414  55.812  1.00  0.00     0.235 A 
HETATM    4  N3  UNL     1      23.130  -1.403  55.714  1.00  0.00    -0.241 NA
HETATM    5  C8  UNL     1      22.532  -0.922  54.595  1.00  0.00     0.072 A 
HETATM    6  C9  UNL     1      21.159  -0.912  54.499  1.00  0.00     0.035 A 
HETATM    7  C10 UNL     1      20.562  -0.420  53.356  1.00  0.00     0.033 A 
HETATM    8  C11 UNL     1      21.368   0.059  52.316  1.00  0.00     0.053 A 
HETATM    9  C12 UNL     1      22.738   0.019  52.479  1.00  0.00     0.048 A 
HETATM   10  C13 UNL     1      23.373  -0.463  53.603  1.00  0.00     0.041 A 
ENDROOT
BRANCH   1  11
HETATM   11  N1  UNL     1      25.588   0.023  52.620  1.00  0.00    -0.370 N 
HETATM   12  H9  UNL     1      25.732  -0.423  51.715  1.00  0.00     0.161 HD
BRANCH  11  13
HETATM   13  C5  UNL     1      26.293   1.278  52.881  1.00  0.00     0.150 C 
BRANCH  13  14
HETATM   14  C4  UNL     1      26.542   2.043  51.635  1.00  0.00     0.012 C 
HETATM   15  C3  UNL     1      25.835   2.846  50.852  1.00  0.00     0.009 C 
HETATM   16 CL1  UNL     1      26.649   3.507  49.450  1.00  0.00    -0.089 Cl
BRANCH  15  17
HETATM   17  C2  UNL     1      24.415   3.179  51.138  1.00  0.00     0.046 C 
HETATM   18  C1  UNL     1      23.634   2.788  49.887  1.00  0.00     0.011 C 
ENDBRANCH  15  17
ENDBRANCH  13  14
ENDBRANCH  11  13
ENDBRANCH   1  11
BRANCH   8  19
HETATM   19  N4  UNL     1      20.770   0.578  51.110  1.00  0.00    -0.254 N 
HETATM   20  H13 UNL     1      21.272   0.402  50.212  1.00  0.00     0.191 HD
BRANCH  19  21
HETATM   21  N5  UNL     1      19.556   1.298  51.124  1.00  0.00    -0.014 NA
HETATM   22  O1  UNL     1      19.593   2.471  51.588  1.00  0.00    -0.042 OA
ENDBRANCH  19  21
ENDBRANCH   8  19
TORSDOF 6
ENDMDL
