MODEL 1
REMARK VINA RESULT:      -7.8      0.000      0.000
REMARK  6 active torsions:
REMARK  status: ('A' for Active; 'I' for Inactive)
REMARK    1  A    between atoms: C4_5  and  N1_6 
REMARK    2  A    between atoms: N1_6  and  C5_7 
REMARK    3  A    between atoms: N2_8  and  C6_9 
REMARK    4  A    between atoms: N3_10  and  C7_11 
REMARK    5  A    between atoms: C11_15  and  O1_16 
REMARK    6  A    between atoms: O1_16  and  C12_17 
ROOT
HETATM    1  C6  UNL     1      22.885   4.556  52.463  1.00  0.00     0.234 C 
HETATM    2  N3  UNL     1      21.637   4.379  52.317  1.00  0.00    -0.245 NA
ENDROOT
BRANCH   1   3
HETATM    3  N2  UNL     1      24.147   4.080  52.038  1.00  0.00    -0.237 NA
HETATM    4  C5  UNL     1      24.680   2.964  52.404  1.00  0.00     0.208 C 
BRANCH   4   5
HETATM    5  N1  UNL     1      25.975   2.749  51.806  1.00  0.00    -0.351 N 
HETATM    6  H3  UNL     1      26.328   3.269  50.952  1.00  0.00     0.166 HD
BRANCH   5   7
HETATM    7  C4  UNL     1      26.857   1.774  52.386  1.00  0.00     0.034 A 
HETATM    8  C3  UNL     1      27.975   2.096  53.131  1.00  0.00     0.032 A 
HETATM    9  C2  UNL     1      28.779   1.110  53.659  1.00  0.00     0.046 A 
HETATM   10  C1  UNL     1      28.450  -0.215  53.434  1.00  0.00     0.138 A 
HETATM   11  F1  UNL     1      29.293  -1.113  53.989  1.00  0.00    -0.204 F 
HETATM   12  C18 UNL     1      27.331  -0.527  52.690  1.00  0.00     0.074 A 
HETATM   13  C17 UNL     1      26.507   0.447  52.148  1.00  0.00     0.056 A 
HETATM   14 CL1  UNL     1      27.073  -2.251  52.510  1.00  0.00    -0.081 Cl
ENDBRANCH   5   7
ENDBRANCH   4   5
ENDBRANCH   1   3
BRANCH   2  15
HETATM   15  C7  UNL     1      20.984   3.443  51.505  1.00  0.00     0.058 A 
HETATM   16  C8  UNL     1      20.081   3.398  50.449  1.00  0.00     0.037 A 
HETATM   17  C9  UNL     1      20.188   2.021  50.497  1.00  0.00    -0.031 A 
HETATM   18  C10 UNL     1      20.195   0.643  50.429  1.00  0.00     0.042 A 
HETATM   19  C16 UNL     1      21.136   2.055  51.604  1.00  0.00     0.104 A 
HETATM   20  C11 UNL     1      21.104   0.672  51.490  1.00  0.00     0.069 A 
BRANCH  20  21
HETATM   21  O1  UNL     1      21.746  -0.323  52.181  1.00  0.00    -0.346 OA
BRANCH  21  22
HETATM   22  C12 UNL     1      21.940  -0.330  53.579  1.00  0.00     0.154 C 
HETATM   23  C13 UNL     1      23.386  -0.590  53.946  1.00  0.00     0.061 C 
HETATM   24  C14 UNL     1      23.239  -1.289  55.263  1.00  0.00     0.170 C 
HETATM   25  O2  UNL     1      21.979  -1.806  55.377  1.00  0.00    -0.389 OA
HETATM   26  C15 UNL     1      21.308  -1.593  54.180  1.00  0.00     0.200 C 
ENDBRANCH  21  22
ENDBRANCH  20  21
ENDBRANCH   2  15
TORSDOF 6
ENDMDL
MODEL 2
REMARK VINA RESULT:      -7.8      4.301      7.353
REMARK  6 active torsions:
REMARK  status: ('A' for Active; 'I' for Inactive)
REMARK    1  A    between atoms: C4_5  and  N1_6 
REMARK    2  A    between atoms: N1_6  and  C5_7 
REMARK    3  A    between atoms: N2_8  and  C6_9 
REMARK    4  A    between atoms: N3_10  and  C7_11 
REMARK    5  A    between atoms: C11_15  and  O1_16 
REMARK    6  A    between atoms: O1_16  and  C12_17 
ROOT
HETATM    1  C6  UNL     1      24.100  -1.300  55.784  1.00  0.00     0.234 C 
HETATM    2  N3  UNL     1      25.269  -0.980  55.407  1.00  0.00    -0.245 NA
ENDROOT
BRANCH   1   3
HETATM    3  N2  UNL     1      22.784  -1.514  55.312  1.00  0.00    -0.237 NA
HETATM    4  C5  UNL     1      21.944  -0.582  55.009  1.00  0.00     0.208 C 
BRANCH   4   5
HETATM    5  N1  UNL     1      20.679  -1.107  54.556  1.00  0.00    -0.351 N 
HETATM    6  H3  UNL     1      20.120  -1.841  55.077  1.00  0.00     0.166 HD
BRANCH   5   7
HETATM    7  C4  UNL     1      20.124  -0.617  53.324  1.00  0.00     0.034 A 
HETATM    8  C3  UNL     1      20.847   0.087  52.382  1.00  0.00     0.032 A 
HETATM    9  C2  UNL     1      20.251   0.529  51.220  1.00  0.00     0.046 A 
HETATM   10  C1  UNL     1      18.912   0.255  51.008  1.00  0.00     0.138 A 
HETATM   11  F1  UNL     1      18.412   0.724  49.844  1.00  0.00    -0.204 F 
HETATM   12  C18 UNL     1      18.198  -0.450  51.955  1.00  0.00     0.074 A 
HETATM   13  C17 UNL     1      18.775  -0.905  53.131  1.00  0.00     0.056 A 
HETATM   14 CL1  UNL     1      16.520  -0.702  51.516  1.00  0.00    -0.081 Cl
ENDBRANCH   5   7
ENDBRANCH   4   5
ENDBRANCH   1   3
BRANCH   2  15
HETATM   15  C7  UNL     1      25.709  -0.674  54.113  1.00  0.00     0.058 A 
HETATM   16  C8  UNL     1      26.391  -1.262  53.055  1.00  0.00     0.037 A 
HETATM   17  C9  UNL     1      26.228  -0.072  52.370  1.00  0.00    -0.031 A 
HETATM   18  C10 UNL     1      26.142   1.048  51.570  1.00  0.00     0.042 A 
HETATM   19  C16 UNL     1      25.512   0.555  53.473  1.00  0.00     0.104 A 
HETATM   20  C11 UNL     1      25.454   1.653  52.626  1.00  0.00     0.069 A 
BRANCH  20  21
HETATM   21  O1  UNL     1      24.909   2.902  52.775  1.00  0.00    -0.346 OA
BRANCH  21  22
HETATM   22  C12 UNL     1      23.536   3.200  52.631  1.00  0.00     0.154 C 
HETATM   23  C13 UNL     1      23.057   2.981  51.211  1.00  0.00     0.061 C 
HETATM   24  C14 UNL     1      21.965   4.001  51.104  1.00  0.00     0.170 C 
HETATM   25  O2  UNL     1      22.133   4.964  52.058  1.00  0.00    -0.389 OA
HETATM   26  C15 UNL     1      23.325   4.716  52.726  1.00  0.00     0.200 C 
ENDBRANCH  21  22
ENDBRANCH  20  21
ENDBRANCH   2  15
TORSDOF 6
ENDMDL
MODEL 3
REMARK VINA RESULT:      -7.7      4.169      5.898
REMARK  6 active torsions:
REMARK  status: ('A' for Active; 'I' for Inactive)
REMARK    1  A    between atoms: C4_5  and  N1_6 
REMARK    2  A    between atoms: N1_6  and  C5_7 
REMARK    3  A    between atoms: N2_8  and  C6_9 
REMARK    4  A    between atoms: N3_10  and  C7_11 
REMARK    5  A    between atoms: C11_15  and  O1_16 
REMARK    6  A    between atoms: O1_16  and  C12_17 
ROOT
HETATM    1  C6  UNL     1      22.345   1.274  51.177  1.00  0.00     0.234 C 
HETATM    2  N3  UNL     1      21.954   0.199  51.725  1.00  0.00    -0.245 NA
ENDROOT
BRANCH   1   3
HETATM    3  N2  UNL     1      23.173   2.403  51.378  1.00  0.00    -0.237 NA
HETATM    4  C5  UNL     1      23.122   3.492  50.686  1.00  0.00     0.208 C 
BRANCH   4   5
HETATM    5  N1  UNL     1      24.090   4.467  51.124  1.00  0.00    -0.351 N 
HETATM    6  H3  UNL     1      24.032   4.991  52.043  1.00  0.00     0.166 HD
BRANCH   5   7
HETATM    7  C4  UNL     1      25.213   4.762  50.276  1.00  0.00     0.034 A 
HETATM    8  C3  UNL     1      26.171   3.834  49.919  1.00  0.00     0.032 A 
HETATM    9  C2  UNL     1      27.224   4.184  49.101  1.00  0.00     0.046 A 
HETATM   10  C1  UNL     1      27.308   5.485  48.638  1.00  0.00     0.138 A 
HETATM   11  F1  UNL     1      28.370   5.739  47.844  1.00  0.00    -0.204 F 
HETATM   12  C18 UNL     1      26.346   6.406  49.000  1.00  0.00     0.074 A 
HETATM   13  C17 UNL     1      25.278   6.077  49.821  1.00  0.00     0.056 A 
HETATM   14 CL1  UNL     1      26.616   7.998  48.321  1.00  0.00    -0.081 Cl
ENDBRANCH   5   7
ENDBRANCH   4   5
ENDBRANCH   1   3
BRANCH   2  15
HETATM   15  C7  UNL     1      22.303  -0.310  52.982  1.00  0.00     0.058 A 
HETATM   16  C8  UNL     1      21.704  -0.844  54.117  1.00  0.00     0.037 A 
HETATM   17  C9  UNL     1      22.973  -0.970  54.652  1.00  0.00    -0.031 A 
HETATM   18  C10 UNL     1      24.171  -1.155  55.310  1.00  0.00     0.042 A 
HETATM   19  C16 UNL     1      23.612  -0.412  53.467  1.00  0.00     0.104 A 
HETATM   20  C11 UNL     1      24.788  -0.621  54.175  1.00  0.00     0.069 A 
BRANCH  20  21
HETATM   21  O1  UNL     1      26.102  -0.384  53.866  1.00  0.00    -0.346 OA
BRANCH  21  22
HETATM   22  C12 UNL     1      26.795   0.808  54.173  1.00  0.00     0.154 C 
HETATM   23  C13 UNL     1      27.274   1.518  52.923  1.00  0.00     0.061 C 
HETATM   24  C14 UNL     1      28.514   2.195  53.422  1.00  0.00     0.170 C 
HETATM   25  O2  UNL     1      28.956   1.578  54.559  1.00  0.00    -0.389 OA
HETATM   26  C15 UNL     1      28.156   0.467  54.793  1.00  0.00     0.200 C 
ENDBRANCH  21  22
ENDBRANCH  20  21
ENDBRANCH   2  15
TORSDOF 6
ENDMDL
MODEL 4
REMARK VINA RESULT:      -7.6      4.871      7.091
REMARK  6 active torsions:
REMARK  status: ('A' for Active; 'I' for Inactive)
REMARK    1  A    between atoms: C4_5  and  N1_6 
REMARK    2  A    between atoms: N1_6  and  C5_7 
REMARK    3  A    between atoms: N2_8  and  C6_9 
REMARK    4  A    between atoms: N3_10  and  C7_11 
REMARK    5  A    between atoms: C11_15  and  O1_16 
REMARK    6  A    between atoms: O1_16  and  C12_17 
ROOT
HETATM    1  C6  UNL     1      23.662   3.356  51.592  1.00  0.00     0.234 C 
HETATM    2  N3  UNL     1      24.072   4.117  50.663  1.00  0.00    -0.245 NA
ENDROOT
BRANCH   1   3
HETATM    3  N2  UNL     1      24.067   2.305  52.448  1.00  0.00    -0.237 NA
HETATM    4  C5  UNL     1      24.208   1.073  52.092  1.00  0.00     0.208 C 
BRANCH   4   5
HETATM    5  N1  UNL     1      24.632   0.230  53.184  1.00  0.00    -0.351 N 
HETATM    6  H3  UNL     1      23.985  -0.131  53.941  1.00  0.00     0.166 HD
BRANCH   5   7
HETATM    7  C4  UNL     1      26.014  -0.154  53.269  1.00  0.00     0.034 A 
HETATM    8  C3  UNL     1      26.507  -1.358  52.804  1.00  0.00     0.032 A 
HETATM    9  C2  UNL     1      27.846  -1.664  52.919  1.00  0.00     0.046 A 
HETATM   10  C1  UNL     1      28.696  -0.744  53.508  1.00  0.00     0.138 A 
HETATM   11  F1  UNL     1      29.989  -1.127  53.578  1.00  0.00    -0.204 F 
HETATM   12  C18 UNL     1      28.194   0.455  53.970  1.00  0.00     0.074 A 
HETATM   13  C17 UNL     1      26.852   0.786  53.866  1.00  0.00     0.056 A 
HETATM   14 CL1  UNL     1      29.414   1.491  54.685  1.00  0.00    -0.081 Cl
ENDBRANCH   5   7
ENDBRANCH   4   5
ENDBRANCH   1   3
BRANCH   2  15
HETATM   15  C7  UNL     1      25.339   4.153  50.069  1.00  0.00     0.058 A 
HETATM   16  C8  UNL     1      26.481   3.370  49.951  1.00  0.00     0.037 A 
HETATM   17  C9  UNL     1      27.024   4.384  49.184  1.00  0.00    -0.031 A 
HETATM   18  C10 UNL     1      27.691   5.309  48.408  1.00  0.00     0.042 A 
HETATM   19  C16 UNL     1      25.832   5.215  49.301  1.00  0.00     0.104 A 
HETATM   20  C11 UNL     1      26.549   6.109  48.517  1.00  0.00     0.069 A 
BRANCH  20  21
HETATM   21  O1  UNL     1      26.242   7.349  48.021  1.00  0.00    -0.346 OA
BRANCH  21  22
HETATM   22  C12 UNL     1      26.708   8.567  48.563  1.00  0.00     0.154 C 
HETATM   23  C13 UNL     1      28.219   8.659  48.525  1.00  0.00     0.061 C 
HETATM   24  C14 UNL     1      28.496   9.512  49.725  1.00  0.00     0.170 C 
HETATM   25  O2  UNL     1      27.430   9.474  50.579  1.00  0.00    -0.389 OA
HETATM   26  C15 UNL     1      26.504   8.566  50.083  1.00  0.00     0.200 C 
ENDBRANCH  21  22
ENDBRANCH  20  21
ENDBRANCH   2  15
TORSDOF 6
ENDMDL
MODEL 5
REMARK VINA RESULT:      -7.6      2.627      4.085
REMARK  6 active torsions:
REMARK  status: ('A' for Active; 'I' for Inactive)
REMARK    1  A    between atoms: C4_5  and  N1_6 
REMARK    2  A    between atoms: N1_6  and  C5_7 
REMARK    3  A    between atoms: N2_8  and  C6_9 
REMARK    4  A    between atoms: N3_10  and  C7_11 
REMARK    5  A    between atoms: C11_15  and  O1_16 
REMARK    6  A    between atoms: O1_16  and  C12_17 
ROOT
HETATM    1  C6  UNL     1      21.939  -1.411  54.307  1.00  0.00     0.234 C 
HETATM    2  N3  UNL     1      20.675  -1.446  54.419  1.00  0.00    -0.245 NA
ENDROOT
BRANCH   1   3
HETATM    3  N2  UNL     1      22.982  -1.010  53.439  1.00  0.00    -0.237 NA
HETATM    4  C5  UNL     1      23.955  -0.228  53.763  1.00  0.00     0.208 C 
BRANCH   4   5
HETATM    5  N1  UNL     1      24.865  -0.000  52.667  1.00  0.00    -0.351 N 
HETATM    6  H3  UNL     1      24.559   0.222  51.677  1.00  0.00     0.166 HD
BRANCH   5   7
HETATM    7  C4  UNL     1      26.280  -0.074  52.911  1.00  0.00     0.034 A 
HETATM    8  C3  UNL     1      27.011  -1.243  52.846  1.00  0.00     0.032 A 
HETATM    9  C2  UNL     1      28.367  -1.243  53.092  1.00  0.00     0.046 A 
HETATM   10  C1  UNL     1      28.991  -0.049  53.405  1.00  0.00     0.138 A 
HETATM   11  F1  UNL     1      30.319  -0.142  53.630  1.00  0.00    -0.204 F 
HETATM   12  C18 UNL     1      28.252   1.115  53.467  1.00  0.00     0.074 A 
HETATM   13  C17 UNL     1      26.887   1.140  53.224  1.00  0.00     0.056 A 
HETATM   14 CL1  UNL     1      29.208   2.525  53.877  1.00  0.00    -0.081 Cl
ENDBRANCH   5   7
ENDBRANCH   4   5
ENDBRANCH   1   3
BRANCH   2  15
HETATM   15  C7  UNL     1      19.712  -0.994  53.508  1.00  0.00     0.058 A 
HETATM   16  C8  UNL     1      18.385  -1.222  53.164  1.00  0.00     0.037 A 
HETATM   17  C9  UNL     1      18.535  -0.251  52.192  1.00  0.00    -0.031 A 
HETATM   18  C10 UNL     1      18.538   0.692  51.185  1.00  0.00     0.042 A 
HETATM   19  C16 UNL     1      19.927  -0.003  52.544  1.00  0.00     0.104 A 
HETATM   20  C11 UNL     1      19.873   0.933  51.520  1.00  0.00     0.069 A 
BRANCH  20  21
HETATM   21  O1  UNL     1      20.809   1.796  51.013  1.00  0.00    -0.346 OA
BRANCH  21  22
HETATM   22  C12 UNL     1      22.120   1.944  51.517  1.00  0.00     0.154 C 
HETATM   23  C13 UNL     1      22.317   3.288  52.188  1.00  0.00     0.061 C 
HETATM   24  C14 UNL     1      23.773   3.535  51.936  1.00  0.00     0.170 C 
HETATM   25  O2  UNL     1      24.201   2.770  50.888  1.00  0.00    -0.389 OA
HETATM   26  C15 UNL     1      23.104   2.109  50.352  1.00  0.00     0.200 C 
ENDBRANCH  21  22
ENDBRANCH  20  21
ENDBRANCH   2  15
TORSDOF 6
ENDMDL
MODEL 6
REMARK VINA RESULT:      -7.4      3.083      5.587
REMARK  6 active torsions:
REMARK  status: ('A' for Active; 'I' for Inactive)
REMARK    1  A    between atoms: C4_5  and  N1_6 
REMARK    2  A    between atoms: N1_6  and  C5_7 
REMARK    3  A    between atoms: N2_8  and  C6_9 
REMARK    4  A    between atoms: N3_10  and  C7_11 
REMARK    5  A    between atoms: C11_15  and  O1_16 
REMARK    6  A    between atoms: O1_16  and  C12_17 
ROOT
HETATM    1  C6  UNL     1      22.623   5.897  51.227  1.00  0.00     0.234 C 
HETATM    2  N3  UNL     1      23.752   6.338  50.850  1.00  0.00    -0.245 NA
ENDROOT
BRANCH   1   3
HETATM    3  N2  UNL     1      21.798   4.748  51.202  1.00  0.00    -0.237 NA
HETATM    4  C5  UNL     1      21.931   3.723  51.974  1.00  0.00     0.208 C 
BRANCH   4   5
HETATM    5  N1  UNL     1      20.941   2.707  51.715  1.00  0.00    -0.351 N 
HETATM    6  H3  UNL     1      20.161   2.804  51.004  1.00  0.00     0.166 HD
BRANCH   5   7
HETATM    7  C4  UNL     1      20.996   1.477  52.457  1.00  0.00     0.034 A 
HETATM    8  C3  UNL     1      19.892   0.692  52.727  1.00  0.00     0.032 A 
HETATM    9  C2  UNL     1      20.016  -0.477  53.446  1.00  0.00     0.046 A 
HETATM   10  C1  UNL     1      21.267  -0.858  53.896  1.00  0.00     0.138 A 
HETATM   11  F1  UNL     1      21.295  -2.016  54.590  1.00  0.00    -0.204 F 
HETATM   12  C18 UNL     1      22.364  -0.067  53.622  1.00  0.00     0.074 A 
HETATM   13  C17 UNL     1      22.266   1.113  52.900  1.00  0.00     0.056 A 
HETATM   14 CL1  UNL     1      23.862  -0.706  54.269  1.00  0.00    -0.081 Cl
ENDBRANCH   5   7
ENDBRANCH   4   5
ENDBRANCH   1   3
BRANCH   2  15
HETATM   15  C7  UNL     1      24.749   5.666  50.132  1.00  0.00     0.058 A 
HETATM   16  C8  UNL     1      25.561   5.845  49.019  1.00  0.00     0.037 A 
HETATM   17  C9  UNL     1      26.093   4.597  49.283  1.00  0.00    -0.031 A 
HETATM   18  C10 UNL     1      26.713   3.372  49.423  1.00  0.00     0.042 A 
HETATM   19  C16 UNL     1      25.246   4.397  50.452  1.00  0.00     0.104 A 
HETATM   20  C11 UNL     1      25.903   3.178  50.546  1.00  0.00     0.069 A 
BRANCH  20  21
HETATM   21  O1  UNL     1      25.794   2.140  51.435  1.00  0.00    -0.346 OA
BRANCH  21  22
HETATM   22  C12 UNL     1      26.758   1.820  52.415  1.00  0.00     0.154 C 
HETATM   23  C13 UNL     1      26.992   0.326  52.508  1.00  0.00     0.061 C 
HETATM   24  C14 UNL     1      27.357   0.171  53.953  1.00  0.00     0.170 C 
HETATM   25  O2  UNL     1      26.908   1.248  54.665  1.00  0.00    -0.389 OA
HETATM   26  C15 UNL     1      26.171   2.060  53.812  1.00  0.00     0.200 C 
ENDBRANCH  21  22
ENDBRANCH  20  21
ENDBRANCH   2  15
TORSDOF 6
ENDMDL
MODEL 7
REMARK VINA RESULT:      -7.4      1.664      1.988
REMARK  6 active torsions:
REMARK  status: ('A' for Active; 'I' for Inactive)
REMARK    1  A    between atoms: C4_5  and  N1_6 
REMARK    2  A    between atoms: N1_6  and  C5_7 
REMARK    3  A    between atoms: N2_8  and  C6_9 
REMARK    4  A    between atoms: N3_10  and  C7_11 
REMARK    5  A    between atoms: C11_15  and  O1_16 
REMARK    6  A    between atoms: O1_16  and  C12_17 
ROOT
HETATM    1  C6  UNL     1      22.292   5.043  51.859  1.00  0.00     0.234 C 
HETATM    2  N3  UNL     1      21.448   4.802  50.942  1.00  0.00    -0.245 NA
ENDROOT
BRANCH   1   3
HETATM    3  N2  UNL     1      23.526   4.606  52.396  1.00  0.00    -0.237 NA
HETATM    4  C5  UNL     1      23.753   3.428  52.869  1.00  0.00     0.208 C 
BRANCH   4   5
HETATM    5  N1  UNL     1      25.106   3.278  53.346  1.00  0.00    -0.351 N 
HETATM    6  H3  UNL     1      25.654   4.045  53.829  1.00  0.00     0.166 HD
BRANCH   5   7
HETATM    7  C4  UNL     1      25.771   2.016  53.166  1.00  0.00     0.034 A 
HETATM    8  C3  UNL     1      25.436   1.104  52.184  1.00  0.00     0.032 A 
HETATM    9  C2  UNL     1      26.116  -0.089  52.068  1.00  0.00     0.046 A 
HETATM   10  C1  UNL     1      27.145  -0.363  52.951  1.00  0.00     0.138 A 
HETATM   11  F1  UNL     1      27.756  -1.552  52.763  1.00  0.00    -0.204 F 
HETATM   12  C18 UNL     1      27.473   0.555  53.929  1.00  0.00     0.074 A 
HETATM   13  C17 UNL     1      26.804   1.761  54.066  1.00  0.00     0.056 A 
HETATM   14 CL1  UNL     1      28.798   0.038  54.952  1.00  0.00    -0.081 Cl
ENDBRANCH   5   7
ENDBRANCH   4   5
ENDBRANCH   1   3
BRANCH   2  15
HETATM   15  C7  UNL     1      21.494   3.803  49.962  1.00  0.00     0.058 A 
HETATM   16  C8  UNL     1      21.570   3.671  48.581  1.00  0.00     0.037 A 
HETATM   17  C9  UNL     1      21.548   2.302  48.772  1.00  0.00    -0.031 A 
HETATM   18  C10 UNL     1      21.533   0.923  48.810  1.00  0.00     0.042 A 
HETATM   19  C16 UNL     1      21.467   2.428  50.222  1.00  0.00     0.104 A 
HETATM   20  C11 UNL     1      21.457   1.040  50.201  1.00  0.00     0.069 A 
BRANCH  20  21
HETATM   21  O1  UNL     1      21.393   0.105  51.201  1.00  0.00    -0.346 OA
BRANCH  21  22
HETATM   22  C12 UNL     1      21.780   0.336  52.539  1.00  0.00     0.154 C 
HETATM   23  C13 UNL     1      22.315  -0.920  53.196  1.00  0.00     0.061 C 
HETATM   24  C14 UNL     1      21.932  -0.695  54.626  1.00  0.00     0.170 C 
HETATM   25  O2  UNL     1      20.924   0.224  54.699  1.00  0.00    -0.389 OA
HETATM   26  C15 UNL     1      20.532   0.548  53.406  1.00  0.00     0.200 C 
ENDBRANCH  21  22
ENDBRANCH  20  21
ENDBRANCH   2  15
TORSDOF 6
ENDMDL
MODEL 8
REMARK VINA RESULT:      -7.4      5.453      7.813
REMARK  6 active torsions:
REMARK  status: ('A' for Active; 'I' for Inactive)
REMARK    1  A    between atoms: C4_5  and  N1_6 
REMARK    2  A    between atoms: N1_6  and  C5_7 
REMARK    3  A    between atoms: N2_8  and  C6_9 
REMARK    4  A    between atoms: N3_10  and  C7_11 
REMARK    5  A    between atoms: C11_15  and  O1_16 
REMARK    6  A    between atoms: O1_16  and  C12_17 
ROOT
HETATM    1  C6  UNL     1      24.021   4.358  50.464  1.00  0.00     0.234 C 
HETATM    2  N3  UNL     1      24.659   5.079  49.637  1.00  0.00    -0.245 NA
ENDROOT
BRANCH   1   3
HETATM    3  N2  UNL     1      24.154   3.240  51.321  1.00  0.00    -0.237 NA
HETATM    4  C5  UNL     1      24.443   3.299  52.577  1.00  0.00     0.208 C 
BRANCH   4   5
HETATM    5  N1  UNL     1      24.511   1.994  53.188  1.00  0.00    -0.351 N 
HETATM    6  H3  UNL     1      23.681   1.498  53.623  1.00  0.00     0.166 HD
BRANCH   5   7
HETATM    7  C4  UNL     1      25.772   1.305  53.220  1.00  0.00     0.034 A 
HETATM    8  C3  UNL     1      26.964   1.901  53.580  1.00  0.00     0.032 A 
HETATM    9  C2  UNL     1      28.139   1.181  53.589  1.00  0.00     0.046 A 
HETATM   10  C1  UNL     1      28.109  -0.155  53.231  1.00  0.00     0.138 A 
HETATM   11  F1  UNL     1      29.304  -0.782  53.269  1.00  0.00    -0.204 F 
HETATM   12  C18 UNL     1      26.913  -0.742  52.873  1.00  0.00     0.074 A 
HETATM   13  C17 UNL     1      25.718  -0.039  52.857  1.00  0.00     0.056 A 
HETATM   14 CL1  UNL     1      27.067  -2.436  52.452  1.00  0.00    -0.081 Cl
ENDBRANCH   5   7
ENDBRANCH   4   5
ENDBRANCH   1   3
BRANCH   2  15
HETATM   15  C7  UNL     1      25.994   4.956  49.231  1.00  0.00     0.058 A 
HETATM   16  C8  UNL     1      26.989   3.992  49.127  1.00  0.00     0.037 A 
HETATM   17  C9  UNL     1      27.813   4.986  48.632  1.00  0.00    -0.031 A 
HETATM   18  C10 UNL     1      28.745   5.869  48.127  1.00  0.00     0.042 A 
HETATM   19  C16 UNL     1      26.777   6.006  48.736  1.00  0.00     0.104 A 
HETATM   20  C11 UNL     1      27.753   6.850  48.225  1.00  0.00     0.069 A 
BRANCH  20  21
HETATM   21  O1  UNL     1      27.746   8.186  47.921  1.00  0.00    -0.346 OA
BRANCH  21  22
HETATM   22  C12 UNL     1      26.983   9.159  48.603  1.00  0.00     0.154 C 
HETATM   23  C13 UNL     1      25.882   9.725  47.730  1.00  0.00     0.061 C 
HETATM   24  C14 UNL     1      25.757  11.116  48.272  1.00  0.00     0.170 C 
HETATM   25  O2  UNL     1      26.897  11.459  48.942  1.00  0.00    -0.389 OA
HETATM   26  C15 UNL     1      27.819  10.431  48.791  1.00  0.00     0.200 C 
ENDBRANCH  21  22
ENDBRANCH  20  21
ENDBRANCH   2  15
TORSDOF 6
ENDMDL
MODEL 9
REMARK VINA RESULT:      -7.1      3.987      6.252
REMARK  6 active torsions:
REMARK  status: ('A' for Active; 'I' for Inactive)
REMARK    1  A    between atoms: C4_5  and  N1_6 
REMARK    2  A    between atoms: N1_6  and  C5_7 
REMARK    3  A    between atoms: N2_8  and  C6_9 
REMARK    4  A    between atoms: N3_10  and  C7_11 
REMARK    5  A    between atoms: C11_15  and  O1_16 
REMARK    6  A    between atoms: O1_16  and  C12_17 
ROOT
HETATM    1  C6  UNL     1      23.679   2.388  50.719  1.00  0.00     0.234 C 
HETATM    2  N3  UNL     1      23.995   3.304  49.899  1.00  0.00    -0.245 NA
ENDROOT
BRANCH   1   3
HETATM    3  N2  UNL     1      24.227   1.447  51.621  1.00  0.00    -0.237 NA
HETATM    4  C5  UNL     1      24.020   1.433  52.895  1.00  0.00     0.208 C 
BRANCH   4   5
HETATM    5  N1  UNL     1      24.713   0.353  53.553  1.00  0.00    -0.351 N 
HETATM    6  H3  UNL     1      24.229  -0.459  54.033  1.00  0.00     0.166 HD
BRANCH   5   7
HETATM    7  C4  UNL     1      26.150   0.358  53.573  1.00  0.00     0.034 A 
HETATM    8  C3  UNL     1      26.911   1.485  53.813  1.00  0.00     0.032 A 
HETATM    9  C2  UNL     1      28.288   1.420  53.817  1.00  0.00     0.046 A 
HETATM   10  C1  UNL     1      28.902   0.204  53.576  1.00  0.00     0.138 A 
HETATM   11  F1  UNL     1      30.252   0.232  53.599  1.00  0.00    -0.204 F 
HETATM   12  C18 UNL     1      28.133  -0.917  53.337  1.00  0.00     0.074 A 
HETATM   13  C17 UNL     1      26.747  -0.877  53.328  1.00  0.00     0.056 A 
HETATM   14 CL1  UNL     1      29.081  -2.364  53.054  1.00  0.00    -0.081 Cl
ENDBRANCH   5   7
ENDBRANCH   4   5
ENDBRANCH   1   3
BRANCH   2  15
HETATM   15  C7  UNL     1      25.274   3.764  49.565  1.00  0.00     0.058 A 
HETATM   16  C8  UNL     1      26.592   3.324  49.551  1.00  0.00     0.037 A 
HETATM   17  C9  UNL     1      26.938   4.567  49.055  1.00  0.00    -0.031 A 
HETATM   18  C10 UNL     1      27.427   5.758  48.560  1.00  0.00     0.042 A 
HETATM   19  C16 UNL     1      25.559   5.040  49.065  1.00  0.00     0.104 A 
HETATM   20  C11 UNL     1      26.106   6.215  48.567  1.00  0.00     0.069 A 
BRANCH  20  21
HETATM   21  O1  UNL     1      25.543   7.411  48.206  1.00  0.00    -0.346 OA
BRANCH  21  22
HETATM   22  C12 UNL     1      24.497   8.049  48.909  1.00  0.00     0.154 C 
HETATM   23  C13 UNL     1      24.452   7.622  50.361  1.00  0.00     0.061 C 
HETATM   24  C14 UNL     1      22.989   7.743  50.662  1.00  0.00     0.170 C 
HETATM   25  O2  UNL     1      22.272   7.720  49.499  1.00  0.00    -0.389 OA
HETATM   26  C15 UNL     1      23.148   7.482  48.448  1.00  0.00     0.200 C 
ENDBRANCH  21  22
ENDBRANCH  20  21
ENDBRANCH   2  15
TORSDOF 6
ENDMDL
