MODEL 1
REMARK VINA RESULT:      -7.2      0.000      0.000
REMARK  9 active torsions:
REMARK  status: ('A' for Active; 'I' for Inactive)
REMARK    1  A    between atoms: C7_7  and  N1_8 
REMARK    2  A    between atoms: N1_8  and  C8_9 
REMARK    3  A    between atoms: C11_14  and  C12_15 
REMARK    4  A    between atoms: C12_15  and  C13_16 
REMARK    5  A    between atoms: C13_16  and  O1_17 
REMARK    6  A    between atoms: O1_17  and  C14_18 
REMARK    7  A    between atoms: C14_18  and  C15_19 
REMARK    8  A    between atoms: C15_19  and  O2_20 
REMARK    9  A    between atoms: C18_23  and  O3_24 
ROOT
HETATM    1  C1  UNL     1      23.526   7.772  50.815  1.00  0.00     0.018 C 
HETATM    2  C2  UNL     1      24.371   7.025  50.365  1.00  0.00    -0.078 C 
HETATM    3  C3  UNL     1      25.386   6.140  49.835  1.00  0.00     0.019 A 
HETATM    4  C4  UNL     1      26.369   6.543  48.955  1.00  0.00     0.021 A 
HETATM    5  C5  UNL     1      27.320   5.634  48.507  1.00  0.00     0.004 A 
HETATM    6  C6  UNL     1      27.284   4.325  48.938  1.00  0.00     0.029 A 
HETATM    7  C7  UNL     1      26.278   3.952  49.825  1.00  0.00     0.035 A 
HETATM    8  C20 UNL     1      25.317   4.822  50.294  1.00  0.00     0.050 A 
ENDROOT
BRANCH   7   9
HETATM    9  N1  UNL     1      26.153   2.629  50.333  1.00  0.00    -0.340 N 
HETATM   10  H5  UNL     1      25.712   1.966  49.692  1.00  0.00     0.167 HD
BRANCH   9  11
HETATM   11  C8  UNL     1      26.656   2.414  51.635  1.00  0.00     0.137 A 
HETATM   12  N2  UNL     1      27.843   2.514  52.085  1.00  0.00    -0.224 NA
HETATM   13  C9  UNL     1      28.071   2.231  53.456  1.00  0.00     0.229 A 
HETATM   14  N3  UNL     1      27.256   1.873  54.369  1.00  0.00    -0.278 NA
HETATM   15  C10 UNL     1      25.860   1.696  54.064  1.00  0.00     0.192 A 
HETATM   16  C11 UNL     1      25.637   2.040  52.638  1.00  0.00     0.007 A 
BRANCH  16  17
HETATM   17  C12 UNL     1      24.331   1.946  52.509  1.00  0.00     0.026 C 
BRANCH  17  18
HETATM   18  C13 UNL     1      22.889   1.670  52.286  1.00  0.00     0.108 A 
HETATM   19  C17 UNL     1      22.360   1.483  50.919  1.00  0.00     0.080 A 
HETATM   20  C18 UNL     1      22.064   2.729  51.628  1.00  0.00     0.162 A 
BRANCH  18  21
HETATM   21  O1  UNL     1      22.261   1.059  53.397  1.00  0.00    -0.371 OA
BRANCH  21  22
HETATM   22  C14 UNL     1      22.607  -0.300  53.438  1.00  0.00     0.195 C 
BRANCH  22  23
HETATM   23  C15 UNL     1      21.445  -1.123  53.966  1.00  0.00     0.193 C 
BRANCH  23  24
HETATM   24  O2  UNL     1      21.803  -1.943  55.025  1.00  0.00    -0.394 OA
HETATM   25  C16 UNL     1      23.032  -1.569  55.567  1.00  0.00     0.201 C 
ENDBRANCH  23  24
ENDBRANCH  22  23
ENDBRANCH  21  22
ENDBRANCH  18  21
BRANCH  20  26
HETATM   26  O3  UNL     1      20.764   2.933  52.075  1.00  0.00    -0.387 OA
HETATM   27  C19 UNL     1      20.137   3.894  51.271  1.00  0.00     0.202 C 
ENDBRANCH  20  26
ENDBRANCH  17  18
ENDBRANCH  16  17
ENDBRANCH   9  11
ENDBRANCH   7   9
TORSDOF 9
ENDMDL
MODEL 2
REMARK VINA RESULT:      -6.7      3.280      6.064
REMARK  9 active torsions:
REMARK  status: ('A' for Active; 'I' for Inactive)
REMARK    1  A    between atoms: C7_7  and  N1_8 
REMARK    2  A    between atoms: N1_8  and  C8_9 
REMARK    3  A    between atoms: C11_14  and  C12_15 
REMARK    4  A    between atoms: C12_15  and  C13_16 
REMARK    5  A    between atoms: C13_16  and  O1_17 
REMARK    6  A    between atoms: O1_17  and  C14_18 
REMARK    7  A    between atoms: C14_18  and  C15_19 
REMARK    8  A    between atoms: C15_19  and  O2_20 
REMARK    9  A    between atoms: C18_23  and  O3_24 
ROOT
HETATM    1  C1  UNL     1      22.627   5.656  47.616  1.00  0.00     0.018 C 
HETATM    2  C2  UNL     1      22.440   4.600  48.188  1.00  0.00    -0.078 C 
HETATM    3  C3  UNL     1      22.226   3.338  48.863  1.00  0.00     0.019 A 
HETATM    4  C4  UNL     1      21.710   2.217  48.246  1.00  0.00     0.021 A 
HETATM    5  C5  UNL     1      21.554   1.037  48.962  1.00  0.00     0.004 A 
HETATM    6  C6  UNL     1      21.912   0.981  50.292  1.00  0.00     0.029 A 
HETATM    7  C7  UNL     1      22.428   2.129  50.883  1.00  0.00     0.035 A 
HETATM    8  C20 UNL     1      22.601   3.320  50.209  1.00  0.00     0.050 A 
ENDROOT
BRANCH   7   9
HETATM    9  N1  UNL     1      22.831   2.178  52.247  1.00  0.00    -0.340 N 
HETATM   10  H5  UNL     1      23.431   2.969  52.488  1.00  0.00     0.167 HD
BRANCH   9  11
HETATM   11  C8  UNL     1      22.345   1.142  53.075  1.00  0.00     0.137 A 
HETATM   12  N2  UNL     1      21.160   0.894  53.473  1.00  0.00    -0.224 NA
HETATM   13  C9  UNL     1      20.952  -0.228  54.315  1.00  0.00     0.229 A 
HETATM   14  N3  UNL     1      21.784  -1.080  54.772  1.00  0.00    -0.278 NA
HETATM   15  C10 UNL     1      23.182  -0.974  54.443  1.00  0.00     0.192 A 
HETATM   16  C11 UNL     1      23.370   0.178  53.527  1.00  0.00     0.007 A 
BRANCH  16  17
HETATM   17  C12 UNL     1      24.646   0.107  53.218  1.00  0.00     0.026 C 
BRANCH  17  18
HETATM   18  C13 UNL     1      26.092   0.214  52.898  1.00  0.00     0.108 A 
HETATM   19  C17 UNL     1      26.840  -0.956  52.389  1.00  0.00     0.080 A 
HETATM   20  C18 UNL     1      27.062  -0.519  53.769  1.00  0.00     0.162 A 
BRANCH  18  21
HETATM   21  O1  UNL     1      26.494   1.530  52.570  1.00  0.00    -0.371 OA
BRANCH  21  22
HETATM   22  C14 UNL     1      26.417   1.707  51.181  1.00  0.00     0.195 C 
BRANCH  22  23
HETATM   23  C15 UNL     1      26.370   3.188  50.841  1.00  0.00     0.193 C 
BRANCH  23  24
HETATM   24  O2  UNL     1      26.475   3.432  49.481  1.00  0.00    -0.394 OA
HETATM   25  C16 UNL     1      26.284   4.782  49.188  1.00  0.00     0.201 C 
ENDBRANCH  23  24
ENDBRANCH  22  23
ENDBRANCH  21  22
ENDBRANCH  18  21
BRANCH  20  26
HETATM   26  O3  UNL     1      28.273   0.091  54.074  1.00  0.00    -0.387 OA
HETATM   27  C19 UNL     1      29.323  -0.804  53.828  1.00  0.00     0.202 C 
ENDBRANCH  20  26
ENDBRANCH  17  18
ENDBRANCH  16  17
ENDBRANCH   9  11
ENDBRANCH   7   9
TORSDOF 9
ENDMDL
MODEL 3
REMARK VINA RESULT:      -6.6      2.280      6.201
REMARK  9 active torsions:
REMARK  status: ('A' for Active; 'I' for Inactive)
REMARK    1  A    between atoms: C7_7  and  N1_8 
REMARK    2  A    between atoms: N1_8  and  C8_9 
REMARK    3  A    between atoms: C11_14  and  C12_15 
REMARK    4  A    between atoms: C12_15  and  C13_16 
REMARK    5  A    between atoms: C13_16  and  O1_17 
REMARK    6  A    between atoms: O1_17  and  C14_18 
REMARK    7  A    between atoms: C14_18  and  C15_19 
REMARK    8  A    between atoms: C15_19  and  O2_20 
REMARK    9  A    between atoms: C18_23  and  O3_24 
ROOT
HETATM    1  C1  UNL     1      19.011   0.638  50.851  1.00  0.00     0.018 C 
HETATM    2  C2  UNL     1      19.834   0.339  51.693  1.00  0.00    -0.078 C 
HETATM    3  C3  UNL     1      20.809  -0.028  52.697  1.00  0.00     0.019 A 
HETATM    4  C4  UNL     1      20.501  -0.224  54.028  1.00  0.00     0.021 A 
HETATM    5  C5  UNL     1      21.495  -0.595  54.926  1.00  0.00     0.004 A 
HETATM    6  C6  UNL     1      22.792  -0.766  54.492  1.00  0.00     0.029 A 
HETATM    7  C7  UNL     1      23.068  -0.559  53.144  1.00  0.00     0.035 A 
HETATM    8  C20 UNL     1      22.112  -0.193  52.220  1.00  0.00     0.050 A 
ENDROOT
BRANCH   7   9
HETATM    9  N1  UNL     1      24.371  -0.712  52.594  1.00  0.00    -0.340 N 
HETATM   10  H5  UNL     1      24.398  -1.180  51.685  1.00  0.00     0.167 HD
BRANCH   9  11
HETATM   11  C8  UNL     1      25.435  -0.196  53.365  1.00  0.00     0.137 A 
HETATM   12  N2  UNL     1      26.268  -0.794  54.122  1.00  0.00    -0.224 NA
HETATM   13  C9  UNL     1      27.248  -0.018  54.791  1.00  0.00     0.229 A 
HETATM   14  N3  UNL     1      27.456   1.240  54.773  1.00  0.00    -0.278 NA
HETATM   15  C10 UNL     1      26.617   2.101  53.980  1.00  0.00     0.192 A 
HETATM   16  C11 UNL     1      25.628   1.265  53.254  1.00  0.00     0.007 A 
BRANCH  16  17
HETATM   17  C12 UNL     1      25.002   2.137  52.495  1.00  0.00     0.026 C 
BRANCH  17  18
HETATM   18  C13 UNL     1      24.148   3.101  51.756  1.00  0.00     0.108 A 
HETATM   19  C17 UNL     1      23.595   4.292  52.435  1.00  0.00     0.080 A 
HETATM   20  C18 UNL     1      22.699   3.180  52.117  1.00  0.00     0.162 A 
BRANCH  18  21
HETATM   21  O1  UNL     1      24.395   3.109  50.363  1.00  0.00    -0.371 OA
BRANCH  21  22
HETATM   22  C14 UNL     1      25.709   3.539  50.126  1.00  0.00     0.195 C 
BRANCH  22  23
HETATM   23  C15 UNL     1      25.704   4.827  49.320  1.00  0.00     0.193 C 
BRANCH  23  24
HETATM   24  O2  UNL     1      25.637   5.960  50.115  1.00  0.00    -0.394 OA
HETATM   25  C16 UNL     1      24.671   6.853  49.653  1.00  0.00     0.201 C 
ENDBRANCH  23  24
ENDBRANCH  22  23
ENDBRANCH  21  22
ENDBRANCH  18  21
BRANCH  20  26
HETATM   26  O3  UNL     1      21.769   3.359  51.100  1.00  0.00    -0.387 OA
HETATM   27  C19 UNL     1      21.008   4.506  51.360  1.00  0.00     0.202 C 
ENDBRANCH  20  26
ENDBRANCH  17  18
ENDBRANCH  16  17
ENDBRANCH   9  11
ENDBRANCH   7   9
TORSDOF 9
ENDMDL
MODEL 4
REMARK VINA RESULT:      -6.6      1.960      3.770
REMARK  9 active torsions:
REMARK  status: ('A' for Active; 'I' for Inactive)
REMARK    1  A    between atoms: C7_7  and  N1_8 
REMARK    2  A    between atoms: N1_8  and  C8_9 
REMARK    3  A    between atoms: C11_14  and  C12_15 
REMARK    4  A    between atoms: C12_15  and  C13_16 
REMARK    5  A    between atoms: C13_16  and  O1_17 
REMARK    6  A    between atoms: O1_17  and  C14_18 
REMARK    7  A    between atoms: C14_18  and  C15_19 
REMARK    8  A    between atoms: C15_19  and  O2_20 
REMARK    9  A    between atoms: C18_23  and  O3_24 
ROOT
HETATM    1  C1  UNL     1      30.049   6.297  47.580  1.00  0.00     0.018 C 
HETATM    2  C2  UNL     1      28.948   6.007  48.003  1.00  0.00    -0.078 C 
HETATM    3  C3  UNL     1      27.631   5.661  48.495  1.00  0.00     0.019 A 
HETATM    4  C4  UNL     1      26.555   6.524  48.475  1.00  0.00     0.021 A 
HETATM    5  C5  UNL     1      25.318   6.107  48.950  1.00  0.00     0.004 A 
HETATM    6  C6  UNL     1      25.161   4.831  49.446  1.00  0.00     0.029 A 
HETATM    7  C7  UNL     1      26.267   3.987  49.453  1.00  0.00     0.035 A 
HETATM    8  C20 UNL     1      27.511   4.360  48.990  1.00  0.00     0.050 A 
ENDROOT
BRANCH   7   9
HETATM    9  N1  UNL     1      26.212   2.651  49.940  1.00  0.00    -0.340 N 
HETATM   10  H5  UNL     1      25.952   1.952  49.241  1.00  0.00     0.167 HD
BRANCH   9  11
HETATM   11  C8  UNL     1      26.527   2.475  51.305  1.00  0.00     0.137 A 
HETATM   12  N2  UNL     1      27.649   2.540  51.906  1.00  0.00    -0.224 NA
HETATM   13  C9  UNL     1      27.680   2.312  53.305  1.00  0.00     0.229 A 
HETATM   14  N3  UNL     1      26.734   2.037  54.115  1.00  0.00    -0.278 NA
HETATM   15  C10 UNL     1      25.382   1.912  53.634  1.00  0.00     0.192 A 
HETATM   16  C11 UNL     1      25.367   2.198  52.178  1.00  0.00     0.007 A 
BRANCH  16  17
HETATM   17  C12 UNL     1      24.086   2.160  51.880  1.00  0.00     0.026 C 
BRANCH  17  18
HETATM   18  C13 UNL     1      22.625   1.988  51.683  1.00  0.00     0.108 A 
HETATM   19  C17 UNL     1      22.019   0.640  51.669  1.00  0.00     0.080 A 
HETATM   20  C18 UNL     1      22.155   1.367  50.406  1.00  0.00     0.162 A 
BRANCH  18  21
HETATM   21  O1  UNL     1      21.872   3.117  52.084  1.00  0.00    -0.371 OA
BRANCH  21  22
HETATM   22  C14 UNL     1      22.718   4.234  52.165  1.00  0.00     0.195 C 
BRANCH  22  23
HETATM   23  C15 UNL     1      22.011   5.468  51.629  1.00  0.00     0.193 C 
BRANCH  23  24
HETATM   24  O2  UNL     1      21.020   5.164  50.708  1.00  0.00    -0.394 OA
HETATM   25  C16 UNL     1      21.464   5.351  49.400  1.00  0.00     0.201 C 
ENDBRANCH  23  24
ENDBRANCH  22  23
ENDBRANCH  21  22
ENDBRANCH  18  21
BRANCH  20  26
HETATM   26  O3  UNL     1      21.002   1.863  49.810  1.00  0.00    -0.387 OA
HETATM   27  C19 UNL     1      21.105   1.742  48.418  1.00  0.00     0.202 C 
ENDBRANCH  20  26
ENDBRANCH  17  18
ENDBRANCH  16  17
ENDBRANCH   9  11
ENDBRANCH   7   9
TORSDOF 9
ENDMDL
MODEL 5
REMARK VINA RESULT:      -6.6      2.421      3.742
REMARK  9 active torsions:
REMARK  status: ('A' for Active; 'I' for Inactive)
REMARK    1  A    between atoms: C7_7  and  N1_8 
REMARK    2  A    between atoms: N1_8  and  C8_9 
REMARK    3  A    between atoms: C11_14  and  C12_15 
REMARK    4  A    between atoms: C12_15  and  C13_16 
REMARK    5  A    between atoms: C13_16  and  O1_17 
REMARK    6  A    between atoms: O1_17  and  C14_18 
REMARK    7  A    between atoms: C14_18  and  C15_19 
REMARK    8  A    between atoms: C15_19  and  O2_20 
REMARK    9  A    between atoms: C18_23  and  O3_24 
ROOT
HETATM    1  C1  UNL     1      30.766   5.524  47.796  1.00  0.00     0.018 C 
HETATM    2  C2  UNL     1      29.588   5.601  48.081  1.00  0.00    -0.078 C 
HETATM    3  C3  UNL     1      28.181   5.694  48.409  1.00  0.00     0.019 A 
HETATM    4  C4  UNL     1      27.451   6.862  48.323  1.00  0.00     0.021 A 
HETATM    5  C5  UNL     1      26.098   6.862  48.637  1.00  0.00     0.004 A 
HETATM    6  C6  UNL     1      25.480   5.698  49.039  1.00  0.00     0.029 A 
HETATM    7  C7  UNL     1      26.246   4.539  49.116  1.00  0.00     0.035 A 
HETATM    8  C20 UNL     1      27.590   4.494  48.812  1.00  0.00     0.050 A 
ENDROOT
BRANCH   7   9
HETATM    9  N1  UNL     1      25.705   3.285  49.517  1.00  0.00    -0.340 N 
HETATM   10  H5  UNL     1      25.159   2.806  48.798  1.00  0.00     0.167 HD
BRANCH   9  11
HETATM   11  C8  UNL     1      26.000   2.874  50.835  1.00  0.00     0.137 A 
HETATM   12  N2  UNL     1      27.067   2.378  51.324  1.00  0.00    -0.224 NA
HETATM   13  C9  UNL     1      27.088   2.048  52.702  1.00  0.00     0.229 A 
HETATM   14  N3  UNL     1      26.180   2.163  53.591  1.00  0.00    -0.278 NA
HETATM   15  C10 UNL     1      24.890   2.700  53.241  1.00  0.00     0.192 A 
HETATM   16  C11 UNL     1      24.905   3.079  51.807  1.00  0.00     0.007 A 
BRANCH  16  17
HETATM   17  C12 UNL     1      23.731   3.647  51.637  1.00  0.00     0.026 C 
BRANCH  17  18
HETATM   18  C13 UNL     1      22.391   4.183  51.288  1.00  0.00     0.108 A 
HETATM   19  C17 UNL     1      22.009   4.398  49.876  1.00  0.00     0.080 A 
HETATM   20  C18 UNL     1      22.312   5.560  50.712  1.00  0.00     0.162 A 
BRANCH  18  21
HETATM   21  O1  UNL     1      21.410   3.913  52.271  1.00  0.00    -0.371 OA
BRANCH  21  22
HETATM   22  C14 UNL     1      21.015   2.570  52.177  1.00  0.00     0.195 C 
BRANCH  22  23
HETATM   23  C15 UNL     1      19.500   2.470  52.115  1.00  0.00     0.193 C 
BRANCH  23  24
HETATM   24  O2  UNL     1      18.885   3.703  51.967  1.00  0.00    -0.394 OA
HETATM   25  C16 UNL     1      18.347   3.855  50.690  1.00  0.00     0.201 C 
ENDBRANCH  23  24
ENDBRANCH  22  23
ENDBRANCH  21  22
ENDBRANCH  18  21
BRANCH  20  26
HETATM   26  O3  UNL     1      21.258   6.381  51.095  1.00  0.00    -0.387 OA
HETATM   27  C19 UNL     1      20.726   7.018  49.966  1.00  0.00     0.202 C 
ENDBRANCH  20  26
ENDBRANCH  17  18
ENDBRANCH  16  17
ENDBRANCH   9  11
ENDBRANCH   7   9
TORSDOF 9
ENDMDL
MODEL 6
REMARK VINA RESULT:      -6.5      3.163      6.233
REMARK  9 active torsions:
REMARK  status: ('A' for Active; 'I' for Inactive)
REMARK    1  A    between atoms: C7_7  and  N1_8 
REMARK    2  A    between atoms: N1_8  and  C8_9 
REMARK    3  A    between atoms: C11_14  and  C12_15 
REMARK    4  A    between atoms: C12_15  and  C13_16 
REMARK    5  A    between atoms: C13_16  and  O1_17 
REMARK    6  A    between atoms: O1_17  and  C14_18 
REMARK    7  A    between atoms: C14_18  and  C15_19 
REMARK    8  A    between atoms: C15_19  and  O2_20 
REMARK    9  A    between atoms: C18_23  and  O3_24 
ROOT
HETATM    1  C1  UNL     1      19.072   5.260  48.582  1.00  0.00     0.018 C 
HETATM    2  C2  UNL     1      19.661   4.258  48.936  1.00  0.00    -0.078 C 
HETATM    3  C3  UNL     1      20.372   3.067  49.350  1.00  0.00     0.019 A 
HETATM    4  C4  UNL     1      20.765   2.069  48.483  1.00  0.00     0.021 A 
HETATM    5  C5  UNL     1      21.462   0.966  48.960  1.00  0.00     0.004 A 
HETATM    6  C6  UNL     1      21.762   0.863  50.301  1.00  0.00     0.029 A 
HETATM    7  C7  UNL     1      21.351   1.887  51.148  1.00  0.00     0.035 A 
HETATM    8  C20 UNL     1      20.658   2.999  50.716  1.00  0.00     0.050 A 
ENDROOT
BRANCH   7   9
HETATM    9  N1  UNL     1      21.612   1.881  52.547  1.00  0.00    -0.340 N 
HETATM   10  H5  UNL     1      21.958   2.766  52.921  1.00  0.00     0.167 HD
BRANCH   9  11
HETATM   11  C8  UNL     1      21.353   0.667  53.221  1.00  0.00     0.137 A 
HETATM   12  N2  UNL     1      20.254   0.053  53.418  1.00  0.00    -0.224 NA
HETATM   13  C9  UNL     1      20.282  -1.165  54.142  1.00  0.00     0.229 A 
HETATM   14  N3  UNL     1      21.264  -1.791  54.663  1.00  0.00    -0.278 NA
HETATM   15  C10 UNL     1      22.598  -1.260  54.558  1.00  0.00     0.192 A 
HETATM   16  C11 UNL     1      22.552  -0.010  53.759  1.00  0.00     0.007 A 
BRANCH  16  17
HETATM   17  C12 UNL     1      23.821   0.316  53.642  1.00  0.00     0.026 C 
BRANCH  17  18
HETATM   18  C13 UNL     1      25.256   0.568  53.361  1.00  0.00     0.108 A 
HETATM   19  C17 UNL     1      26.187  -0.556  53.124  1.00  0.00     0.080 A 
HETATM   20  C18 UNL     1      26.258   0.165  54.396  1.00  0.00     0.162 A 
BRANCH  18  21
HETATM   21  O1  UNL     1      25.497   1.841  52.793  1.00  0.00    -0.371 OA
BRANCH  21  22
HETATM   22  C14 UNL     1      25.154   1.816  51.433  1.00  0.00     0.195 C 
BRANCH  22  23
HETATM   23  C15 UNL     1      24.846   3.220  50.942  1.00  0.00     0.193 C 
BRANCH  23  24
HETATM   24  O2  UNL     1      24.392   3.246  49.633  1.00  0.00    -0.394 OA
HETATM   25  C16 UNL     1      23.795   4.467  49.323  1.00  0.00     0.201 C 
ENDBRANCH  23  24
ENDBRANCH  22  23
ENDBRANCH  21  22
ENDBRANCH  18  21
BRANCH  20  26
HETATM   26  O3  UNL     1      27.353   0.991  54.618  1.00  0.00    -0.387 OA
HETATM   27  C19 UNL     1      28.477   0.209  54.915  1.00  0.00     0.202 C 
ENDBRANCH  20  26
ENDBRANCH  17  18
ENDBRANCH  16  17
ENDBRANCH   9  11
ENDBRANCH   7   9
TORSDOF 9
ENDMDL
MODEL 7
REMARK VINA RESULT:      -6.5      1.223      2.328
REMARK  9 active torsions:
REMARK  status: ('A' for Active; 'I' for Inactive)
REMARK    1  A    between atoms: C7_7  and  N1_8 
REMARK    2  A    between atoms: N1_8  and  C8_9 
REMARK    3  A    between atoms: C11_14  and  C12_15 
REMARK    4  A    between atoms: C12_15  and  C13_16 
REMARK    5  A    between atoms: C13_16  and  O1_17 
REMARK    6  A    between atoms: O1_17  and  C14_18 
REMARK    7  A    between atoms: C14_18  and  C15_19 
REMARK    8  A    between atoms: C15_19  and  O2_20 
REMARK    9  A    between atoms: C18_23  and  O3_24 
ROOT
HETATM    1  C1  UNL     1      30.438   5.396  47.815  1.00  0.00     0.018 C 
HETATM    2  C2  UNL     1      29.269   5.461  48.140  1.00  0.00    -0.078 C 
HETATM    3  C3  UNL     1      27.873   5.540  48.515  1.00  0.00     0.019 A 
HETATM    4  C4  UNL     1      27.124   6.696  48.440  1.00  0.00     0.021 A 
HETATM    5  C5  UNL     1      25.783   6.682  48.802  1.00  0.00     0.004 A 
HETATM    6  C6  UNL     1      25.196   5.515  49.240  1.00  0.00     0.029 A 
HETATM    7  C7  UNL     1      25.980   4.367  49.305  1.00  0.00     0.035 A 
HETATM    8  C20 UNL     1      27.314   4.337  48.954  1.00  0.00     0.050 A 
ENDROOT
BRANCH   7   9
HETATM    9  N1  UNL     1      25.472   3.112  49.740  1.00  0.00    -0.340 N 
HETATM   10  H5  UNL     1      24.760   2.705  49.130  1.00  0.00     0.167 HD
BRANCH   9  11
HETATM   11  C8  UNL     1      26.020   2.601  50.937  1.00  0.00     0.137 A 
HETATM   12  N2  UNL     1      27.189   2.728  51.427  1.00  0.00    -0.224 NA
HETATM   13  C9  UNL     1      27.475   2.096  52.663  1.00  0.00     0.229 A 
HETATM   14  N3  UNL     1      26.731   1.382  53.415  1.00  0.00    -0.278 NA
HETATM   15  C10 UNL     1      25.367   1.112  53.037  1.00  0.00     0.192 A 
HETATM   16  C11 UNL     1      25.077   1.819  51.764  1.00  0.00     0.007 A 
BRANCH  16  17
HETATM   17  C12 UNL     1      23.795   1.589  51.582  1.00  0.00     0.026 C 
BRANCH  17  18
HETATM   18  C13 UNL     1      22.318   1.471  51.499  1.00  0.00     0.108 A 
HETATM   19  C17 UNL     1      21.679   0.778  50.360  1.00  0.00     0.080 A 
HETATM   20  C18 UNL     1      21.609   2.238  50.429  1.00  0.00     0.162 A 
BRANCH  18  21
HETATM   21  O1  UNL     1      21.683   1.526  52.762  1.00  0.00    -0.371 OA
BRANCH  21  22
HETATM   22  C14 UNL     1      22.112   0.445  53.546  1.00  0.00     0.195 C 
BRANCH  22  23
HETATM   23  C15 UNL     1      20.939  -0.151  54.307  1.00  0.00     0.193 C 
BRANCH  23  24
HETATM   24  O2  UNL     1      21.296  -1.254  55.068  1.00  0.00    -0.394 OA
HETATM   25  C16 UNL     1      22.680  -1.364  55.191  1.00  0.00     0.201 C 
ENDBRANCH  23  24
ENDBRANCH  22  23
ENDBRANCH  21  22
ENDBRANCH  18  21
BRANCH  20  26
HETATM   26  O3  UNL     1      20.382   2.820  50.729  1.00  0.00    -0.387 OA
HETATM   27  C19 UNL     1      20.041   3.736  49.725  1.00  0.00     0.202 C 
ENDBRANCH  20  26
ENDBRANCH  17  18
ENDBRANCH  16  17
ENDBRANCH   9  11
ENDBRANCH   7   9
TORSDOF 9
ENDMDL
MODEL 8
REMARK VINA RESULT:      -6.5      2.989      5.895
REMARK  9 active torsions:
REMARK  status: ('A' for Active; 'I' for Inactive)
REMARK    1  A    between atoms: C7_7  and  N1_8 
REMARK    2  A    between atoms: N1_8  and  C8_9 
REMARK    3  A    between atoms: C11_14  and  C12_15 
REMARK    4  A    between atoms: C12_15  and  C13_16 
REMARK    5  A    between atoms: C13_16  and  O1_17 
REMARK    6  A    between atoms: O1_17  and  C14_18 
REMARK    7  A    between atoms: C14_18  and  C15_19 
REMARK    8  A    between atoms: C15_19  and  O2_20 
REMARK    9  A    between atoms: C18_23  and  O3_24 
ROOT
HETATM    1  C1  UNL     1      29.562  -2.216  53.352  1.00  0.00     0.018 C 
HETATM    2  C2  UNL     1      28.827  -1.248  53.367  1.00  0.00    -0.078 C 
HETATM    3  C3  UNL     1      27.958  -0.091  53.376  1.00  0.00     0.019 A 
HETATM    4  C4  UNL     1      28.357   1.163  53.793  1.00  0.00     0.021 A 
HETATM    5  C5  UNL     1      27.465   2.227  53.751  1.00  0.00     0.004 A 
HETATM    6  C6  UNL     1      26.178   2.035  53.297  1.00  0.00     0.029 A 
HETATM    7  C7  UNL     1      25.809   0.758  52.886  1.00  0.00     0.035 A 
HETATM    8  C20 UNL     1      26.662  -0.325  52.909  1.00  0.00     0.050 A 
ENDROOT
BRANCH   7   9
HETATM    9  N1  UNL     1      24.507   0.454  52.398  1.00  0.00    -0.340 N 
HETATM   10  H5  UNL     1      24.344   0.716  51.424  1.00  0.00     0.167 HD
BRANCH   9  11
HETATM   11  C8  UNL     1      23.631  -0.169  53.314  1.00  0.00     0.137 A 
HETATM   12  N2  UNL     1      23.876  -0.759  54.416  1.00  0.00    -0.224 NA
HETATM   13  C9  UNL     1      22.790  -1.307  55.144  1.00  0.00     0.229 A 
HETATM   14  N3  UNL     1      21.542  -1.317  54.879  1.00  0.00    -0.278 NA
HETATM   15  C10 UNL     1      21.054  -0.704  53.670  1.00  0.00     0.192 A 
HETATM   16  C11 UNL     1      22.201  -0.100  52.947  1.00  0.00     0.007 A 
BRANCH  16  17
HETATM   17  C12 UNL     1      21.625   0.512  51.935  1.00  0.00     0.026 C 
BRANCH  17  18
HETATM   18  C13 UNL     1      21.143   1.287  50.764  1.00  0.00     0.108 A 
HETATM   19  C17 UNL     1      21.172   0.699  49.407  1.00  0.00     0.080 A 
HETATM   20  C18 UNL     1      22.148   1.733  49.752  1.00  0.00     0.162 A 
BRANCH  18  21
HETATM   21  O1  UNL     1      20.191   2.277  51.105  1.00  0.00    -0.371 OA
BRANCH  21  22
HETATM   22  C14 UNL     1      19.042   1.659  51.620  1.00  0.00     0.195 C 
BRANCH  22  23
HETATM   23  C15 UNL     1      17.794   2.328  51.068  1.00  0.00     0.193 C 
BRANCH  23  24
HETATM   24  O2  UNL     1      17.238   1.636  50.003  1.00  0.00    -0.394 OA
HETATM   25  C16 UNL     1      17.471   0.265  50.107  1.00  0.00     0.201 C 
ENDBRANCH  23  24
ENDBRANCH  22  23
ENDBRANCH  21  22
ENDBRANCH  18  21
BRANCH  20  26
HETATM   26  O3  UNL     1      22.000   2.990  49.176  1.00  0.00    -0.387 OA
HETATM   27  C19 UNL     1      23.243   3.635  49.133  1.00  0.00     0.202 C 
ENDBRANCH  20  26
ENDBRANCH  17  18
ENDBRANCH  16  17
ENDBRANCH   9  11
ENDBRANCH   7   9
TORSDOF 9
ENDMDL
MODEL 9
REMARK VINA RESULT:      -6.4      2.767      6.164
REMARK  9 active torsions:
REMARK  status: ('A' for Active; 'I' for Inactive)
REMARK    1  A    between atoms: C7_7  and  N1_8 
REMARK    2  A    between atoms: N1_8  and  C8_9 
REMARK    3  A    between atoms: C11_14  and  C12_15 
REMARK    4  A    between atoms: C12_15  and  C13_16 
REMARK    5  A    between atoms: C13_16  and  O1_17 
REMARK    6  A    between atoms: O1_17  and  C14_18 
REMARK    7  A    between atoms: C14_18  and  C15_19 
REMARK    8  A    between atoms: C15_19  and  O2_20 
REMARK    9  A    between atoms: C18_23  and  O3_24 
ROOT
HETATM    1  C1  UNL     1      22.270  -1.082  54.663  1.00  0.00     0.018 C 
HETATM    2  C2  UNL     1      22.264  -0.347  53.697  1.00  0.00    -0.078 C 
HETATM    3  C3  UNL     1      22.245   0.531  52.546  1.00  0.00     0.019 A 
HETATM    4  C4  UNL     1      21.598   0.232  51.365  1.00  0.00     0.021 A 
HETATM    5  C5  UNL     1      21.612   1.140  50.313  1.00  0.00     0.004 A 
HETATM    6  C6  UNL     1      22.275   2.342  50.445  1.00  0.00     0.029 A 
HETATM    7  C7  UNL     1      22.918   2.611  51.649  1.00  0.00     0.035 A 
HETATM    8  C20 UNL     1      22.927   1.739  52.717  1.00  0.00     0.050 A 
ENDROOT
BRANCH   7   9
HETATM    9  N1  UNL     1      23.626   3.821  51.888  1.00  0.00    -0.340 N 
HETATM   10  H5  UNL     1      23.452   4.244  52.802  1.00  0.00     0.167 HD
BRANCH   9  11
HETATM   11  C8  UNL     1      24.470   4.264  50.846  1.00  0.00     0.137 A 
HETATM   12  N2  UNL     1      24.321   5.219  50.016  1.00  0.00    -0.224 NA
HETATM   13  C9  UNL     1      25.339   5.443  49.055  1.00  0.00     0.229 A 
HETATM   14  N3  UNL     1      26.437   4.824  48.860  1.00  0.00    -0.278 NA
HETATM   15  C10 UNL     1      26.794   3.704  49.691  1.00  0.00     0.192 A 
HETATM   16  C11 UNL     1      25.738   3.515  50.716  1.00  0.00     0.007 A 
BRANCH  16  17
HETATM   17  C12 UNL     1      26.221   2.550  51.467  1.00  0.00     0.026 C 
BRANCH  17  18
HETATM   18  C13 UNL     1      26.740   1.578  52.462  1.00  0.00     0.108 A 
HETATM   19  C17 UNL     1      26.103   0.254  52.626  1.00  0.00     0.080 A 
HETATM   20  C18 UNL     1      25.894   1.272  53.656  1.00  0.00     0.162 A 
BRANCH  18  21
HETATM   21  O1  UNL     1      28.110   1.765  52.761  1.00  0.00    -0.371 OA
BRANCH  21  22
HETATM   22  C14 UNL     1      28.784   0.540  52.640  1.00  0.00     0.195 C 
BRANCH  22  23
HETATM   23  C15 UNL     1      29.722   0.338  53.817  1.00  0.00     0.193 C 
BRANCH  23  24
HETATM   24  O2  UNL     1      30.016  -0.997  54.049  1.00  0.00    -0.394 OA
HETATM   25  C16 UNL     1      29.200  -1.838  53.293  1.00  0.00     0.201 C 
ENDBRANCH  23  24
ENDBRANCH  22  23
ENDBRANCH  21  22
ENDBRANCH  18  21
BRANCH  20  26
HETATM   26  O3  UNL     1      26.518   1.096  54.886  1.00  0.00    -0.387 OA
HETATM   27  C19 UNL     1      26.160  -0.150  55.417  1.00  0.00     0.202 C 
ENDBRANCH  20  26
ENDBRANCH  17  18
ENDBRANCH  16  17
ENDBRANCH   9  11
ENDBRANCH   7   9
TORSDOF 9
ENDMDL
