MODEL 1
REMARK VINA RESULT:      -6.7      0.000      0.000
REMARK  4 active torsions:
REMARK  status: ('A' for Active; 'I' for Inactive)
REMARK    1  A    between atoms: C3_3  and  C4_4 
REMARK    2  A    between atoms: C5_5  and  N1_6 
REMARK    3  A    between atoms: N1_6  and  C7_8 
REMARK    4  A    between atoms: C11_14  and  O2_15 
ROOT
HETATM    1  C7  UNL     1      25.186   1.718  52.751  1.00  0.00     0.107 C 
HETATM    2  C8  UNL     1      24.395   0.664  52.857  1.00  0.00     0.065 C 
HETATM    3  P1  UNL     1      22.601   0.539  53.149  1.00  0.00    -0.015 P 
HETATM    4  C9  UNL     1      21.582   1.783  52.735  1.00  0.00     0.025 A 
HETATM    5  O1  UNL     1      20.869   0.744  53.290  1.00  0.00     0.000 OA
HETATM    6  C10 UNL     1      19.819   0.129  52.570  1.00  0.00     0.000 C 
HETATM    7  C11 UNL     1      20.971   3.040  52.255  1.00  0.00     0.077 C 
HETATM    8  C13 UNL     1      21.564   4.049  51.684  1.00  0.00     0.017 C 
HETATM    9  C14 UNL     1      22.765   4.698  51.170  1.00  0.00     0.083 C 
HETATM   10  P2  UNL     1      24.299   3.706  51.289  1.00  0.00    -0.025 P 
HETATM   11  N2  UNL     1      24.679   3.034  52.853  1.00  0.00    -0.353 N 
HETATM   12  H21 UNL     1      24.620   2.920  50.148  1.00  0.00     0.080 HD
HETATM   13  H22 UNL     1      24.764   3.015  53.862  1.00  0.00     0.165 HD
ENDROOT
BRANCH   1  14
HETATM   14  N1  UNL     1      26.546   1.376  52.522  1.00  0.00    -0.348 N 
HETATM   15  C6  UNL     1      26.695   0.067  51.878  1.00  0.00     0.157 C 
BRANCH  14  16
HETATM   16  C5  UNL     1      27.542   2.302  52.921  1.00  0.00     0.092 C 
HETATM   17  C4  UNL     1      28.614   2.012  53.593  1.00  0.00     0.017 C 
BRANCH  17  18
HETATM   18  C3  UNL     1      28.848   0.643  53.988  1.00  0.00    -0.003 C 
HETATM   19  C2  UNL     1      29.844  -0.096  53.511  1.00  0.00    -0.031 C 
HETATM   20  C1  UNL     1      30.113  -1.493  53.891  1.00  0.00     0.036 C 
ENDBRANCH  17  18
ENDBRANCH  14  16
ENDBRANCH   1  14
BRANCH   7  21
HETATM   21  O2  UNL     1      19.594   3.013  52.501  1.00  0.00    -0.355 OA
HETATM   22  C12 UNL     1      18.650   3.600  51.633  1.00  0.00     0.210 C 
ENDBRANCH   7  21
TORSDOF 4
ENDMDL
MODEL 2
REMARK VINA RESULT:      -6.5      3.914      6.158
REMARK  4 active torsions:
REMARK  status: ('A' for Active; 'I' for Inactive)
REMARK    1  A    between atoms: C3_3  and  C4_4 
REMARK    2  A    between atoms: C5_5  and  N1_6 
REMARK    3  A    between atoms: N1_6  and  C7_8 
REMARK    4  A    between atoms: C11_14  and  O2_15 
ROOT
HETATM    1  C7  UNL     1      24.711   3.176  51.310  1.00  0.00     0.107 C 
HETATM    2  C8  UNL     1      23.706   4.034  51.350  1.00  0.00     0.065 C 
HETATM    3  P1  UNL     1      23.673   5.847  51.176  1.00  0.00    -0.015 P 
HETATM    4  C9  UNL     1      24.866   6.643  50.341  1.00  0.00     0.025 A 
HETATM    5  O1  UNL     1      23.942   7.541  50.829  1.00  0.00     0.000 OA
HETATM    6  C10 UNL     1      23.253   8.409  49.952  1.00  0.00     0.000 C 
HETATM    7  C11 UNL     1      26.052   7.030  49.547  1.00  0.00     0.077 C 
HETATM    8  C13 UNL     1      26.947   6.246  49.016  1.00  0.00     0.017 C 
HETATM    9  C14 UNL     1      27.479   4.915  48.750  1.00  0.00     0.083 C 
HETATM   10  P2  UNL     1      26.477   3.530  49.404  1.00  0.00    -0.025 P 
HETATM   11  N2  UNL     1      26.040   3.606  51.091  1.00  0.00    -0.353 N 
HETATM   12  H21 UNL     1      25.519   2.979  48.509  1.00  0.00     0.080 HD
HETATM   13  H22 UNL     1      26.172   3.782  52.079  1.00  0.00     0.165 HD
ENDROOT
BRANCH   1  14
HETATM   14  N1  UNL     1      24.304   1.827  51.495  1.00  0.00    -0.348 N 
HETATM   15  C6  UNL     1      22.975   1.559  50.934  1.00  0.00     0.157 C 
BRANCH  14  16
HETATM   16  C5  UNL     1      25.192   0.948  52.163  1.00  0.00     0.092 C 
HETATM   17  C4  UNL     1      24.885   0.191  53.172  1.00  0.00     0.017 C 
BRANCH  17  18
HETATM   18  C3  UNL     1      23.536   0.216  53.688  1.00  0.00    -0.003 C 
HETATM   19  C2  UNL     1      22.927  -0.849  54.197  1.00  0.00    -0.031 C 
HETATM   20  C1  UNL     1      21.554  -0.859  54.731  1.00  0.00     0.036 C 
ENDBRANCH  17  18
ENDBRANCH  14  16
ENDBRANCH   1  14
BRANCH   7  21
HETATM   21  O2  UNL     1      26.098   8.422  49.424  1.00  0.00    -0.355 OA
HETATM   22  C12 UNL     1      27.058   9.217  50.084  1.00  0.00     0.210 C 
ENDBRANCH   7  21
TORSDOF 4
ENDMDL
MODEL 3
REMARK VINA RESULT:      -6.3      2.333      3.271
REMARK  4 active torsions:
REMARK  status: ('A' for Active; 'I' for Inactive)
REMARK    1  A    between atoms: C3_3  and  C4_4 
REMARK    2  A    between atoms: C5_5  and  N1_6 
REMARK    3  A    between atoms: N1_6  and  C7_8 
REMARK    4  A    between atoms: C11_14  and  O2_15 
ROOT
HETATM    1  C7  UNL     1      24.994   1.489  53.056  1.00  0.00     0.107 C 
HETATM    2  C8  UNL     1      23.714   1.279  52.798  1.00  0.00     0.065 C 
HETATM    3  P1  UNL     1      22.485   2.305  51.930  1.00  0.00    -0.015 P 
HETATM    4  C9  UNL     1      22.958   3.427  50.801  1.00  0.00     0.025 A 
HETATM    5  O1  UNL     1      21.587   3.432  50.936  1.00  0.00     0.000 OA
HETATM    6  C10 UNL     1      20.755   3.194  49.818  1.00  0.00     0.000 C 
HETATM    7  C11 UNL     1      23.698   4.307  49.872  1.00  0.00     0.077 C 
HETATM    8  C13 UNL     1      24.982   4.337  49.654  1.00  0.00     0.017 C 
HETATM    9  C14 UNL     1      26.331   3.844  49.909  1.00  0.00     0.083 C 
HETATM   10  P2  UNL     1      26.441   2.453  51.094  1.00  0.00    -0.025 P 
HETATM   11  N2  UNL     1      25.648   2.668  52.633  1.00  0.00    -0.353 N 
HETATM   12  H21 UNL     1      26.414   1.150  50.525  1.00  0.00     0.080 HD
HETATM   13  H22 UNL     1      25.354   3.161  53.466  1.00  0.00     0.165 HD
ENDROOT
BRANCH   1  14
HETATM   14  N1  UNL     1      25.603   0.422  53.771  1.00  0.00    -0.348 N 
HETATM   15  C6  UNL     1      26.183   0.859  55.045  1.00  0.00     0.157 C 
BRANCH  14  16
HETATM   16  C5  UNL     1      25.572  -0.871  53.193  1.00  0.00     0.092 C 
HETATM   17  C4  UNL     1      26.592  -1.495  52.687  1.00  0.00     0.017 C 
BRANCH  17  18
HETATM   18  C3  UNL     1      27.885  -0.853  52.695  1.00  0.00    -0.003 C 
HETATM   19  C2  UNL     1      28.882  -1.223  53.492  1.00  0.00    -0.031 C 
HETATM   20  C1  UNL     1      30.212  -0.592  53.526  1.00  0.00     0.036 C 
ENDBRANCH  17  18
ENDBRANCH  14  16
ENDBRANCH   1  14
BRANCH   7  21
HETATM   21  O2  UNL     1      22.799   5.151  49.212  1.00  0.00    -0.355 OA
HETATM   22  C12 UNL     1      22.980   5.569  47.878  1.00  0.00     0.210 C 
ENDBRANCH   7  21
TORSDOF 4
ENDMDL
MODEL 4
REMARK VINA RESULT:      -6.3      2.695      7.115
REMARK  4 active torsions:
REMARK  status: ('A' for Active; 'I' for Inactive)
REMARK    1  A    between atoms: C3_3  and  C4_4 
REMARK    2  A    between atoms: C5_5  and  N1_6 
REMARK    3  A    between atoms: N1_6  and  C7_8 
REMARK    4  A    between atoms: C11_14  and  O2_15 
ROOT
HETATM    1  C7  UNL     1      22.304   1.693  51.539  1.00  0.00     0.107 C 
HETATM    2  C8  UNL     1      22.422   1.065  52.696  1.00  0.00     0.065 C 
HETATM    3  P1  UNL     1      23.832   0.184  53.441  1.00  0.00    -0.015 P 
HETATM    4  C9  UNL     1      25.391   0.553  53.008  1.00  0.00     0.025 A 
HETATM    5  O1  UNL     1      25.381  -0.455  53.947  1.00  0.00     0.000 OA
HETATM    6  C10 UNL     1      26.071  -0.301  55.171  1.00  0.00     0.000 C 
HETATM    7  C11 UNL     1      26.623   1.117  52.418  1.00  0.00     0.077 C 
HETATM    8  C13 UNL     1      26.723   2.092  51.560  1.00  0.00     0.017 C 
HETATM    9  C14 UNL     1      26.116   3.119  50.720  1.00  0.00     0.083 C 
HETATM   10  P2  UNL     1      24.295   3.251  50.843  1.00  0.00    -0.025 P 
HETATM   11  N2  UNL     1      23.385   1.778  50.632  1.00  0.00    -0.353 N 
HETATM   12  H21 UNL     1      23.804   4.188  51.794  1.00  0.00     0.080 HD
HETATM   13  H22 UNL     1      23.145   0.884  50.223  1.00  0.00     0.165 HD
ENDROOT
BRANCH   1  14
HETATM   14  N1  UNL     1      21.015   2.255  51.336  1.00  0.00    -0.348 N 
HETATM   15  C6  UNL     1      20.694   3.296  52.319  1.00  0.00     0.157 C 
BRANCH  14  16
HETATM   16  C5  UNL     1      20.237   1.766  50.257  1.00  0.00     0.092 C 
HETATM   17  C4  UNL     1      19.334   0.837  50.340  1.00  0.00     0.017 C 
BRANCH  17  18
HETATM   18  C3  UNL     1      19.070   0.224  51.620  1.00  0.00    -0.003 C 
HETATM   19  C2  UNL     1      18.025  -0.563  51.853  1.00  0.00    -0.031 C 
HETATM   20  C1  UNL     1      17.725  -1.204  53.145  1.00  0.00     0.036 C 
ENDBRANCH  17  18
ENDBRANCH  14  16
ENDBRANCH   1  14
BRANCH   7  21
HETATM   21  O2  UNL     1      27.737   0.439  52.924  1.00  0.00    -0.355 OA
HETATM   22  C12 UNL     1      28.897   1.103  53.375  1.00  0.00     0.210 C 
ENDBRANCH   7  21
TORSDOF 4
ENDMDL
MODEL 5
REMARK VINA RESULT:      -6.3      2.187      3.294
REMARK  4 active torsions:
REMARK  status: ('A' for Active; 'I' for Inactive)
REMARK    1  A    between atoms: C3_3  and  C4_4 
REMARK    2  A    between atoms: C5_5  and  N1_6 
REMARK    3  A    between atoms: N1_6  and  C7_8 
REMARK    4  A    between atoms: C11_14  and  O2_15 
ROOT
HETATM    1  C7  UNL     1      23.918   0.499  52.816  1.00  0.00     0.107 C 
HETATM    2  C8  UNL     1      23.868   1.440  51.888  1.00  0.00     0.065 C 
HETATM    3  P1  UNL     1      22.660   1.750  50.560  1.00  0.00    -0.015 P 
HETATM    4  C9  UNL     1      21.094   1.215  50.693  1.00  0.00     0.025 A 
HETATM    5  O1  UNL     1      21.277   1.870  49.496  1.00  0.00     0.000 OA
HETATM    6  C10 UNL     1      20.481   2.991  49.163  1.00  0.00     0.000 C 
HETATM    7  C11 UNL     1      19.810   0.622  51.121  1.00  0.00     0.077 C 
HETATM    8  C13 UNL     1      19.543   0.025  52.248  1.00  0.00     0.017 C 
HETATM    9  C14 UNL     1      19.946  -0.448  53.567  1.00  0.00     0.083 C 
HETATM   10  P2  UNL     1      21.668  -0.053  54.044  1.00  0.00    -0.025 P 
HETATM   11  N2  UNL     1      22.918  -0.495  52.911  1.00  0.00    -0.353 N 
HETATM   12  H21 UNL     1      21.849   1.156  54.772  1.00  0.00     0.080 HD
HETATM   13  H22 UNL     1      23.395  -1.076  52.233  1.00  0.00     0.165 HD
ENDROOT
BRANCH   1  14
HETATM   14  N1  UNL     1      25.046   0.615  53.672  1.00  0.00    -0.348 N 
HETATM   15  C6  UNL     1      25.290  -0.605  54.448  1.00  0.00     0.157 C 
BRANCH  14  16
HETATM   16  C5  UNL     1      25.764   1.837  53.666  1.00  0.00     0.092 C 
HETATM   17  C4  UNL     1      27.029   1.965  53.404  1.00  0.00     0.017 C 
BRANCH  17  18
HETATM   18  C3  UNL     1      27.806   0.790  53.088  1.00  0.00    -0.003 C 
HETATM   19  C2  UNL     1      28.854   0.392  53.801  1.00  0.00    -0.031 C 
HETATM   20  C1  UNL     1      29.668  -0.800  53.508  1.00  0.00     0.036 C 
ENDBRANCH  17  18
ENDBRANCH  14  16
ENDBRANCH   1  14
BRANCH   7  21
HETATM   21  O2  UNL     1      18.857   0.792  50.112  1.00  0.00    -0.355 OA
HETATM   22  C12 UNL     1      17.574   0.209  50.164  1.00  0.00     0.210 C 
ENDBRANCH   7  21
TORSDOF 4
ENDMDL
MODEL 6
REMARK VINA RESULT:      -6.3      3.098      4.501
REMARK  4 active torsions:
REMARK  status: ('A' for Active; 'I' for Inactive)
REMARK    1  A    between atoms: C3_3  and  C4_4 
REMARK    2  A    between atoms: C5_5  and  N1_6 
REMARK    3  A    between atoms: N1_6  and  C7_8 
REMARK    4  A    between atoms: C11_14  and  O2_15 
ROOT
HETATM    1  C7  UNL     1      25.313   1.769  51.912  1.00  0.00     0.107 C 
HETATM    2  C8  UNL     1      26.326   2.493  51.468  1.00  0.00     0.065 C 
HETATM    3  P1  UNL     1      26.449   3.640  50.058  1.00  0.00    -0.015 P 
HETATM    4  C9  UNL     1      25.101   4.402  49.460  1.00  0.00     0.025 A 
HETATM    5  O1  UNL     1      26.218   4.773  48.744  1.00  0.00     0.000 OA
HETATM    6  C10 UNL     1      26.585   6.134  48.643  1.00  0.00     0.000 C 
HETATM    7  C11 UNL     1      23.739   4.906  49.184  1.00  0.00     0.077 C 
HETATM    8  C13 UNL     1      22.643   4.640  49.834  1.00  0.00     0.017 C 
HETATM    9  C14 UNL     1      21.932   3.964  50.915  1.00  0.00     0.083 C 
HETATM   10  P2  UNL     1      22.983   2.966  52.033  1.00  0.00    -0.025 P 
HETATM   11  N2  UNL     1      24.048   1.806  51.283  1.00  0.00    -0.353 N 
HETATM   12  H21 UNL     1      23.463   3.634  53.194  1.00  0.00     0.080 HD
HETATM   13  H22 UNL     1      24.327   1.091  50.623  1.00  0.00     0.165 HD
ENDROOT
BRANCH   1  14
HETATM   14  N1  UNL     1      25.639   0.993  53.058  1.00  0.00    -0.348 N 
HETATM   15  C6  UNL     1      26.161   1.809  54.159  1.00  0.00     0.157 C 
BRANCH  14  16
HETATM   16  C5  UNL     1      25.424  -0.406  52.997  1.00  0.00     0.092 C 
HETATM   17  C4  UNL     1      26.347  -1.303  52.826  1.00  0.00     0.017 C 
BRANCH  17  18
HETATM   18  C3  UNL     1      27.720  -0.881  52.680  1.00  0.00    -0.003 C 
HETATM   19  C2  UNL     1      28.628  -0.999  53.643  1.00  0.00    -0.031 C 
HETATM   20  C1  UNL     1      30.036  -0.580  53.528  1.00  0.00     0.036 C 
ENDBRANCH  17  18
ENDBRANCH  14  16
ENDBRANCH   1  14
BRANCH   7  21
HETATM   21  O2  UNL     1      23.773   5.758  48.076  1.00  0.00    -0.355 OA
HETATM   22  C12 UNL     1      22.996   6.933  47.989  1.00  0.00     0.210 C 
ENDBRANCH   7  21
TORSDOF 4
ENDMDL
MODEL 7
REMARK VINA RESULT:      -6.2      3.268      6.034
REMARK  4 active torsions:
REMARK  status: ('A' for Active; 'I' for Inactive)
REMARK    1  A    between atoms: C3_3  and  C4_4 
REMARK    2  A    between atoms: C5_5  and  N1_6 
REMARK    3  A    between atoms: N1_6  and  C7_8 
REMARK    4  A    between atoms: C11_14  and  O2_15 
ROOT
HETATM    1  C7  UNL     1      24.071   3.144  50.925  1.00  0.00     0.107 C 
HETATM    2  C8  UNL     1      25.319   2.718  50.826  1.00  0.00     0.065 C 
HETATM    3  P1  UNL     1      26.321   1.682  51.941  1.00  0.00    -0.015 P 
HETATM    4  C9  UNL     1      25.600   0.617  52.990  1.00  0.00     0.025 A 
HETATM    5  O1  UNL     1      26.970   0.566  53.122  1.00  0.00     0.000 OA
HETATM    6  C10 UNL     1      27.664  -0.652  52.936  1.00  0.00     0.000 C 
HETATM    7  C11 UNL     1      24.664  -0.212  53.779  1.00  0.00     0.077 C 
HETATM    8  C13 UNL     1      23.365  -0.255  53.688  1.00  0.00     0.017 C 
HETATM    9  C14 UNL     1      22.114   0.184  53.081  1.00  0.00     0.083 C 
HETATM   10  P2  UNL     1      22.292   1.386  51.711  1.00  0.00    -0.025 P 
HETATM   11  N2  UNL     1      23.260   2.802  52.030  1.00  0.00    -0.353 N 
HETATM   12  H21 UNL     1      22.364   0.831  50.404  1.00  0.00     0.080 HD
HETATM   13  H22 UNL     1      23.616   3.583  52.566  1.00  0.00     0.165 HD
ENDROOT
BRANCH   1  14
HETATM   14  N1  UNL     1      23.665   3.944  49.823  1.00  0.00    -0.348 N 
HETATM   15  C6  UNL     1      23.322   3.144  48.643  1.00  0.00     0.157 C 
BRANCH  14  16
HETATM   16  C5  UNL     1      23.638   5.350  49.995  1.00  0.00     0.092 C 
HETATM   17  C4  UNL     1      24.547   6.178  49.577  1.00  0.00     0.017 C 
BRANCH  17  18
HETATM   18  C3  UNL     1      25.699   5.663  48.874  1.00  0.00    -0.003 C 
HETATM   19  C2  UNL     1      26.918   6.176  48.992  1.00  0.00    -0.031 C 
HETATM   20  C1  UNL     1      28.114   5.676  48.292  1.00  0.00     0.036 C 
ENDBRANCH  17  18
ENDBRANCH  14  16
ENDBRANCH   1  14
BRANCH   7  21
HETATM   21  O2  UNL     1      25.385  -0.995  54.686  1.00  0.00    -0.355 OA
HETATM   22  C12 UNL     1      24.995  -1.161  56.032  1.00  0.00     0.210 C 
ENDBRANCH   7  21
TORSDOF 4
ENDMDL
MODEL 8
REMARK VINA RESULT:      -6.0      4.590      6.700
REMARK  4 active torsions:
REMARK  status: ('A' for Active; 'I' for Inactive)
REMARK    1  A    between atoms: C3_3  and  C4_4 
REMARK    2  A    between atoms: C5_5  and  N1_6 
REMARK    3  A    between atoms: N1_6  and  C7_8 
REMARK    4  A    between atoms: C11_14  and  O2_15 
ROOT
HETATM    1  C7  UNL     1      24.292   4.413  50.794  1.00  0.00     0.107 C 
HETATM    2  C8  UNL     1      23.513   5.421  50.442  1.00  0.00     0.065 C 
HETATM    3  P1  UNL     1      23.916   7.123  49.930  1.00  0.00    -0.015 P 
HETATM    4  C9  UNL     1      25.390   7.482  49.256  1.00  0.00     0.025 A 
HETATM    5  O1  UNL     1      24.615   8.616  49.344  1.00  0.00     0.000 OA
HETATM    6  C10 UNL     1      24.311   9.369  48.186  1.00  0.00     0.000 C 
HETATM    7  C11 UNL     1      26.759   7.459  48.698  1.00  0.00     0.077 C 
HETATM    8  C13 UNL     1      27.540   6.429  48.542  1.00  0.00     0.017 C 
HETATM    9  C14 UNL     1      27.803   4.999  48.657  1.00  0.00     0.083 C 
HETATM   10  P2  UNL     1      26.415   4.001  49.312  1.00  0.00    -0.025 P 
HETATM   11  N2  UNL     1      25.700   4.538  50.809  1.00  0.00    -0.353 N 
HETATM   12  H21 UNL     1      25.543   3.439  48.339  1.00  0.00     0.080 HD
HETATM   13  H22 UNL     1      25.682   4.910  51.750  1.00  0.00     0.165 HD
ENDROOT
BRANCH   1  14
HETATM   14  N1  UNL     1      23.568   3.236  51.129  1.00  0.00    -0.348 N 
HETATM   15  C6  UNL     1      23.051   2.539  49.947  1.00  0.00     0.157 C 
BRANCH  14  16
HETATM   16  C5  UNL     1      23.445   2.897  52.499  1.00  0.00     0.092 C 
HETATM   17  C4  UNL     1      24.184   2.036  53.131  1.00  0.00     0.017 C 
BRANCH  17  18
HETATM   18  C3  UNL     1      25.228   1.343  52.413  1.00  0.00    -0.003 C 
HETATM   19  C2  UNL     1      25.706   0.159  52.779  1.00  0.00    -0.031 C 
HETATM   20  C1  UNL     1      26.769  -0.575  52.071  1.00  0.00     0.036 C 
ENDBRANCH  17  18
ENDBRANCH  14  16
ENDBRANCH   1  14
BRANCH   7  21
HETATM   21  O2  UNL     1      27.135   8.755  48.331  1.00  0.00    -0.355 OA
HETATM   22  C12 UNL     1      28.060   9.522  49.071  1.00  0.00     0.210 C 
ENDBRANCH   7  21
TORSDOF 4
ENDMDL
MODEL 9
REMARK VINA RESULT:      -5.9      2.633      6.498
REMARK  4 active torsions:
REMARK  status: ('A' for Active; 'I' for Inactive)
REMARK    1  A    between atoms: C3_3  and  C4_4 
REMARK    2  A    between atoms: C5_5  and  N1_6 
REMARK    3  A    between atoms: N1_6  and  C7_8 
REMARK    4  A    between atoms: C11_14  and  O2_15 
ROOT
HETATM    1  C7  UNL     1      22.410   2.353  51.390  1.00  0.00     0.107 C 
HETATM    2  C8  UNL     1      22.039   1.728  52.495  1.00  0.00     0.065 C 
HETATM    3  P1  UNL     1      22.757   0.291  53.355  1.00  0.00    -0.015 P 
HETATM    4  C9  UNL     1      24.363  -0.090  53.182  1.00  0.00     0.025 A 
HETATM    5  O1  UNL     1      23.745  -0.991  54.019  1.00  0.00     0.000 OA
HETATM    6  C10 UNL     1      24.217  -1.184  55.339  1.00  0.00     0.000 C 
HETATM    7  C11 UNL     1      25.796  -0.145  52.823  1.00  0.00     0.077 C 
HETATM    8  C13 UNL     1      26.464   0.686  52.075  1.00  0.00     0.017 C 
HETATM    9  C14 UNL     1      26.533   1.886  51.249  1.00  0.00     0.083 C 
HETATM   10  P2  UNL     1      24.973   2.835  51.122  1.00  0.00    -0.025 P 
HETATM   11  N2  UNL     1      23.547   1.944  50.658  1.00  0.00    -0.353 N 
HETATM   12  H21 UNL     1      24.805   3.882  52.069  1.00  0.00     0.080 HD
HETATM   13  H22 UNL     1      23.002   1.263  50.143  1.00  0.00     0.165 HD
ENDROOT
BRANCH   1  14
HETATM   14  N1  UNL     1      21.564   3.445  51.054  1.00  0.00    -0.348 N 
HETATM   15  C6  UNL     1      21.367   4.368  52.176  1.00  0.00     0.157 C 
BRANCH  14  16
HETATM   16  C5  UNL     1      21.045   3.504  49.737  1.00  0.00     0.092 C 
HETATM   17  C4  UNL     1      21.455   4.306  48.802  1.00  0.00     0.017 C 
BRANCH  17  18
HETATM   18  C3  UNL     1      22.528   5.230  49.086  1.00  0.00    -0.003 C 
HETATM   19  C2  UNL     1      23.680   5.240  48.425  1.00  0.00    -0.031 C 
HETATM   20  C1  UNL     1      24.794   6.168  48.688  1.00  0.00     0.036 C 
ENDBRANCH  17  18
ENDBRANCH  14  16
ENDBRANCH   1  14
BRANCH   7  21
HETATM   21  O2  UNL     1      26.385  -1.263  53.424  1.00  0.00    -0.355 OA
HETATM   22  C12 UNL     1      27.209  -2.165  52.719  1.00  0.00     0.210 C 
ENDBRANCH   7  21
TORSDOF 4
ENDMDL
