MODEL 1
REMARK VINA RESULT:      -7.7      0.000      0.000
REMARK  4 active torsions:
REMARK  status: ('A' for Active; 'I' for Inactive)
REMARK    1  A    between atoms: O1_1  and  C1_2 
REMARK    2  A    between atoms: C3_5  and  N1_6 
REMARK    3  A    between atoms: C4_8  and  C5_9 
REMARK    4  A    between atoms: C12_17  and  C13_18 
ROOT
HETATM    1  N1  UNL     1      26.206   0.549  52.887  1.00  0.00    -0.240 N 
HETATM    2  N2  UNL     1      26.644   1.551  52.015  1.00  0.00    -0.174 NA
HETATM    3  C4  UNL     1      25.660   2.263  51.589  1.00  0.00     0.067 C 
HETATM    4  C11 UNL     1      24.382   1.771  52.166  1.00  0.00     0.090 C 
HETATM    5  C12 UNL     1      24.864   0.848  53.259  1.00  0.00     0.132 C 
ENDROOT
BRANCH   1   6
HETATM    6  C3  UNL     1      27.259  -0.420  53.101  1.00  0.00     0.192 A 
HETATM    7  S1  UNL     1      28.991   0.290  53.506  1.00  0.00    -0.058 SA
HETATM    8  C2  UNL     1      29.754  -1.418  53.624  1.00  0.00     0.111 A 
HETATM    9  C1  UNL     1      28.544  -2.200  53.332  1.00  0.00     0.171 A 
HETATM   10  N3  UNL     1      27.381  -1.629  53.092  1.00  0.00    -0.198 NA
BRANCH   9  11
HETATM   11  O1  UNL     1      28.846  -3.576  53.357  1.00  0.00    -0.344 OA
HETATM   12  H1  UNL     1      29.609  -3.964  53.905  1.00  0.00     0.219 HD
ENDBRANCH   9  11
ENDBRANCH   1   6
BRANCH   5  13
HETATM   13  C13 UNL     1      23.929  -0.338  53.280  1.00  0.00     0.142 C 
HETATM   14 CL1  UNL     1      22.324   0.096  53.892  1.00  0.00    -0.128 Cl
ENDBRANCH   5  13
BRANCH   3  15
HETATM   15  C5  UNL     1      25.755   3.405  50.656  1.00  0.00    -0.010 A 
HETATM   16  C6  UNL     1      24.681   4.277  50.729  1.00  0.00     0.016 A 
HETATM   17  C7  UNL     1      24.672   5.384  49.886  1.00  0.00     0.043 A 
HETATM   18  C8  UNL     1      25.719   5.576  49.017  1.00  0.00     0.116 A 
HETATM   19  F1  UNL     1      25.656   6.666  48.221  1.00  0.00    -0.206 F 
HETATM   20  C9  UNL     1      26.781   4.667  48.980  1.00  0.00     0.043 A 
HETATM   21  C10 UNL     1      26.805   3.562  49.811  1.00  0.00     0.016 A 
ENDBRANCH   3  15
TORSDOF 4
ENDMDL
MODEL 2
REMARK VINA RESULT:      -7.7      4.655      6.759
REMARK  4 active torsions:
REMARK  status: ('A' for Active; 'I' for Inactive)
REMARK    1  A    between atoms: O1_1  and  C1_2 
REMARK    2  A    between atoms: C3_5  and  N1_6 
REMARK    3  A    between atoms: C4_8  and  C5_9 
REMARK    4  A    between atoms: C12_17  and  C13_18 
ROOT
HETATM    1  N1  UNL     1      23.594   1.512  52.675  1.00  0.00    -0.240 N 
HETATM    2  N2  UNL     1      24.983   1.354  52.679  1.00  0.00    -0.174 NA
HETATM    3  C4  UNL     1      25.324   0.226  53.197  1.00  0.00     0.067 C 
HETATM    4  C11 UNL     1      24.117  -0.528  53.624  1.00  0.00     0.090 C 
HETATM    5  C12 UNL     1      23.007   0.244  52.953  1.00  0.00     0.132 C 
ENDROOT
BRANCH   1   6
HETATM    6  C3  UNL     1      23.249   2.888  52.390  1.00  0.00     0.192 A 
HETATM    7  S1  UNL     1      21.489   3.192  51.697  1.00  0.00    -0.058 SA
HETATM    8  C2  UNL     1      21.768   5.041  51.576  1.00  0.00     0.111 A 
HETATM    9  C1  UNL     1      23.146   5.072  52.085  1.00  0.00     0.171 A 
HETATM   10  N3  UNL     1      23.781   3.978  52.456  1.00  0.00    -0.198 NA
BRANCH   9  11
HETATM   11  O1  UNL     1      23.622   6.397  52.100  1.00  0.00    -0.344 OA
HETATM   12  H1  UNL     1      24.553   6.646  52.425  1.00  0.00     0.219 HD
ENDBRANCH   9  11
ENDBRANCH   1   6
BRANCH   5  13
HETATM   13  C13 UNL     1      21.845   0.276  53.916  1.00  0.00     0.142 C 
HETATM   14 CL1  UNL     1      21.547  -1.312  54.646  1.00  0.00    -0.128 Cl
ENDBRANCH   5  13
BRANCH   3  15
HETATM   15  C5  UNL     1      26.706  -0.271  53.363  1.00  0.00    -0.010 A 
HETATM   16  C6  UNL     1      27.504   0.550  54.143  1.00  0.00     0.016 A 
HETATM   17  C7  UNL     1      28.826   0.173  54.356  1.00  0.00     0.043 A 
HETATM   18  C8  UNL     1      29.294  -0.989  53.791  1.00  0.00     0.116 A 
HETATM   19  F1  UNL     1      30.587  -1.303  54.029  1.00  0.00    -0.206 F 
HETATM   20  C9  UNL     1      28.449  -1.783  53.009  1.00  0.00     0.043 A 
HETATM   21  C10 UNL     1      27.132  -1.423  52.788  1.00  0.00     0.016 A 
ENDBRANCH   3  15
TORSDOF 4
ENDMDL
MODEL 3
REMARK VINA RESULT:      -7.6      3.949      5.730
REMARK  4 active torsions:
REMARK  status: ('A' for Active; 'I' for Inactive)
REMARK    1  A    between atoms: O1_1  and  C1_2 
REMARK    2  A    between atoms: C3_5  and  N1_6 
REMARK    3  A    between atoms: C4_8  and  C5_9 
REMARK    4  A    between atoms: C12_17  and  C13_18 
ROOT
HETATM    1  N1  UNL     1      25.892   1.395  52.275  1.00  0.00    -0.240 N 
HETATM    2  N2  UNL     1      24.905   0.632  52.907  1.00  0.00    -0.174 NA
HETATM    3  C4  UNL     1      23.738   0.888  52.428  1.00  0.00     0.067 C 
HETATM    4  C11 UNL     1      23.835   1.919  51.363  1.00  0.00     0.090 C 
HETATM    5  C12 UNL     1      25.320   1.965  51.101  1.00  0.00     0.132 C 
ENDROOT
BRANCH   1   6
HETATM    6  C3  UNL     1      27.128   1.333  53.025  1.00  0.00     0.192 A 
HETATM    7  S1  UNL     1      27.877  -0.412  53.275  1.00  0.00    -0.058 SA
HETATM    8  C2  UNL     1      29.323   0.261  54.259  1.00  0.00     0.111 A 
HETATM    9  C1  UNL     1      28.957   1.683  54.209  1.00  0.00     0.171 A 
HETATM   10  N3  UNL     1      27.876   2.108  53.588  1.00  0.00    -0.198 NA
BRANCH   9  11
HETATM   11  O1  UNL     1      29.915   2.449  54.903  1.00  0.00    -0.344 OA
HETATM   12  H1  UNL     1      30.120   3.418  54.671  1.00  0.00     0.219 HD
ENDBRANCH   9  11
ENDBRANCH   1   6
BRANCH   5  13
HETATM   13  C13 UNL     1      25.681   3.410  50.853  1.00  0.00     0.142 C 
HETATM   14 CL1  UNL     1      26.675   3.602  49.398  1.00  0.00    -0.128 Cl
ENDBRANCH   5  13
BRANCH   3  15
HETATM   15  C5  UNL     1      22.469   0.267  52.860  1.00  0.00    -0.010 A 
HETATM   16  C6  UNL     1      21.370   0.667  52.115  1.00  0.00     0.016 A 
HETATM   17  C7  UNL     1      20.124   0.142  52.445  1.00  0.00     0.043 A 
HETATM   18  C8  UNL     1      20.024  -0.746  53.489  1.00  0.00     0.116 A 
HETATM   19  F1  UNL     1      18.789  -1.221  53.766  1.00  0.00    -0.206 F 
HETATM   20  C9  UNL     1      21.162  -1.119  54.211  1.00  0.00     0.043 A 
HETATM   21  C10 UNL     1      22.407  -0.607  53.895  1.00  0.00     0.016 A 
ENDBRANCH   3  15
TORSDOF 4
ENDMDL
MODEL 4
REMARK VINA RESULT:      -7.5      4.309      6.620
REMARK  4 active torsions:
REMARK  status: ('A' for Active; 'I' for Inactive)
REMARK    1  A    between atoms: O1_1  and  C1_2 
REMARK    2  A    between atoms: C3_5  and  N1_6 
REMARK    3  A    between atoms: C4_8  and  C5_9 
REMARK    4  A    between atoms: C12_17  and  C13_18 
ROOT
HETATM    1  N1  UNL     1      25.462   1.645  52.294  1.00  0.00    -0.240 N 
HETATM    2  N2  UNL     1      24.079   1.439  52.314  1.00  0.00    -0.174 NA
HETATM    3  C4  UNL     1      23.772   0.394  52.999  1.00  0.00     0.067 C 
HETATM    4  C11 UNL     1      25.001  -0.248  53.534  1.00  0.00     0.090 C 
HETATM    5  C12 UNL     1      26.043   0.817  53.296  1.00  0.00     0.132 C 
ENDROOT
BRANCH   1   6
HETATM    6  C3  UNL     1      25.807   2.617  51.278  1.00  0.00     0.192 A 
HETATM    7  S1  UNL     1      24.342   3.554  50.475  1.00  0.00    -0.058 SA
HETATM    8  C2  UNL     1      25.479   4.535  49.353  1.00  0.00     0.111 A 
HETATM    9  C1  UNL     1      26.754   3.960  49.805  1.00  0.00     0.171 A 
HETATM   10  N3  UNL     1      26.814   3.037  50.743  1.00  0.00    -0.198 NA
BRANCH   9  11
HETATM   11  O1  UNL     1      27.821   4.544  49.094  1.00  0.00    -0.344 OA
HETATM   12  H1  UNL     1      27.787   4.718  48.093  1.00  0.00     0.219 HD
ENDBRANCH   9  11
ENDBRANCH   1   6
BRANCH   5  13
HETATM   13  C13 UNL     1      27.311   0.109  52.882  1.00  0.00     0.142 C 
HETATM   14 CL1  UNL     1      27.030  -1.608  52.544  1.00  0.00    -0.128 Cl
ENDBRANCH   5  13
BRANCH   3  15
HETATM   15  C5  UNL     1      22.407  -0.122  53.231  1.00  0.00    -0.010 A 
HETATM   16  C6  UNL     1      21.443   0.471  52.431  1.00  0.00     0.016 A 
HETATM   17  C7  UNL     1      20.122   0.059  52.575  1.00  0.00     0.043 A 
HETATM   18  C8  UNL     1      19.818  -0.912  53.499  1.00  0.00     0.116 A 
HETATM   19  F1  UNL     1      18.518  -1.271  53.598  1.00  0.00    -0.206 F 
HETATM   20  C9  UNL     1      20.826  -1.480  54.285  1.00  0.00     0.043 A 
HETATM   21  C10 UNL     1      22.144  -1.081  54.153  1.00  0.00     0.016 A 
ENDBRANCH   3  15
TORSDOF 4
ENDMDL
MODEL 5
REMARK VINA RESULT:      -7.4      4.756      6.792
REMARK  4 active torsions:
REMARK  status: ('A' for Active; 'I' for Inactive)
REMARK    1  A    between atoms: O1_1  and  C1_2 
REMARK    2  A    between atoms: C3_5  and  N1_6 
REMARK    3  A    between atoms: C4_8  and  C5_9 
REMARK    4  A    between atoms: C12_17  and  C13_18 
ROOT
HETATM    1  N1  UNL     1      23.164   0.905  53.017  1.00  0.00    -0.240 N 
HETATM    2  N2  UNL     1      24.559   0.992  52.965  1.00  0.00    -0.174 NA
HETATM    3  C4  UNL     1      25.112   0.023  53.608  1.00  0.00     0.067 C 
HETATM    4  C11 UNL     1      24.072  -0.860  54.198  1.00  0.00     0.090 C 
HETATM    5  C12 UNL     1      22.823  -0.393  53.492  1.00  0.00     0.132 C 
ENDROOT
BRANCH   1   6
HETATM    6  C3  UNL     1      22.571   2.148  52.571  1.00  0.00     0.192 A 
HETATM    7  S1  UNL     1      23.732   3.671  52.528  1.00  0.00    -0.058 SA
HETATM    8  C2  UNL     1      22.365   4.798  51.918  1.00  0.00     0.111 A 
HETATM    9  C1  UNL     1      21.288   3.799  51.865  1.00  0.00     0.171 A 
HETATM   10  N3  UNL     1      21.482   2.540  52.199  1.00  0.00    -0.198 NA
BRANCH   9  11
HETATM   11  O1  UNL     1      20.096   4.404  51.420  1.00  0.00    -0.344 OA
HETATM   12  H1  UNL     1      20.006   4.840  50.505  1.00  0.00     0.219 HD
ENDBRANCH   9  11
ENDBRANCH   1   6
BRANCH   5  13
HETATM   13  C13 UNL     1      21.704  -0.427  54.506  1.00  0.00     0.142 C 
HETATM   14 CL1  UNL     1      20.114  -0.550  53.732  1.00  0.00    -0.128 Cl
ENDBRANCH   5  13
BRANCH   3  15
HETATM   15  C5  UNL     1      26.564  -0.199  53.761  1.00  0.00    -0.010 A 
HETATM   16  C6  UNL     1      27.066  -1.197  52.940  1.00  0.00     0.016 A 
HETATM   17  C7  UNL     1      28.425  -1.488  53.012  1.00  0.00     0.043 A 
HETATM   18  C8  UNL     1      29.218  -0.785  53.886  1.00  0.00     0.116 A 
HETATM   19  F1  UNL     1      30.529  -1.112  53.915  1.00  0.00    -0.206 F 
HETATM   20  C9  UNL     1      28.664   0.213  54.696  1.00  0.00     0.043 A 
HETATM   21  C10 UNL     1      27.316   0.514  54.636  1.00  0.00     0.016 A 
ENDBRANCH   3  15
TORSDOF 4
ENDMDL
MODEL 6
REMARK VINA RESULT:      -7.3      4.546      6.595
REMARK  4 active torsions:
REMARK  status: ('A' for Active; 'I' for Inactive)
REMARK    1  A    between atoms: O1_1  and  C1_2 
REMARK    2  A    between atoms: C3_5  and  N1_6 
REMARK    3  A    between atoms: C4_8  and  C5_9 
REMARK    4  A    between atoms: C12_17  and  C13_18 
ROOT
HETATM    1  N1  UNL     1      23.416   1.036  53.137  1.00  0.00    -0.240 N 
HETATM    2  N2  UNL     1      24.480   0.201  53.492  1.00  0.00    -0.174 NA
HETATM    3  C4  UNL     1      25.606   0.685  53.097  1.00  0.00     0.067 C 
HETATM    4  C11 UNL     1      25.390   1.972  52.387  1.00  0.00     0.090 C 
HETATM    5  C12 UNL     1      23.958   2.292  52.739  1.00  0.00     0.132 C 
ENDROOT
BRANCH   1   6
HETATM    6  C3  UNL     1      22.159   0.338  53.302  1.00  0.00     0.192 A 
HETATM    7  S1  UNL     1      22.189  -1.198  54.446  1.00  0.00    -0.058 SA
HETATM    8  C2  UNL     1      20.366  -1.539  54.171  1.00  0.00     0.111 A 
HETATM    9  C1  UNL     1      20.086  -0.419  53.262  1.00  0.00     0.171 A 
HETATM   10  N3  UNL     1      21.017   0.439  52.897  1.00  0.00    -0.198 NA
BRANCH   9  11
HETATM   11  O1  UNL     1      18.730  -0.439  52.882  1.00  0.00    -0.344 OA
HETATM   12  H1  UNL     1      18.154   0.399  52.847  1.00  0.00     0.219 HD
ENDBRANCH   9  11
ENDBRANCH   1   6
BRANCH   5  13
HETATM   13  C13 UNL     1      23.325   2.898  51.510  1.00  0.00     0.142 C 
HETATM   14 CL1  UNL     1      24.464   2.985  50.154  1.00  0.00    -0.128 Cl
ENDBRANCH   5  13
BRANCH   3  15
HETATM   15  C5  UNL     1      26.934   0.069  53.299  1.00  0.00    -0.010 A 
HETATM   16  C6  UNL     1      27.823   0.875  53.993  1.00  0.00     0.016 A 
HETATM   17  C7  UNL     1      29.104   0.388  54.232  1.00  0.00     0.043 A 
HETATM   18  C8  UNL     1      29.444  -0.863  53.776  1.00  0.00     0.116 A 
HETATM   19  F1  UNL     1      30.703  -1.283  54.035  1.00  0.00    -0.206 F 
HETATM   20  C9  UNL     1      28.511  -1.639  53.080  1.00  0.00     0.043 A 
HETATM   21  C10 UNL     1      27.234  -1.169  52.835  1.00  0.00     0.016 A 
ENDBRANCH   3  15
TORSDOF 4
ENDMDL
MODEL 7
REMARK VINA RESULT:      -7.0      4.581      6.889
REMARK  4 active torsions:
REMARK  status: ('A' for Active; 'I' for Inactive)
REMARK    1  A    between atoms: O1_1  and  C1_2 
REMARK    2  A    between atoms: C3_5  and  N1_6 
REMARK    3  A    between atoms: C4_8  and  C5_9 
REMARK    4  A    between atoms: C12_17  and  C13_18 
ROOT
HETATM    1  N1  UNL     1      25.233   3.500  50.533  1.00  0.00    -0.240 N 
HETATM    2  N2  UNL     1      26.394   2.847  50.959  1.00  0.00    -0.174 NA
HETATM    3  C4  UNL     1      26.122   1.907  51.796  1.00  0.00     0.067 C 
HETATM    4  C11 UNL     1      24.656   1.839  52.032  1.00  0.00     0.090 C 
HETATM    5  C12 UNL     1      24.116   2.705  50.920  1.00  0.00     0.132 C 
ENDROOT
BRANCH   1   6
HETATM    6  C3  UNL     1      25.574   4.733  49.855  1.00  0.00     0.192 A 
HETATM    7  S1  UNL     1      27.241   4.744  48.912  1.00  0.00    -0.058 SA
HETATM    8  C2  UNL     1      27.010   6.520  48.360  1.00  0.00     0.111 A 
HETATM    9  C1  UNL     1      25.709   6.763  49.001  1.00  0.00     0.171 A 
HETATM   10  N3  UNL     1      25.090   5.837  49.704  1.00  0.00    -0.198 NA
BRANCH   9  11
HETATM   11  O1  UNL     1      25.284   8.079  48.737  1.00  0.00    -0.344 OA
HETATM   12  H1  UNL     1      25.929   8.833  48.510  1.00  0.00     0.219 HD
ENDBRANCH   9  11
ENDBRANCH   1   6
BRANCH   5  13
HETATM   13  C13 UNL     1      22.950   3.478  51.488  1.00  0.00     0.142 C 
HETATM   14 CL1  UNL     1      23.456   4.585  52.777  1.00  0.00    -0.128 Cl
ENDBRANCH   5  13
BRANCH   3  15
HETATM   15  C5  UNL     1      27.103   1.015  52.448  1.00  0.00    -0.010 A 
HETATM   16  C6  UNL     1      28.137   1.688  53.077  1.00  0.00     0.016 A 
HETATM   17  C7  UNL     1      29.118   0.938  53.718  1.00  0.00     0.043 A 
HETATM   18  C8  UNL     1      29.031  -0.433  53.706  1.00  0.00     0.116 A 
HETATM   19  F1  UNL     1      30.013  -1.111  54.342  1.00  0.00    -0.206 F 
HETATM   20  C9  UNL     1      27.967  -1.067  53.055  1.00  0.00     0.043 A 
HETATM   21  C10 UNL     1      26.984  -0.335  52.414  1.00  0.00     0.016 A 
ENDBRANCH   3  15
TORSDOF 4
ENDMDL
MODEL 8
REMARK VINA RESULT:      -6.9      6.306      7.992
REMARK  4 active torsions:
REMARK  status: ('A' for Active; 'I' for Inactive)
REMARK    1  A    between atoms: O1_1  and  C1_2 
REMARK    2  A    between atoms: C3_5  and  N1_6 
REMARK    3  A    between atoms: C4_8  and  C5_9 
REMARK    4  A    between atoms: C12_17  and  C13_18 
ROOT
HETATM    1  N1  UNL     1      30.917   6.045  47.640  1.00  0.00    -0.240 N 
HETATM    2  N2  UNL     1      29.841   5.271  48.085  1.00  0.00    -0.174 NA
HETATM    3  C4  UNL     1      28.762   5.970  48.161  1.00  0.00     0.067 C 
HETATM    4  C11 UNL     1      29.030   7.374  47.753  1.00  0.00     0.090 C 
HETATM    5  C12 UNL     1      30.395   7.263  47.118  1.00  0.00     0.132 C 
ENDROOT
BRANCH   1   6
HETATM    6  C3  UNL     1      32.162   5.341  47.861  1.00  0.00     0.192 A 
HETATM    7  S1  UNL     1      32.394   3.709  46.885  1.00  0.00    -0.058 SA
HETATM    8  C2  UNL     1      34.082   3.402  47.642  1.00  0.00     0.111 A 
HETATM    9  C1  UNL     1      34.143   4.600  48.492  1.00  0.00     0.171 A 
HETATM   10  N3  UNL     1      33.166   5.483  48.532  1.00  0.00    -0.198 NA
BRANCH   9  11
HETATM   11  O1  UNL     1      35.359   4.620  49.203  1.00  0.00    -0.344 OA
HETATM   12  H1  UNL     1      36.184   4.107  48.902  1.00  0.00     0.219 HD
ENDBRANCH   9  11
ENDBRANCH   1   6
BRANCH   5  13
HETATM   13  C13 UNL     1      31.164   8.504  47.504  1.00  0.00     0.142 C 
HETATM   14 CL1  UNL     1      30.899   8.945  49.200  1.00  0.00    -0.128 Cl
ENDBRANCH   5  13
BRANCH   3  15
HETATM   15  C5  UNL     1      27.438   5.477  48.593  1.00  0.00    -0.010 A 
HETATM   16  C6  UNL     1      26.419   6.404  48.437  1.00  0.00     0.016 A 
HETATM   17  C7  UNL     1      25.132   6.039  48.820  1.00  0.00     0.043 A 
HETATM   18  C8  UNL     1      24.915   4.785  49.337  1.00  0.00     0.116 A 
HETATM   19  F1  UNL     1      23.645   4.486  49.694  1.00  0.00    -0.206 F 
HETATM   20  C9  UNL     1      25.976   3.885  49.476  1.00  0.00     0.043 A 
HETATM   21  C10 UNL     1      27.261   4.232  49.100  1.00  0.00     0.016 A 
ENDBRANCH   3  15
TORSDOF 4
ENDMDL
MODEL 9
REMARK VINA RESULT:      -6.8      5.162      7.553
REMARK  4 active torsions:
REMARK  status: ('A' for Active; 'I' for Inactive)
REMARK    1  A    between atoms: O1_1  and  C1_2 
REMARK    2  A    between atoms: C3_5  and  N1_6 
REMARK    3  A    between atoms: C4_8  and  C5_9 
REMARK    4  A    between atoms: C12_17  and  C13_18 
ROOT
HETATM    1  N1  UNL     1      24.260   3.042  52.513  1.00  0.00    -0.240 N 
HETATM    2  N2  UNL     1      23.032   2.399  52.699  1.00  0.00    -0.174 NA
HETATM    3  C4  UNL     1      23.195   1.182  53.086  1.00  0.00     0.067 C 
HETATM    4  C11 UNL     1      24.644   0.869  53.199  1.00  0.00     0.090 C 
HETATM    5  C12 UNL     1      25.270   2.240  53.116  1.00  0.00     0.132 C 
ENDROOT
BRANCH   1   6
HETATM    6  C3  UNL     1      24.070   4.279  51.786  1.00  0.00     0.192 A 
HETATM    7  S1  UNL     1      24.522   4.244  49.925  1.00  0.00    -0.058 SA
HETATM    8  C2  UNL     1      24.064   6.047  49.696  1.00  0.00     0.111 A 
HETATM    9  C1  UNL     1      23.655   6.329  51.080  1.00  0.00     0.171 A 
HETATM   10  N3  UNL     1      23.692   5.409  52.023  1.00  0.00    -0.198 NA
BRANCH   9  11
HETATM   11  O1  UNL     1      23.248   7.672  51.194  1.00  0.00    -0.344 OA
HETATM   12  H1  UNL     1      23.305   8.194  52.065  1.00  0.00     0.219 HD
ENDBRANCH   9  11
ENDBRANCH   1   6
BRANCH   5  13
HETATM   13  C13 UNL     1      26.539   2.098  52.308  1.00  0.00     0.142 C 
HETATM   14 CL1  UNL     1      26.804   0.426  51.783  1.00  0.00    -0.128 Cl
ENDBRANCH   5  13
BRANCH   3  15
HETATM   15  C5  UNL     1      22.119   0.213  53.378  1.00  0.00    -0.010 A 
HETATM   16  C6  UNL     1      20.893   0.559  52.833  1.00  0.00     0.016 A 
HETATM   17  C7  UNL     1      19.811  -0.287  53.055  1.00  0.00     0.043 A 
HETATM   18  C8  UNL     1      19.990  -1.427  53.800  1.00  0.00     0.116 A 
HETATM   19  F1  UNL     1      18.904  -2.210  53.985  1.00  0.00    -0.206 F 
HETATM   20  C9  UNL     1      21.248  -1.734  54.330  1.00  0.00     0.043 A 
HETATM   21  C10 UNL     1      22.334  -0.903  54.118  1.00  0.00     0.016 A 
ENDBRANCH   3  15
TORSDOF 4
ENDMDL
