MODEL 1
REMARK VINA RESULT:      -8.1      0.000      0.000
REMARK  5 active torsions:
REMARK  status: ('A' for Active; 'I' for Inactive)
REMARK    1  A    between atoms: C4_4  and  C5_5 
REMARK    2  A    between atoms: C5_5  and  N1_6 
REMARK    3  A    between atoms: N1_6  and  C6_7 
REMARK    4  A    between atoms: C10_13  and  O1_14 
REMARK    5  A    between atoms: O1_14  and  C11_15 
ROOT
HETATM    1  C1  UNL     1      28.628  -2.759  53.080  1.00  0.00     0.017 C 
HETATM    2  C2  UNL     1      29.210  -1.723  53.289  1.00  0.00    -0.090 C 
HETATM    3  C3  UNL     1      29.923  -0.504  53.533  1.00  0.00     0.061 C 
HETATM    4  C4  UNL     1      29.377   0.601  53.979  1.00  0.00     0.001 C 
ENDROOT
BRANCH   4   5
HETATM    5  C5  UNL     1      27.983   0.943  54.349  1.00  0.00     0.149 C 
BRANCH   5   6
HETATM    6  N1  UNL     1      27.011   0.563  53.340  1.00  0.00    -0.370 N 
HETATM    7  H6  UNL     1      27.426   0.757  52.413  1.00  0.00     0.161 HD
BRANCH   6   8
HETATM    8  C6  UNL     1      25.762   0.034  53.817  1.00  0.00     0.140 A 
HETATM    9  N2  UNL     1      25.759  -0.739  54.888  1.00  0.00    -0.224 NA
HETATM   10  C7  UNL     1      24.624  -1.254  55.372  1.00  0.00     0.236 A 
HETATM   11  N3  UNL     1      23.425  -1.020  54.808  1.00  0.00    -0.241 NA
HETATM   12  C8  UNL     1      23.339  -0.232  53.700  1.00  0.00     0.077 A 
HETATM   13  C9  UNL     1      22.146   0.025  53.104  1.00  0.00     0.072 A 
HETATM   14  C17 UNL     1      24.535   0.273  53.241  1.00  0.00     0.075 A 
HETATM   15  C10 UNL     1      22.023   0.814  51.990  1.00  0.00     0.107 A 
HETATM   16  C15 UNL     1      23.235   1.323  51.527  1.00  0.00     0.136 A 
HETATM   17  C16 UNL     1      24.449   1.064  52.129  1.00  0.00     0.121 A 
HETATM   18  O4  UNL     1      23.286   2.141  50.408  1.00  0.00    -0.344 OA
HETATM   19  O3  UNL     1      25.524   1.647  51.537  1.00  0.00    -0.345 OA
HETATM   20  C18 UNL     1      25.525   2.923  50.920  1.00  0.00     0.202 C 
HETATM   21  C19 UNL     1      24.189   3.224  50.277  1.00  0.00     0.202 C 
BRANCH  15  22
HETATM   22  O1  UNL     1      20.865   1.112  51.345  1.00  0.00    -0.341 OA
BRANCH  22  23
HETATM   23  C11 UNL     1      19.609   1.184  51.927  1.00  0.00     0.154 C 
HETATM   24  C12 UNL     1      18.591   0.326  51.220  1.00  0.00     0.061 C 
HETATM   25  C13 UNL     1      17.436   1.229  51.002  1.00  0.00     0.170 C 
HETATM   26  O2  UNL     1      17.810   2.521  51.225  1.00  0.00    -0.389 OA
HETATM   27  C14 UNL     1      19.049   2.571  51.778  1.00  0.00     0.200 C 
ENDBRANCH  22  23
ENDBRANCH  15  22
ENDBRANCH   6   8
ENDBRANCH   5   6
ENDBRANCH   4   5
TORSDOF 5
ENDMDL
MODEL 2
REMARK VINA RESULT:      -7.8      2.897      7.007
REMARK  5 active torsions:
REMARK  status: ('A' for Active; 'I' for Inactive)
REMARK    1  A    between atoms: C4_4  and  C5_5 
REMARK    2  A    between atoms: C5_5  and  N1_6 
REMARK    3  A    between atoms: N1_6  and  C6_7 
REMARK    4  A    between atoms: C10_13  and  O1_14 
REMARK    5  A    between atoms: O1_14  and  C11_15 
ROOT
HETATM    1  C1  UNL     1      22.244   2.292  48.149  1.00  0.00     0.017 C 
HETATM    2  C2  UNL     1      22.349   3.494  48.108  1.00  0.00    -0.090 C 
HETATM    3  C3  UNL     1      22.489   4.918  48.037  1.00  0.00     0.061 C 
HETATM    4  C4  UNL     1      22.039   5.755  48.939  1.00  0.00     0.001 C 
ENDROOT
BRANCH   4   5
HETATM    5  C5  UNL     1      21.307   5.548  50.212  1.00  0.00     0.149 C 
BRANCH   5   6
HETATM    6  N1  UNL     1      22.167   5.153  51.312  1.00  0.00    -0.370 N 
HETATM    7  H6  UNL     1      22.796   5.948  51.523  1.00  0.00     0.161 HD
BRANCH   6   8
HETATM    8  C6  UNL     1      21.974   3.829  51.837  1.00  0.00     0.140 A 
HETATM    9  N2  UNL     1      20.771   3.471  52.248  1.00  0.00    -0.224 NA
HETATM   10  C7  UNL     1      20.539   2.250  52.743  1.00  0.00     0.236 A 
HETATM   11  N3  UNL     1      21.504   1.318  52.853  1.00  0.00    -0.241 NA
HETATM   12  C8  UNL     1      22.773   1.606  52.451  1.00  0.00     0.077 A 
HETATM   13  C9  UNL     1      23.772   0.692  52.547  1.00  0.00     0.072 A 
HETATM   14  C17 UNL     1      22.960   2.875  51.950  1.00  0.00     0.075 A 
HETATM   15  C10 UNL     1      25.059   0.947  52.153  1.00  0.00     0.107 A 
HETATM   16  C15 UNL     1      25.246   2.232  51.646  1.00  0.00     0.136 A 
HETATM   17  C16 UNL     1      24.234   3.165  51.547  1.00  0.00     0.121 A 
HETATM   18  O4  UNL     1      26.491   2.652  51.202  1.00  0.00    -0.344 OA
HETATM   19  O3  UNL     1      24.604   4.366  51.029  1.00  0.00    -0.345 OA
HETATM   20  C18 UNL     1      25.569   4.552  50.008  1.00  0.00     0.202 C 
HETATM   21  C19 UNL     1      26.670   3.518  50.096  1.00  0.00     0.202 C 
BRANCH  15  22
HETATM   22  O1  UNL     1      26.104   0.080  52.220  1.00  0.00    -0.341 OA
BRANCH  22  23
HETATM   23  C11 UNL     1      26.614  -0.484  53.378  1.00  0.00     0.154 C 
HETATM   24  C12 UNL     1      26.971   0.547  54.419  1.00  0.00     0.061 C 
HETATM   25  C13 UNL     1      28.347   0.189  54.835  1.00  0.00     0.170 C 
HETATM   26  O2  UNL     1      28.882  -0.702  53.953  1.00  0.00    -0.389 OA
HETATM   27  C14 UNL     1      27.932  -1.149  53.092  1.00  0.00     0.200 C 
ENDBRANCH  22  23
ENDBRANCH  15  22
ENDBRANCH   6   8
ENDBRANCH   5   6
ENDBRANCH   4   5
TORSDOF 5
ENDMDL
MODEL 3
REMARK VINA RESULT:      -7.8      1.676      2.397
REMARK  5 active torsions:
REMARK  status: ('A' for Active; 'I' for Inactive)
REMARK    1  A    between atoms: C4_4  and  C5_5 
REMARK    2  A    between atoms: C5_5  and  N1_6 
REMARK    3  A    between atoms: N1_6  and  C6_7 
REMARK    4  A    between atoms: C10_13  and  O1_14 
REMARK    5  A    between atoms: O1_14  and  C11_15 
ROOT
HETATM    1  C1  UNL     1      28.667   2.477  53.411  1.00  0.00     0.017 C 
HETATM    2  C2  UNL     1      28.625   1.279  53.553  1.00  0.00    -0.090 C 
HETATM    3  C3  UNL     1      28.597  -0.142  53.732  1.00  0.00     0.061 C 
HETATM    4  C4  UNL     1      27.659  -0.932  53.272  1.00  0.00     0.001 C 
ENDROOT
BRANCH   4   5
HETATM    5  C5  UNL     1      26.428  -0.664  52.489  1.00  0.00     0.149 C 
BRANCH   5   6
HETATM    6  N1  UNL     1      25.525   0.268  53.139  1.00  0.00    -0.370 N 
HETATM    7  H6  UNL     1      25.867   1.225  52.947  1.00  0.00     0.161 HD
BRANCH   6   8
HETATM    8  C6  UNL     1      24.423  -0.303  53.863  1.00  0.00     0.140 A 
HETATM    9  N2  UNL     1      24.666  -1.017  54.947  1.00  0.00    -0.224 NA
HETATM   10  C7  UNL     1      23.676  -1.568  55.655  1.00  0.00     0.236 A 
HETATM   11  N3  UNL     1      22.381  -1.432  55.317  1.00  0.00    -0.241 NA
HETATM   12  C8  UNL     1      22.041  -0.710  54.212  1.00  0.00     0.077 A 
HETATM   13  C9  UNL     1      20.746  -0.552  53.839  1.00  0.00     0.072 A 
HETATM   14  C17 UNL     1      23.097  -0.165  53.516  1.00  0.00     0.075 A 
HETATM   15  C10 UNL     1      20.369   0.167  52.735  1.00  0.00     0.107 A 
HETATM   16  C15 UNL     1      21.439   0.718  52.033  1.00  0.00     0.136 A 
HETATM   17  C16 UNL     1      22.757   0.560  52.408  1.00  0.00     0.121 A 
HETATM   18  O4  UNL     1      21.230   1.476  50.890  1.00  0.00    -0.344 OA
HETATM   19  O3  UNL     1      23.665   1.169  51.600  1.00  0.00    -0.345 OA
HETATM   20  C18 UNL     1      23.470   2.408  50.941  1.00  0.00     0.202 C 
HETATM   21  C19 UNL     1      22.022   2.599  50.547  1.00  0.00     0.202 C 
BRANCH  15  22
HETATM   22  O1  UNL     1      19.095   0.365  52.306  1.00  0.00    -0.341 OA
BRANCH  22  23
HETATM   23  C11 UNL     1      18.202  -0.627  51.933  1.00  0.00     0.154 C 
HETATM   24  C12 UNL     1      17.259  -0.181  50.845  1.00  0.00     0.061 C 
HETATM   25  C13 UNL     1      15.916  -0.559  51.344  1.00  0.00     0.170 C 
HETATM   26  O2  UNL     1      15.985  -0.871  52.669  1.00  0.00    -0.389 OA
HETATM   27  C14 UNL     1      17.278  -0.947  53.075  1.00  0.00     0.200 C 
ENDBRANCH  22  23
ENDBRANCH  15  22
ENDBRANCH   6   8
ENDBRANCH   5   6
ENDBRANCH   4   5
TORSDOF 5
ENDMDL
MODEL 4
REMARK VINA RESULT:      -7.8      1.777      3.224
REMARK  5 active torsions:
REMARK  status: ('A' for Active; 'I' for Inactive)
REMARK    1  A    between atoms: C4_4  and  C5_5 
REMARK    2  A    between atoms: C5_5  and  N1_6 
REMARK    3  A    between atoms: N1_6  and  C6_7 
REMARK    4  A    between atoms: C10_13  and  O1_14 
REMARK    5  A    between atoms: O1_14  and  C11_15 
ROOT
HETATM    1  C1  UNL     1      27.199  -2.179  52.505  1.00  0.00     0.017 C 
HETATM    2  C2  UNL     1      28.153  -1.658  53.031  1.00  0.00    -0.090 C 
HETATM    3  C3  UNL     1      29.293  -1.062  53.663  1.00  0.00     0.061 C 
HETATM    4  C4  UNL     1      29.496   0.227  53.768  1.00  0.00     0.001 C 
ENDROOT
BRANCH   4   5
HETATM    5  C5  UNL     1      28.705   1.399  53.320  1.00  0.00     0.149 C 
BRANCH   5   6
HETATM    6  N1  UNL     1      27.273   1.160  53.319  1.00  0.00    -0.370 N 
HETATM    7  H6  UNL     1      27.058   0.529  54.110  1.00  0.00     0.161 HD
BRANCH   6   8
HETATM    8  C6  UNL     1      26.514   1.807  52.285  1.00  0.00     0.140 A 
HETATM    9  N2  UNL     1      27.149   2.519  51.372  1.00  0.00    -0.224 NA
HETATM   10  C7  UNL     1      26.488   3.140  50.389  1.00  0.00     0.236 A 
HETATM   11  N3  UNL     1      25.150   3.079  50.265  1.00  0.00    -0.241 NA
HETATM   12  C8  UNL     1      24.418   2.364  51.165  1.00  0.00     0.077 A 
HETATM   13  C9  UNL     1      23.066   2.281  51.073  1.00  0.00     0.072 A 
HETATM   14  C17 UNL     1      25.145   1.746  52.158  1.00  0.00     0.075 A 
HETATM   15  C10 UNL     1      22.299   1.571  51.959  1.00  0.00     0.107 A 
HETATM   16  C15 UNL     1      23.037   0.946  52.963  1.00  0.00     0.136 A 
HETATM   17  C16 UNL     1      24.411   1.028  53.061  1.00  0.00     0.121 A 
HETATM   18  O4  UNL     1      22.413   0.186  53.942  1.00  0.00    -0.344 OA
HETATM   19  O3  UNL     1      24.957   0.353  54.107  1.00  0.00    -0.345 OA
HETATM   20  C18 UNL     1      24.483  -0.880  54.619  1.00  0.00     0.202 C 
HETATM   21  C19 UNL     1      22.980  -0.987  54.494  1.00  0.00     0.202 C 
BRANCH  15  22
HETATM   22  O1  UNL     1      20.946   1.446  51.925  1.00  0.00    -0.341 OA
BRANCH  22  23
HETATM   23  C11 UNL     1      20.242   0.450  51.269  1.00  0.00     0.154 C 
HETATM   24  C12 UNL     1      19.411   0.981  50.128  1.00  0.00     0.061 C 
HETATM   25  C13 UNL     1      18.067   0.394  50.347  1.00  0.00     0.170 C 
HETATM   26  O2  UNL     1      17.990  -0.131  51.602  1.00  0.00    -0.389 OA
HETATM   27  C14 UNL     1      19.215  -0.149  52.189  1.00  0.00     0.200 C 
ENDBRANCH  22  23
ENDBRANCH  15  22
ENDBRANCH   6   8
ENDBRANCH   5   6
ENDBRANCH   4   5
TORSDOF 5
ENDMDL
MODEL 5
REMARK VINA RESULT:      -7.8      2.695      7.446
REMARK  5 active torsions:
REMARK  status: ('A' for Active; 'I' for Inactive)
REMARK    1  A    between atoms: C4_4  and  C5_5 
REMARK    2  A    between atoms: C5_5  and  N1_6 
REMARK    3  A    between atoms: N1_6  and  C6_7 
REMARK    4  A    between atoms: C10_13  and  O1_14 
REMARK    5  A    between atoms: O1_14  and  C11_15 
ROOT
HETATM    1  C1  UNL     1      22.584   2.175  47.883  1.00  0.00     0.017 C 
HETATM    2  C2  UNL     1      21.670   1.763  48.554  1.00  0.00    -0.090 C 
HETATM    3  C3  UNL     1      20.582   1.254  49.337  1.00  0.00     0.061 C 
HETATM    4  C4  UNL     1      20.034   1.884  50.346  1.00  0.00     0.001 C 
ENDROOT
BRANCH   4   5
HETATM    5  C5  UNL     1      20.313   3.201  50.968  1.00  0.00     0.149 C 
BRANCH   5   6
HETATM    6  N1  UNL     1      21.310   3.139  52.021  1.00  0.00    -0.370 N 
HETATM    7  H6  UNL     1      20.815   2.984  52.916  1.00  0.00     0.161 HD
BRANCH   6   8
HETATM    8  C6  UNL     1      22.680   3.299  51.619  1.00  0.00     0.140 A 
HETATM    9  N2  UNL     1      23.043   4.405  50.996  1.00  0.00    -0.224 NA
HETATM   10  C7  UNL     1      24.305   4.602  50.604  1.00  0.00     0.236 A 
HETATM   11  N3  UNL     1      25.279   3.698  50.815  1.00  0.00    -0.241 NA
HETATM   12  C8  UNL     1      24.990   2.528  51.452  1.00  0.00     0.077 A 
HETATM   13  C9  UNL     1      25.946   1.592  51.683  1.00  0.00     0.072 A 
HETATM   14  C17 UNL     1      23.677   2.374  51.835  1.00  0.00     0.075 A 
HETATM   15  C10 UNL     1      25.692   0.406  52.321  1.00  0.00     0.107 A 
HETATM   16  C15 UNL     1      24.362   0.252  52.707  1.00  0.00     0.136 A 
HETATM   17  C16 UNL     1      23.387   1.200  52.475  1.00  0.00     0.121 A 
HETATM   18  O4  UNL     1      23.936  -0.893  53.366  1.00  0.00    -0.344 OA
HETATM   19  O3  UNL     1      22.146   0.875  52.923  1.00  0.00    -0.345 OA
HETATM   20  C18 UNL     1      21.870   0.142  54.104  1.00  0.00     0.202 C 
HETATM   21  C19 UNL     1      22.946  -0.884  54.378  1.00  0.00     0.202 C 
BRANCH  15  22
HETATM   22  O1  UNL     1      26.598  -0.571  52.584  1.00  0.00    -0.341 OA
BRANCH  22  23
HETATM   23  C11 UNL     1      27.424  -0.632  53.694  1.00  0.00     0.154 C 
HETATM   24  C12 UNL     1      27.506   0.681  54.431  1.00  0.00     0.061 C 
HETATM   25  C13 UNL     1      28.958   0.913  54.612  1.00  0.00     0.170 C 
HETATM   26  O2  UNL     1      29.666   0.061  53.817  1.00  0.00    -0.389 OA
HETATM   27  C14 UNL     1      28.846  -0.873  53.269  1.00  0.00     0.200 C 
ENDBRANCH  22  23
ENDBRANCH  15  22
ENDBRANCH   6   8
ENDBRANCH   5   6
ENDBRANCH   4   5
TORSDOF 5
ENDMDL
MODEL 6
REMARK VINA RESULT:      -7.7      2.260      3.468
REMARK  5 active torsions:
REMARK  status: ('A' for Active; 'I' for Inactive)
REMARK    1  A    between atoms: C4_4  and  C5_5 
REMARK    2  A    between atoms: C5_5  and  N1_6 
REMARK    3  A    between atoms: N1_6  and  C6_7 
REMARK    4  A    between atoms: C10_13  and  O1_14 
REMARK    5  A    between atoms: O1_14  and  C11_15 
ROOT
HETATM    1  C1  UNL     1      26.731   5.406  49.220  1.00  0.00     0.017 C 
HETATM    2  C2  UNL     1      26.531   4.225  49.366  1.00  0.00    -0.090 C 
HETATM    3  C3  UNL     1      26.283   2.822  49.516  1.00  0.00     0.061 C 
HETATM    4  C4  UNL     1      26.501   2.141  50.614  1.00  0.00     0.001 C 
ENDROOT
BRANCH   4   5
HETATM    5  C5  UNL     1      27.022   2.538  51.944  1.00  0.00     0.149 C 
BRANCH   5   6
HETATM    6  N1  UNL     1      25.981   2.724  52.938  1.00  0.00    -0.370 N 
HETATM    7  H6  UNL     1      25.962   3.727  53.192  1.00  0.00     0.161 HD
BRANCH   6   8
HETATM    8  C6  UNL     1      25.248   1.551  53.329  1.00  0.00     0.140 A 
HETATM    9  N2  UNL     1      25.888   0.564  53.929  1.00  0.00    -0.224 NA
HETATM   10  C7  UNL     1      25.252  -0.547  54.314  1.00  0.00     0.236 A 
HETATM   11  N3  UNL     1      23.934  -0.731  54.118  1.00  0.00    -0.241 NA
HETATM   12  C8  UNL     1      23.198   0.239  53.506  1.00  0.00     0.077 A 
HETATM   13  C9  UNL     1      21.865   0.088  53.291  1.00  0.00     0.072 A 
HETATM   14  C17 UNL     1      23.899   1.362  53.129  1.00  0.00     0.075 A 
HETATM   15  C10 UNL     1      21.095   1.042  52.680  1.00  0.00     0.107 A 
HETATM   16  C15 UNL     1      21.807   2.178  52.299  1.00  0.00     0.136 A 
HETATM   17  C16 UNL     1      23.161   2.335  52.515  1.00  0.00     0.121 A 
HETATM   18  O4  UNL     1      21.176   3.240  51.667  1.00  0.00    -0.344 OA
HETATM   19  O3  UNL     1      23.684   3.510  52.074  1.00  0.00    -0.345 OA
HETATM   20  C18 UNL     1      23.017   4.760  52.097  1.00  0.00     0.202 C 
HETATM   21  C19 UNL     1      21.529   4.594  51.884  1.00  0.00     0.202 C 
BRANCH  15  22
HETATM   22  O1  UNL     1      19.761   0.957  52.435  1.00  0.00    -0.341 OA
BRANCH  22  23
HETATM   23  C11 UNL     1      19.108  -0.130  51.878  1.00  0.00     0.154 C 
HETATM   24  C12 UNL     1      18.052   0.273  50.881  1.00  0.00     0.061 C 
HETATM   25  C13 UNL     1      16.848  -0.488  51.289  1.00  0.00     0.170 C 
HETATM   26  O2  UNL     1      17.031  -1.008  52.536  1.00  0.00    -0.389 OA
HETATM   27  C14 UNL     1      18.320  -0.855  52.934  1.00  0.00     0.200 C 
ENDBRANCH  22  23
ENDBRANCH  15  22
ENDBRANCH   6   8
ENDBRANCH   5   6
ENDBRANCH   4   5
TORSDOF 5
ENDMDL
MODEL 7
REMARK VINA RESULT:      -7.5      2.697      7.974
REMARK  5 active torsions:
REMARK  status: ('A' for Active; 'I' for Inactive)
REMARK    1  A    between atoms: C4_4  and  C5_5 
REMARK    2  A    between atoms: C5_5  and  N1_6 
REMARK    3  A    between atoms: N1_6  and  C6_7 
REMARK    4  A    between atoms: C10_13  and  O1_14 
REMARK    5  A    between atoms: O1_14  and  C11_15 
ROOT
HETATM    1  C1  UNL     1      17.730  -0.850  52.234  1.00  0.00     0.017 C 
HETATM    2  C2  UNL     1      17.458   0.278  51.904  1.00  0.00    -0.090 C 
HETATM    3  C3  UNL     1      17.110   1.613  51.515  1.00  0.00     0.061 C 
HETATM    4  C4  UNL     1      17.965   2.510  51.089  1.00  0.00     0.001 C 
ENDROOT
BRANCH   4   5
HETATM    5  C5  UNL     1      19.432   2.467  50.882  1.00  0.00     0.149 C 
BRANCH   5   6
HETATM    6  N1  UNL     1      20.190   2.521  52.119  1.00  0.00    -0.370 N 
HETATM    7  H6  UNL     1      19.586   2.154  52.875  1.00  0.00     0.161 HD
BRANCH   6   8
HETATM    8  C6  UNL     1      21.527   3.040  52.032  1.00  0.00     0.140 A 
HETATM    9  N2  UNL     1      21.719   4.240  51.517  1.00  0.00    -0.224 NA
HETATM   10  C7  UNL     1      22.943   4.768  51.415  1.00  0.00     0.236 A 
HETATM   11  N3  UNL     1      24.047   4.119  51.828  1.00  0.00    -0.241 NA
HETATM   12  C8  UNL     1      23.939   2.875  52.372  1.00  0.00     0.077 A 
HETATM   13  C9  UNL     1      25.030   2.190  52.799  1.00  0.00     0.072 A 
HETATM   14  C17 UNL     1      22.658   2.376  52.454  1.00  0.00     0.075 A 
HETATM   15  C10 UNL     1      24.958   0.938  53.352  1.00  0.00     0.107 A 
HETATM   16  C15 UNL     1      23.661   0.436  53.433  1.00  0.00     0.136 A 
HETATM   17  C16 UNL     1      22.548   1.128  53.000  1.00  0.00     0.121 A 
HETATM   18  O4  UNL     1      23.412  -0.820  53.969  1.00  0.00    -0.344 OA
HETATM   19  O3  UNL     1      21.365   0.478  53.159  1.00  0.00    -0.345 OA
HETATM   20  C18 UNL     1      21.042  -0.377  54.242  1.00  0.00     0.202 C 
HETATM   21  C19 UNL     1      22.262  -1.123  54.737  1.00  0.00     0.202 C 
BRANCH  15  22
HETATM   22  O1  UNL     1      26.007   0.199  53.799  1.00  0.00    -0.341 OA
BRANCH  22  23
HETATM   23  C11 UNL     1      27.288   0.209  53.271  1.00  0.00     0.154 C 
HETATM   24  C12 UNL     1      27.786  -1.172  52.928  1.00  0.00     0.061 C 
HETATM   25  C13 UNL     1      29.127  -1.246  53.553  1.00  0.00     0.170 C 
HETATM   26  O2  UNL     1      29.288  -0.213  54.428  1.00  0.00    -0.389 OA
HETATM   27  C14 UNL     1      28.271   0.678  54.307  1.00  0.00     0.200 C 
ENDBRANCH  22  23
ENDBRANCH  15  22
ENDBRANCH   6   8
ENDBRANCH   5   6
ENDBRANCH   4   5
TORSDOF 5
ENDMDL
MODEL 8
REMARK VINA RESULT:      -7.4      1.667      2.358
REMARK  5 active torsions:
REMARK  status: ('A' for Active; 'I' for Inactive)
REMARK    1  A    between atoms: C4_4  and  C5_5 
REMARK    2  A    between atoms: C5_5  and  N1_6 
REMARK    3  A    between atoms: N1_6  and  C6_7 
REMARK    4  A    between atoms: C10_13  and  O1_14 
REMARK    5  A    between atoms: O1_14  and  C11_15 
ROOT
HETATM    1  C1  UNL     1      28.631   2.440  53.548  1.00  0.00     0.017 C 
HETATM    2  C2  UNL     1      28.459   1.246  53.570  1.00  0.00    -0.090 C 
HETATM    3  C3  UNL     1      28.278  -0.175  53.608  1.00  0.00     0.061 C 
HETATM    4  C4  UNL     1      27.262  -0.810  53.077  1.00  0.00     0.001 C 
ENDROOT
BRANCH   4   5
HETATM    5  C5  UNL     1      26.071  -0.335  52.332  1.00  0.00     0.149 C 
BRANCH   5   6
HETATM    6  N1  UNL     1      25.302   0.662  53.053  1.00  0.00    -0.370 N 
HETATM    7  H6  UNL     1      25.864   1.530  53.088  1.00  0.00     0.161 HD
BRANCH   6   8
HETATM    8  C6  UNL     1      24.010   0.255  53.532  1.00  0.00     0.140 A 
HETATM    9  N2  UNL     1      23.919  -0.810  54.309  1.00  0.00    -0.224 NA
HETATM   10  C7  UNL     1      22.740  -1.229  54.781  1.00  0.00     0.236 A 
HETATM   11  N3  UNL     1      21.583  -0.601  54.502  1.00  0.00    -0.241 NA
HETATM   12  C8  UNL     1      21.588   0.507  53.708  1.00  0.00     0.077 A 
HETATM   13  C9  UNL     1      20.441   1.166  53.403  1.00  0.00     0.072 A 
HETATM   14  C17 UNL     1      22.826   0.896  53.246  1.00  0.00     0.075 A 
HETATM   15  C10 UNL     1      20.409   2.282  52.609  1.00  0.00     0.107 A 
HETATM   16  C15 UNL     1      21.663   2.674  52.144  1.00  0.00     0.136 A 
HETATM   17  C16 UNL     1      22.831   2.007  52.450  1.00  0.00     0.121 A 
HETATM   18  O4  UNL     1      21.806   3.787  51.327  1.00  0.00    -0.344 OA
HETATM   19  O3  UNL     1      23.958   2.536  51.904  1.00  0.00    -0.345 OA
HETATM   20  C18 UNL     1      24.199   3.919  51.706  1.00  0.00     0.202 C 
HETATM   21  C19 UNL     1      22.918   4.660  51.392  1.00  0.00     0.202 C 
BRANCH  15  22
HETATM   22  O1  UNL     1      19.300   2.988  52.266  1.00  0.00    -0.341 OA
BRANCH  22  23
HETATM   23  C11 UNL     1      18.274   2.539  51.451  1.00  0.00     0.154 C 
HETATM   24  C12 UNL     1      18.775   1.951  50.157  1.00  0.00     0.061 C 
HETATM   25  C13 UNL     1      17.962   2.616  49.111  1.00  0.00     0.170 C 
HETATM   26  O2  UNL     1      17.310   3.688  49.643  1.00  0.00    -0.389 OA
HETATM   27  C14 UNL     1      17.430   3.697  50.996  1.00  0.00     0.200 C 
ENDBRANCH  22  23
ENDBRANCH  15  22
ENDBRANCH   6   8
ENDBRANCH   5   6
ENDBRANCH   4   5
TORSDOF 5
ENDMDL
MODEL 9
REMARK VINA RESULT:      -7.3      3.049      6.755
REMARK  5 active torsions:
REMARK  status: ('A' for Active; 'I' for Inactive)
REMARK    1  A    between atoms: C4_4  and  C5_5 
REMARK    2  A    between atoms: C5_5  and  N1_6 
REMARK    3  A    between atoms: N1_6  and  C6_7 
REMARK    4  A    between atoms: C10_13  and  O1_14 
REMARK    5  A    between atoms: O1_14  and  C11_15 
ROOT
HETATM    1  C1  UNL     1      23.696  -1.420  55.606  1.00  0.00     0.017 C 
HETATM    2  C2  UNL     1      22.614  -1.162  55.136  1.00  0.00    -0.090 C 
HETATM    3  C3  UNL     1      21.319  -0.867  54.599  1.00  0.00     0.061 C 
HETATM    4  C4  UNL     1      21.107  -0.309  53.433  1.00  0.00     0.001 C 
ENDROOT
BRANCH   4   5
HETATM    5  C5  UNL     1      22.030   0.165  52.374  1.00  0.00     0.149 C 
BRANCH   5   6
HETATM    6  N1  UNL     1      22.754   1.368  52.738  1.00  0.00    -0.370 N 
HETATM    7  H6  UNL     1      22.086   2.014  53.192  1.00  0.00     0.161 HD
BRANCH   6   8
HETATM    8  C6  UNL     1      24.153   1.402  52.410  1.00  0.00     0.140 A 
HETATM    9  N2  UNL     1      24.978   0.579  53.031  1.00  0.00    -0.224 NA
HETATM   10  C7  UNL     1      26.288   0.570  52.761  1.00  0.00     0.236 A 
HETATM   11  N3  UNL     1      26.845   1.387  51.849  1.00  0.00    -0.241 NA
HETATM   12  C8  UNL     1      26.064   2.267  51.161  1.00  0.00     0.077 A 
HETATM   13  C9  UNL     1      26.590   3.107  50.234  1.00  0.00     0.072 A 
HETATM   14  C17 UNL     1      24.724   2.238  51.477  1.00  0.00     0.075 A 
HETATM   15  C10 UNL     1      25.835   4.004  49.524  1.00  0.00     0.107 A 
HETATM   16  C15 UNL     1      24.479   3.972  49.845  1.00  0.00     0.136 A 
HETATM   17  C16 UNL     1      23.940   3.120  50.787  1.00  0.00     0.121 A 
HETATM   18  O4  UNL     1      23.575   4.817  49.217  1.00  0.00    -0.344 OA
HETATM   19  O3  UNL     1      22.597   3.233  50.967  1.00  0.00    -0.345 OA
HETATM   20  C18 UNL     1      21.658   3.521  49.945  1.00  0.00     0.202 C 
HETATM   21  C19 UNL     1      22.249   4.436  48.896  1.00  0.00     0.202 C 
BRANCH  15  22
HETATM   22  O1  UNL     1      26.295   4.870  48.584  1.00  0.00    -0.341 OA
BRANCH  22  23
HETATM   23  C11 UNL     1      27.120   5.958  48.820  1.00  0.00     0.154 C 
HETATM   24  C12 UNL     1      26.734   7.168  48.009  1.00  0.00     0.061 C 
HETATM   25  C13 UNL     1      28.002   7.616  47.388  1.00  0.00     0.170 C 
HETATM   26  O2  UNL     1      28.949   6.643  47.514  1.00  0.00    -0.389 OA
HETATM   27  C14 UNL     1      28.516   5.661  48.345  1.00  0.00     0.200 C 
ENDBRANCH  22  23
ENDBRANCH  15  22
ENDBRANCH   6   8
ENDBRANCH   5   6
ENDBRANCH   4   5
TORSDOF 5
ENDMDL
