MODEL 1
REMARK VINA RESULT:      -8.8      0.000      0.000
REMARK  2 active torsions:
REMARK  status: ('A' for Active; 'I' for Inactive)
REMARK    1  A    between atoms: C5_6  and  N1_7 
REMARK    2  A    between atoms: N1_7  and  C6_8 
ROOT
HETATM    1  C6  UNL     1      25.039   3.689  50.831  1.00  0.00     0.172 C 
HETATM    2  N2  UNL     1      24.060   3.709  51.677  1.00  0.00    -0.114 NA
HETATM    3  O1  UNL     1      24.118   2.607  52.609  1.00  0.00    -0.255 OA
HETATM    4  C7  UNL     1      23.126   1.653  52.485  1.00  0.00     0.204 C 
HETATM    5  C8  UNL     1      23.176   0.493  53.364  1.00  0.00     0.033 C 
HETATM    6  C9  UNL     1      24.240  -0.495  53.360  1.00  0.00     0.043 C 
HETATM    7  C10 UNL     1      25.546  -0.294  53.917  1.00  0.00    -0.033 C 
HETATM    8  C11 UNL     1      26.281   0.055  54.953  1.00  0.00     0.123 C 
HETATM    9  N3  UNL     1      27.672   0.131  55.244  1.00  0.00    -0.276 NA
HETATM   10  C12 UNL     1      28.470  -0.266  54.277  1.00  0.00     0.093 C 
HETATM   11  C13 UNL     1      27.807  -0.781  52.988  1.00  0.00     0.087 C 
HETATM   12  C14 UNL     1      26.574  -0.012  52.843  1.00  0.00    -0.028 C 
HETATM   13  C15 UNL     1      26.797   0.868  51.881  1.00  0.00     0.124 C 
HETATM   14  N4  UNL     1      25.934   1.947  51.627  1.00  0.00    -0.269 NA
HETATM   15  C16 UNL     1      26.176   2.779  50.684  1.00  0.00     0.168 C 
ENDROOT
BRANCH   1  16
HETATM   16  N1  UNL     1      24.939   4.779  49.933  1.00  0.00    -0.338 N 
HETATM   17  H4  UNL     1      24.091   4.949  49.345  1.00  0.00     0.167 HD
BRANCH  16  18
HETATM   18  C5  UNL     1      25.830   5.830  49.597  1.00  0.00     0.035 A 
HETATM   19  C4  UNL     1      25.476   6.983  50.299  1.00  0.00     0.029 A 
HETATM   20  C3  UNL     1      26.206   8.150  50.095  1.00  0.00     0.004 A 
HETATM   21  C2  UNL     1      27.242   8.091  49.204  1.00  0.00     0.024 A 
HETATM   22  C1  UNL     1      27.590   6.936  48.506  1.00  0.00     0.036 A 
HETATM   23 CL1  UNL     1      28.904   6.816  47.351  1.00  0.00    -0.084 Cl
HETATM   24  C17 UNL     1      26.870   5.775  48.703  1.00  0.00     0.053 A 
ENDBRANCH  16  18
ENDBRANCH   1  16
TORSDOF 2
ENDMDL
MODEL 2
REMARK VINA RESULT:      -8.5      1.077      1.222
REMARK  2 active torsions:
REMARK  status: ('A' for Active; 'I' for Inactive)
REMARK    1  A    between atoms: C5_6  and  N1_7 
REMARK    2  A    between atoms: N1_7  and  C6_8 
ROOT
HETATM    1  C6  UNL     1      25.465   4.047  50.331  1.00  0.00     0.172 C 
HETATM    2  N2  UNL     1      24.488   4.272  51.148  1.00  0.00    -0.114 NA
HETATM    3  O1  UNL     1      24.361   3.238  52.149  1.00  0.00    -0.255 OA
HETATM    4  C7  UNL     1      23.237   2.440  52.060  1.00  0.00     0.204 C 
HETATM    5  C8  UNL     1      23.093   1.347  53.010  1.00  0.00     0.033 C 
HETATM    6  C9  UNL     1      23.993   0.210  53.097  1.00  0.00     0.043 C 
HETATM    7  C10 UNL     1      25.305   0.247  53.674  1.00  0.00    -0.033 C 
HETATM    8  C11 UNL     1      26.068   0.548  54.705  1.00  0.00     0.123 C 
HETATM    9  N3  UNL     1      27.450   0.431  55.027  1.00  0.00    -0.276 NA
HETATM   10  C12 UNL     1      28.192  -0.146  54.108  1.00  0.00     0.093 C 
HETATM   11  C13 UNL     1      27.479  -0.639  52.837  1.00  0.00     0.087 C 
HETATM   12  C14 UNL     1      26.381   0.298  52.612  1.00  0.00    -0.028 C 
HETATM   13  C15 UNL     1      26.752   1.067  51.602  1.00  0.00     0.124 C 
HETATM   14  N4  UNL     1      26.070   2.246  51.258  1.00  0.00    -0.269 NA
HETATM   15  C16 UNL     1      26.451   2.967  50.272  1.00  0.00     0.168 C 
ENDROOT
BRANCH   1  16
HETATM   16  N1  UNL     1      25.549   5.078  49.364  1.00  0.00    -0.338 N 
HETATM   17  H4  UNL     1      24.702   5.524  48.942  1.00  0.00     0.167 HD
BRANCH  16  18
HETATM   18  C5  UNL     1      26.648   5.733  48.752  1.00  0.00     0.035 A 
HETATM   19  C4  UNL     1      26.236   6.972  48.260  1.00  0.00     0.029 A 
HETATM   20  C3  UNL     1      27.155   7.774  47.590  1.00  0.00     0.004 A 
HETATM   21  C2  UNL     1      28.427   7.287  47.456  1.00  0.00     0.024 A 
HETATM   22  C1  UNL     1      28.831   6.048  47.949  1.00  0.00     0.036 A 
HETATM   23 CL1  UNL     1      30.446   5.382  47.793  1.00  0.00    -0.084 Cl
HETATM   24  C17 UNL     1      27.924   5.248  48.614  1.00  0.00     0.053 A 
ENDBRANCH  16  18
ENDBRANCH   1  16
TORSDOF 2
ENDMDL
MODEL 3
REMARK VINA RESULT:      -8.1      2.443      2.774
REMARK  2 active torsions:
REMARK  status: ('A' for Active; 'I' for Inactive)
REMARK    1  A    between atoms: C5_6  and  N1_7 
REMARK    2  A    between atoms: N1_7  and  C6_8 
ROOT
HETATM    1  C6  UNL     1      24.843   3.774  50.965  1.00  0.00     0.172 C 
HETATM    2  N2  UNL     1      23.905   3.773  51.856  1.00  0.00    -0.114 NA
HETATM    3  O1  UNL     1      23.982   2.627  52.732  1.00  0.00    -0.255 OA
HETATM    4  C7  UNL     1      22.964   1.700  52.611  1.00  0.00     0.204 C 
HETATM    5  C8  UNL     1      23.028   0.499  53.431  1.00  0.00     0.033 C 
HETATM    6  C9  UNL     1      24.069  -0.509  53.331  1.00  0.00     0.043 C 
HETATM    7  C10 UNL     1      25.403  -0.361  53.835  1.00  0.00    -0.033 C 
HETATM    8  C11 UNL     1      26.193  -0.077  54.850  1.00  0.00     0.123 C 
HETATM    9  N3  UNL     1      27.597  -0.042  55.079  1.00  0.00    -0.276 NA
HETATM   10  C12 UNL     1      28.340  -0.408  54.058  1.00  0.00     0.093 C 
HETATM   11  C13 UNL     1      27.607  -0.848  52.779  1.00  0.00     0.087 C 
HETATM   12  C14 UNL     1      26.386  -0.049  52.728  1.00  0.00    -0.028 C 
HETATM   13  C15 UNL     1      26.584   0.871  51.798  1.00  0.00     0.124 C 
HETATM   14  N4  UNL     1      25.735   1.979  51.636  1.00  0.00    -0.269 NA
HETATM   15  C16 UNL     1      25.952   2.849  50.723  1.00  0.00     0.168 C 
ENDROOT
BRANCH   1  16
HETATM   16  N1  UNL     1      24.726   4.908  50.125  1.00  0.00    -0.338 N 
HETATM   17  H4  UNL     1      25.269   5.787  50.287  1.00  0.00     0.167 HD
BRANCH  16  18
HETATM   18  C5  UNL     1      23.948   5.168  48.968  1.00  0.00     0.035 A 
HETATM   19  C4  UNL     1      24.215   6.459  48.510  1.00  0.00     0.029 A 
HETATM   20  C3  UNL     1      23.533   6.935  47.394  1.00  0.00     0.004 A 
HETATM   21  C2  UNL     1      22.630   6.092  46.807  1.00  0.00     0.024 A 
HETATM   22  C1  UNL     1      22.368   4.804  47.271  1.00  0.00     0.036 A 
HETATM   23 CL1  UNL     1      21.215   3.692  46.557  1.00  0.00    -0.084 Cl
HETATM   24  C17 UNL     1      23.041   4.326  48.377  1.00  0.00     0.053 A 
ENDBRANCH  16  18
ENDBRANCH   1  16
TORSDOF 2
ENDMDL
MODEL 4
REMARK VINA RESULT:      -7.8      3.665      6.938
REMARK  2 active torsions:
REMARK  status: ('A' for Active; 'I' for Inactive)
REMARK    1  A    between atoms: C5_6  and  N1_7 
REMARK    2  A    between atoms: N1_7  and  C6_8 
ROOT
HETATM    1  C6  UNL     1      25.088   1.838  52.836  1.00  0.00     0.172 C 
HETATM    2  N2  UNL     1      25.225   2.899  52.108  1.00  0.00    -0.114 NA
HETATM    3  O1  UNL     1      24.106   3.101  51.217  1.00  0.00    -0.255 OA
HETATM    4  C7  UNL     1      24.366   2.941  49.869  1.00  0.00     0.204 C 
HETATM    5  C8  UNL     1      23.257   3.077  48.936  1.00  0.00     0.033 C 
HETATM    6  C9  UNL     1      22.101   2.198  48.901  1.00  0.00     0.043 C 
HETATM    7  C10 UNL     1      21.022   2.228  49.844  1.00  0.00    -0.033 C 
HETATM    8  C11 UNL     1      20.095   2.928  50.466  1.00  0.00     0.123 C 
HETATM    9  N3  UNL     1      19.060   2.656  51.403  1.00  0.00    -0.276 NA
HETATM   10  C12 UNL     1      18.932   1.393  51.746  1.00  0.00     0.093 C 
HETATM   11  C13 UNL     1      19.884   0.385  51.077  1.00  0.00     0.087 C 
HETATM   12  C14 UNL     1      21.133   1.109  50.856  1.00  0.00    -0.028 C 
HETATM   13  C15 UNL     1      21.982   0.669  51.770  1.00  0.00     0.124 C 
HETATM   14  N4  UNL     1      23.205   1.307  52.036  1.00  0.00    -0.269 NA
HETATM   15  C16 UNL     1      24.008   0.855  52.924  1.00  0.00     0.168 C 
ENDROOT
BRANCH   1  16
HETATM   16  N1  UNL     1      26.208   1.674  53.687  1.00  0.00    -0.338 N 
HETATM   17  H4  UNL     1      26.344   2.243  54.555  1.00  0.00     0.167 HD
BRANCH  16  18
HETATM   18  C5  UNL     1      27.334   0.814  53.636  1.00  0.00     0.035 A 
HETATM   19  C4  UNL     1      28.493   1.548  53.897  1.00  0.00     0.029 A 
HETATM   20  C3  UNL     1      29.724   0.900  53.867  1.00  0.00     0.004 A 
HETATM   21  C2  UNL     1      29.720  -0.437  53.580  1.00  0.00     0.024 A 
HETATM   22  C1  UNL     1      28.560  -1.164  53.321  1.00  0.00     0.036 A 
HETATM   23 CL1  UNL     1      28.507  -2.875  52.941  1.00  0.00    -0.084 Cl
HETATM   24  C17 UNL     1      27.335  -0.528  53.348  1.00  0.00     0.053 A 
ENDBRANCH  16  18
ENDBRANCH   1  16
TORSDOF 2
ENDMDL
MODEL 5
REMARK VINA RESULT:      -7.4      4.019      7.466
REMARK  2 active torsions:
REMARK  status: ('A' for Active; 'I' for Inactive)
REMARK    1  A    between atoms: C5_6  and  N1_7 
REMARK    2  A    between atoms: N1_7  and  C6_8 
ROOT
HETATM    1  C6  UNL     1      23.320   0.812  52.808  1.00  0.00     0.172 C 
HETATM    2  N2  UNL     1      23.674   1.872  52.157  1.00  0.00    -0.114 NA
HETATM    3  O1  UNL     1      22.669   2.297  51.211  1.00  0.00    -0.255 OA
HETATM    4  C7  UNL     1      22.998   2.165  49.875  1.00  0.00     0.204 C 
HETATM    5  C8  UNL     1      21.996   2.525  48.883  1.00  0.00     0.033 C 
HETATM    6  C9  UNL     1      20.721   1.847  48.720  1.00  0.00     0.043 C 
HETATM    7  C10 UNL     1      19.594   2.002  49.592  1.00  0.00    -0.033 C 
HETATM    8  C11 UNL     1      18.746   2.810  50.195  1.00  0.00     0.123 C 
HETATM    9  N3  UNL     1      17.615   2.661  51.046  1.00  0.00    -0.276 NA
HETATM   10  C12 UNL     1      17.266   1.419  51.301  1.00  0.00     0.093 C 
HETATM   11  C13 UNL     1      18.094   0.307  50.634  1.00  0.00     0.087 C 
HETATM   12  C14 UNL     1      19.454   0.830  50.538  1.00  0.00    -0.028 C 
HETATM   13  C15 UNL     1      20.155   0.214  51.475  1.00  0.00     0.124 C 
HETATM   14  N4  UNL     1      21.440   0.632  51.858  1.00  0.00    -0.269 NA
HETATM   15  C16 UNL     1      22.095   0.012  52.766  1.00  0.00     0.168 C 
ENDROOT
BRANCH   1  16
HETATM   16  N1  UNL     1      24.335   0.426  53.717  1.00  0.00    -0.338 N 
HETATM   17  H4  UNL     1      24.134   0.178  54.713  1.00  0.00     0.167 HD
BRANCH  16  18
HETATM   18  C5  UNL     1      25.739   0.279  53.582  1.00  0.00     0.035 A 
HETATM   19  C4  UNL     1      26.024  -0.966  53.019  1.00  0.00     0.029 A 
HETATM   20  C3  UNL     1      27.353  -1.331  52.824  1.00  0.00     0.004 A 
HETATM   21  C2  UNL     1      28.310  -0.431  53.202  1.00  0.00     0.024 A 
HETATM   22  C1  UNL     1      28.018   0.811  53.763  1.00  0.00     0.036 A 
HETATM   23 CL1  UNL     1      29.212   1.993  54.269  1.00  0.00    -0.084 Cl
HETATM   24  C17 UNL     1      26.703   1.179  53.961  1.00  0.00     0.053 A 
ENDBRANCH  16  18
ENDBRANCH   1  16
TORSDOF 2
ENDMDL
MODEL 6
REMARK VINA RESULT:      -7.2      5.377      8.255
REMARK  2 active torsions:
REMARK  status: ('A' for Active; 'I' for Inactive)
REMARK    1  A    between atoms: C5_6  and  N1_7 
REMARK    2  A    between atoms: N1_7  and  C6_8 
ROOT
HETATM    1  C6  UNL     1      30.599   6.693  48.036  1.00  0.00     0.172 C 
HETATM    2  N2  UNL     1      30.382   7.951  47.824  1.00  0.00    -0.114 NA
HETATM    3  O1  UNL     1      28.976   8.281  47.875  1.00  0.00    -0.255 OA
HETATM    4  C7  UNL     1      28.396   8.653  46.677  1.00  0.00     0.204 C 
HETATM    5  C8  UNL     1      26.969   8.939  46.665  1.00  0.00     0.033 C 
HETATM    6  C9  UNL     1      25.934   7.963  46.957  1.00  0.00     0.043 C 
HETATM    7  C10 UNL     1      25.604   7.488  48.270  1.00  0.00    -0.033 C 
HETATM    8  C11 UNL     1      25.270   7.770  49.512  1.00  0.00     0.123 C 
HETATM    9  N3  UNL     1      24.946   7.025  50.681  1.00  0.00    -0.276 NA
HETATM   10  C12 UNL     1      24.931   5.719  50.527  1.00  0.00     0.093 C 
HETATM   11  C13 UNL     1      25.231   5.176  49.120  1.00  0.00     0.087 C 
HETATM   12  C14 UNL     1      26.180   6.114  48.528  1.00  0.00    -0.028 C 
HETATM   13  C15 UNL     1      27.360   5.515  48.556  1.00  0.00     0.124 C 
HETATM   14  N4  UNL     1      28.562   6.198  48.305  1.00  0.00    -0.269 NA
HETATM   15  C16 UNL     1      29.686   5.588  48.336  1.00  0.00     0.168 C 
ENDROOT
BRANCH   1  16
HETATM   16  N1  UNL     1      31.985   6.412  47.970  1.00  0.00    -0.338 N 
HETATM   17  H4  UNL     1      32.713   7.163  47.971  1.00  0.00     0.167 HD
BRANCH  16  18
HETATM   18  C5  UNL     1      32.715   5.199  47.891  1.00  0.00     0.035 A 
HETATM   19  C4  UNL     1      34.033   5.423  48.292  1.00  0.00     0.029 A 
HETATM   20  C3  UNL     1      34.938   4.365  48.263  1.00  0.00     0.004 A 
HETATM   21  C2  UNL     1      34.469   3.153  47.836  1.00  0.00     0.024 A 
HETATM   22  C1  UNL     1      33.151   2.937  47.436  1.00  0.00     0.036 A 
HETATM   23 CL1  UNL     1      32.508   1.405  46.875  1.00  0.00    -0.084 Cl
HETATM   24  C17 UNL     1      32.249   3.982  47.462  1.00  0.00     0.053 A 
ENDBRANCH  16  18
ENDBRANCH   1  16
TORSDOF 2
ENDMDL
MODEL 7
REMARK VINA RESULT:      -7.2      6.136      9.102
REMARK  2 active torsions:
REMARK  status: ('A' for Active; 'I' for Inactive)
REMARK    1  A    between atoms: C5_6  and  N1_7 
REMARK    2  A    between atoms: N1_7  and  C6_8 
ROOT
HETATM    1  C6  UNL     1      31.539   5.981  48.458  1.00  0.00     0.172 C 
HETATM    2  N2  UNL     1      31.875   7.087  49.038  1.00  0.00    -0.114 NA
HETATM    3  O1  UNL     1      30.752   7.979  49.211  1.00  0.00    -0.255 OA
HETATM    4  C7  UNL     1      30.772   9.135  48.453  1.00  0.00     0.204 C 
HETATM    5  C8  UNL     1      29.634  10.038  48.548  1.00  0.00     0.033 C 
HETATM    6  C9  UNL     1      28.281   9.699  48.143  1.00  0.00     0.043 C 
HETATM    7  C10 UNL     1      27.392   8.854  48.886  1.00  0.00    -0.033 C 
HETATM    8  C11 UNL     1      26.796   8.584  50.029  1.00  0.00     0.123 C 
HETATM    9  N3  UNL     1      25.861   7.617  50.495  1.00  0.00    -0.276 NA
HETATM   10  C12 UNL     1      25.425   6.775  49.584  1.00  0.00     0.093 C 
HETATM   11  C13 UNL     1      25.950   6.959  48.150  1.00  0.00     0.087 C 
HETATM   12  C14 UNL     1      27.312   7.466  48.290  1.00  0.00    -0.028 C 
HETATM   13  C15 UNL     1      28.115   6.453  48.008  1.00  0.00     0.124 C 
HETATM   14  N4  UNL     1      29.494   6.481  48.277  1.00  0.00    -0.269 NA
HETATM   15  C16 UNL     1      30.244   5.487  47.987  1.00  0.00     0.168 C 
ENDROOT
BRANCH   1  16
HETATM   16  N1  UNL     1      32.669   5.141  48.303  1.00  0.00    -0.338 N 
HETATM   17  H4  UNL     1      33.110   4.637  49.105  1.00  0.00     0.167 HD
BRANCH  16  18
HETATM   18  C5  UNL     1      33.444   4.776  47.173  1.00  0.00     0.035 A 
HETATM   19  C4  UNL     1      34.254   3.686  47.497  1.00  0.00     0.029 A 
HETATM   20  C3  UNL     1      35.123   3.179  46.536  1.00  0.00     0.004 A 
HETATM   21  C2  UNL     1      35.128   3.793  45.313  1.00  0.00     0.024 A 
HETATM   22  C1  UNL     1      34.318   4.881  44.996  1.00  0.00     0.036 A 
HETATM   23 CL1  UNL     1      34.296   5.703  43.447  1.00  0.00    -0.084 Cl
HETATM   24  C17 UNL     1      33.454   5.389  45.945  1.00  0.00     0.053 A 
ENDBRANCH  16  18
ENDBRANCH   1  16
TORSDOF 2
ENDMDL
MODEL 8
REMARK VINA RESULT:      -7.1      5.173      7.900
REMARK  2 active torsions:
REMARK  status: ('A' for Active; 'I' for Inactive)
REMARK    1  A    between atoms: C5_6  and  N1_7 
REMARK    2  A    between atoms: N1_7  and  C6_8 
ROOT
HETATM    1  C6  UNL     1      20.634   1.047  51.494  1.00  0.00     0.172 C 
HETATM    2  N2  UNL     1      21.076   2.151  50.986  1.00  0.00    -0.114 NA
HETATM    3  O1  UNL     1      22.449   2.413  51.352  1.00  0.00    -0.255 OA
HETATM    4  C7  UNL     1      22.658   3.485  52.199  1.00  0.00     0.204 C 
HETATM    5  C8  UNL     1      24.018   3.753  52.643  1.00  0.00     0.033 C 
HETATM    6  C9  UNL     1      24.809   2.848  53.459  1.00  0.00     0.043 C 
HETATM    7  C10 UNL     1      25.436   1.651  52.981  1.00  0.00    -0.033 C 
HETATM    8  C11 UNL     1      26.234   1.077  52.104  1.00  0.00     0.123 C 
HETATM    9  N3  UNL     1      26.739  -0.235  51.881  1.00  0.00    -0.276 NA
HETATM   10  C12 UNL     1      26.370  -1.135  52.766  1.00  0.00     0.093 C 
HETATM   11  C13 UNL     1      25.480  -0.655  53.925  1.00  0.00     0.087 C 
HETATM   12  C14 UNL     1      24.655   0.416  53.373  1.00  0.00    -0.028 C 
HETATM   13  C15 UNL     1      23.446  -0.095  53.208  1.00  0.00     0.124 C 
HETATM   14  N4  UNL     1      22.445   0.553  52.466  1.00  0.00    -0.269 NA
HETATM   15  C16 UNL     1      21.283   0.035  52.329  1.00  0.00     0.168 C 
ENDROOT
BRANCH   1  16
HETATM   16  N1  UNL     1      19.285   0.834  51.117  1.00  0.00    -0.338 N 
HETATM   17  H4  UNL     1      18.870   1.249  50.252  1.00  0.00     0.167 HD
BRANCH  16  18
HETATM   18  C5  UNL     1      18.228   0.098  51.711  1.00  0.00     0.035 A 
HETATM   19  C4  UNL     1      17.028   0.789  51.540  1.00  0.00     0.029 A 
HETATM   20  C3  UNL     1      15.859   0.257  52.075  1.00  0.00     0.004 A 
HETATM   21  C2  UNL     1      15.963  -0.931  52.746  1.00  0.00     0.024 A 
HETATM   22  C1  UNL     1      17.166  -1.615  52.914  1.00  0.00     0.036 A 
HETATM   23 CL1  UNL     1      17.348  -3.134  53.772  1.00  0.00    -0.084 Cl
HETATM   24  C17 UNL     1      18.329  -1.092  52.386  1.00  0.00     0.053 A 
ENDBRANCH  16  18
ENDBRANCH   1  16
TORSDOF 2
ENDMDL
MODEL 9
REMARK VINA RESULT:      -7.1     22.272     23.704
REMARK  2 active torsions:
REMARK  status: ('A' for Active; 'I' for Inactive)
REMARK    1  A    between atoms: C5_6  and  N1_7 
REMARK    2  A    between atoms: N1_7  and  C6_8 
ROOT
HETATM    1  C6  UNL     1      44.079   3.559  68.016  1.00  0.00     0.172 C 
HETATM    2  N2  UNL     1      44.124   2.489  67.290  1.00  0.00    -0.114 NA
HETATM    3  O1  UNL     1      43.132   1.516  67.685  1.00  0.00    -0.255 OA
HETATM    4  C7  UNL     1      43.615   0.355  68.259  1.00  0.00     0.204 C 
HETATM    5  C8  UNL     1      42.652  -0.631  68.727  1.00  0.00     0.033 C 
HETATM    6  C9  UNL     1      41.696  -0.402  69.797  1.00  0.00     0.043 C 
HETATM    7  C10 UNL     1      40.502   0.381  69.673  1.00  0.00    -0.033 C 
HETATM    8  C11 UNL     1      39.380   0.620  69.026  1.00  0.00     0.123 C 
HETATM    9  N3  UNL     1      38.284   1.518  69.168  1.00  0.00    -0.276 NA
HETATM   10  C12 UNL     1      38.343   2.312  70.214  1.00  0.00     0.093 C 
HETATM   11  C13 UNL     1      39.553   2.150  71.150  1.00  0.00     0.087 C 
HETATM   12  C14 UNL     1      40.666   1.751  70.293  1.00  0.00    -0.028 C 
HETATM   13  C15 UNL     1      41.436   2.819  70.165  1.00  0.00     0.124 C 
HETATM   14  N4  UNL     1      42.467   2.900  69.214  1.00  0.00    -0.269 NA
HETATM   15  C16 UNL     1      43.198   3.946  69.119  1.00  0.00     0.168 C 
ENDROOT
BRANCH   1  16
HETATM   16  N1  UNL     1      45.070   4.481  67.601  1.00  0.00    -0.338 N 
HETATM   17  H4  UNL     1      46.017   4.527  68.044  1.00  0.00     0.167 HD
BRANCH  16  18
HETATM   18  C5  UNL     1      45.087   5.487  66.601  1.00  0.00     0.035 A 
HETATM   19  C4  UNL     1      44.635   6.690  67.145  1.00  0.00     0.029 A 
HETATM   20  C3  UNL     1      44.543   7.810  66.324  1.00  0.00     0.004 A 
HETATM   21  C2  UNL     1      44.908   7.657  65.015  1.00  0.00     0.024 A 
HETATM   22  C1  UNL     1      45.358   6.452  64.479  1.00  0.00     0.036 A 
HETATM   23 CL1  UNL     1      45.828   6.207  62.807  1.00  0.00    -0.084 Cl
HETATM   24  C17 UNL     1      45.451   5.337  65.287  1.00  0.00     0.053 A 
ENDBRANCH  16  18
ENDBRANCH   1  16
TORSDOF 2
ENDMDL
