MODEL 1
REMARK VINA RESULT:      -6.7      0.000      0.000
REMARK  7 active torsions:
REMARK  status: ('A' for Active; 'I' for Inactive)
REMARK    1  A    between atoms: C2_2  and  O1_3 
REMARK    2  A    between atoms: C2_2  and  C4_5 
REMARK    3  A    between atoms: C4_5  and  O2_6 
REMARK    4  A    between atoms: C4_5  and  C6_9 
REMARK    5  A    between atoms: O2_6  and  C5_7 
REMARK    6  A    between atoms: C8_11  and  O3_12 
REMARK    7  A    between atoms: O3_12  and  C9_13 
ROOT
HETATM    1  C6  UNL     1      24.997  -0.614  53.980  1.00  0.00     0.072 A 
HETATM    2  C7  UNL     1      23.733  -0.644  53.407  1.00  0.00     0.088 A 
HETATM    3  C8  UNL     1      22.596  -1.067  54.107  1.00  0.00     0.172 A 
HETATM    4  N1  UNL     1      22.742  -1.457  55.386  1.00  0.00    -0.217 NA
HETATM    5  C15 UNL     1      23.963  -1.426  55.939  1.00  0.00     0.236 A 
HETATM    6  N2  UNL     1      25.083  -1.021  55.281  1.00  0.00    -0.243 NA
ENDROOT
BRANCH   1   7
HETATM    7  C4  UNL     1      26.229  -0.174  53.277  1.00  0.00     0.212 C 
BRANCH   7   8
HETATM    8  C2  UNL     1      27.227  -1.271  53.159  1.00  0.00     0.126 C 
HETATM    9  C1  UNL     1      26.956  -2.213  52.267  1.00  0.00     0.047 C 
BRANCH   8  10
HETATM   10  O1  UNL     1      28.252  -1.023  54.063  1.00  0.00    -0.379 OA
HETATM   11  C3  UNL     1      28.484   0.225  54.665  1.00  0.00     0.202 C 
ENDBRANCH   8  10
ENDBRANCH   7   8
BRANCH   7  12
HETATM   12  O2  UNL     1      25.915   0.410  52.053  1.00  0.00    -0.366 OA
BRANCH  12  13
HETATM   13  C5  UNL     1      26.126   1.786  52.145  1.00  0.00     0.253 C 
HETATM   14 BR1  UNL     1      24.492   2.781  51.894  1.00  0.00    -0.068 Br
ENDBRANCH  12  13
ENDBRANCH   7  12
ENDBRANCH   1   7
BRANCH   3  15
HETATM   15  O3  UNL     1      21.503  -0.987  53.283  1.00  0.00    -0.292 OA
BRANCH  15  16
HETATM   16  C9  UNL     1      21.239   0.082  52.469  1.00  0.00     0.078 A 
HETATM   17  C10 UNL     1      20.808   1.153  53.229  1.00  0.00     0.040 A 
HETATM   18  C11 UNL     1      20.467   2.381  52.651  1.00  0.00     0.045 A 
HETATM   19  C12 UNL     1      20.559   2.540  51.285  1.00  0.00     0.116 A 
HETATM   20  F1  UNL     1      20.253   3.690  50.617  1.00  0.00    -0.206 F 
HETATM   21  C13 UNL     1      20.989   1.470  50.540  1.00  0.00     0.045 A 
HETATM   22  C14 UNL     1      21.321   0.272  51.107  1.00  0.00     0.040 A 
ENDBRANCH  15  16
ENDBRANCH   3  15
TORSDOF 7
ENDMDL
MODEL 2
REMARK VINA RESULT:      -6.7      3.676      6.352
REMARK  7 active torsions:
REMARK  status: ('A' for Active; 'I' for Inactive)
REMARK    1  A    between atoms: C2_2  and  O1_3 
REMARK    2  A    between atoms: C2_2  and  C4_5 
REMARK    3  A    between atoms: C4_5  and  O2_6 
REMARK    4  A    between atoms: C4_5  and  C6_9 
REMARK    5  A    between atoms: O2_6  and  C5_7 
REMARK    6  A    between atoms: C8_11  and  O3_12 
REMARK    7  A    between atoms: O3_12  and  C9_13 
ROOT
HETATM    1  C6  UNL     1      23.828   1.850  51.604  1.00  0.00     0.072 A 
HETATM    2  C7  UNL     1      24.550   1.252  52.628  1.00  0.00     0.088 A 
HETATM    3  C8  UNL     1      24.069   0.152  53.349  1.00  0.00     0.172 A 
HETATM    4  N1  UNL     1      22.859  -0.341  53.031  1.00  0.00    -0.217 NA
HETATM    5  C15 UNL     1      22.162   0.237  52.041  1.00  0.00     0.236 A 
HETATM    6  N2  UNL     1      22.606   1.306  51.326  1.00  0.00    -0.243 NA
ENDROOT
BRANCH   1   7
HETATM    7  C4  UNL     1      24.296   3.016  50.813  1.00  0.00     0.212 C 
BRANCH   7   8
HETATM    8  C2  UNL     1      23.428   4.208  51.008  1.00  0.00     0.126 C 
HETATM    9  C1  UNL     1      23.503   4.800  52.191  1.00  0.00     0.047 C 
BRANCH   8  10
HETATM   10  O1  UNL     1      22.712   4.417  49.836  1.00  0.00    -0.379 OA
HETATM   11  C3  UNL     1      22.992   3.774  48.619  1.00  0.00     0.202 C 
ENDBRANCH   8  10
ENDBRANCH   7   8
BRANCH   7  12
HETATM   12  O2  UNL     1      25.640   3.275  51.069  1.00  0.00    -0.366 OA
BRANCH  12  13
HETATM   13  C5  UNL     1      26.358   3.137  49.881  1.00  0.00     0.253 C 
HETATM   14 BR1  UNL     1      26.723   4.845  49.061  1.00  0.00    -0.068 Br
ENDBRANCH  12  13
ENDBRANCH   7  12
ENDBRANCH   1   7
BRANCH   3  15
HETATM   15  O3  UNL     1      24.999  -0.212  54.289  1.00  0.00    -0.292 OA
BRANCH  15  16
HETATM   16  C9  UNL     1      26.311  -0.475  54.000  1.00  0.00     0.078 A 
HETATM   17  C10 UNL     1      27.130   0.207  54.881  1.00  0.00     0.040 A 
HETATM   18  C11 UNL     1      28.524   0.119  54.815  1.00  0.00     0.045 A 
HETATM   19  C12 UNL     1      29.113  -0.666  53.847  1.00  0.00     0.116 A 
HETATM   20  F1  UNL     1      30.459  -0.824  53.690  1.00  0.00    -0.206 F 
HETATM   21  C13 UNL     1      28.290  -1.339  52.976  1.00  0.00     0.045 A 
HETATM   22  C14 UNL     1      26.928  -1.251  53.043  1.00  0.00     0.040 A 
ENDBRANCH  15  16
ENDBRANCH   3  15
TORSDOF 7
ENDMDL
MODEL 3
REMARK VINA RESULT:      -6.4      3.591      5.998
REMARK  7 active torsions:
REMARK  status: ('A' for Active; 'I' for Inactive)
REMARK    1  A    between atoms: C2_2  and  O1_3 
REMARK    2  A    between atoms: C2_2  and  C4_5 
REMARK    3  A    between atoms: C4_5  and  O2_6 
REMARK    4  A    between atoms: C4_5  and  C6_9 
REMARK    5  A    between atoms: O2_6  and  C5_7 
REMARK    6  A    between atoms: C8_11  and  O3_12 
REMARK    7  A    between atoms: O3_12  and  C9_13 
ROOT
HETATM    1  C6  UNL     1      23.204   1.861  51.897  1.00  0.00     0.072 A 
HETATM    2  C7  UNL     1      24.021   1.277  52.854  1.00  0.00     0.088 A 
HETATM    3  C8  UNL     1      23.736   0.034  53.435  1.00  0.00     0.172 A 
HETATM    4  N1  UNL     1      22.626  -0.614  53.042  1.00  0.00    -0.217 NA
HETATM    5  C15 UNL     1      21.837  -0.049  52.116  1.00  0.00     0.236 A 
HETATM    6  N2  UNL     1      22.090   1.156  51.538  1.00  0.00    -0.243 NA
ENDROOT
BRANCH   1   7
HETATM    7  C4  UNL     1      23.465   3.175  51.255  1.00  0.00     0.212 C 
BRANCH   7   8
HETATM    8  C2  UNL     1      24.139   3.030  49.938  1.00  0.00     0.126 C 
HETATM    9  C1  UNL     1      23.348   3.009  48.875  1.00  0.00     0.047 C 
BRANCH   8  10
HETATM   10  O1  UNL     1      25.508   2.946  50.160  1.00  0.00    -0.379 OA
HETATM   11  C3  UNL     1      26.434   3.912  49.732  1.00  0.00     0.202 C 
ENDBRANCH   8  10
ENDBRANCH   7   8
BRANCH   7  12
HETATM   12  O2  UNL     1      22.295   3.929  51.188  1.00  0.00    -0.366 OA
BRANCH  12  13
HETATM   13  C5  UNL     1      22.469   5.094  51.935  1.00  0.00     0.253 C 
HETATM   14 BR1  UNL     1      23.210   6.523  50.871  1.00  0.00    -0.068 Br
ENDBRANCH  12  13
ENDBRANCH   7  12
ENDBRANCH   1   7
BRANCH   3  15
HETATM   15  O3  UNL     1      24.719  -0.276  54.340  1.00  0.00    -0.292 OA
BRANCH  15  16
HETATM   16  C9  UNL     1      26.026  -0.499  53.998  1.00  0.00     0.078 A 
HETATM   17  C10 UNL     1      26.859   0.184  54.865  1.00  0.00     0.040 A 
HETATM   18  C11 UNL     1      28.252   0.133  54.746  1.00  0.00     0.045 A 
HETATM   19  C12 UNL     1      28.824  -0.616  53.741  1.00  0.00     0.116 A 
HETATM   20  F1  UNL     1      30.167  -0.736  53.532  1.00  0.00    -0.206 F 
HETATM   21  C13 UNL     1      27.987  -1.291  52.886  1.00  0.00     0.045 A 
HETATM   22  C14 UNL     1      26.627  -1.239  53.003  1.00  0.00     0.040 A 
ENDBRANCH  15  16
ENDBRANCH   3  15
TORSDOF 7
ENDMDL
MODEL 4
REMARK VINA RESULT:      -6.4      4.053      6.555
REMARK  7 active torsions:
REMARK  status: ('A' for Active; 'I' for Inactive)
REMARK    1  A    between atoms: C2_2  and  O1_3 
REMARK    2  A    between atoms: C2_2  and  C4_5 
REMARK    3  A    between atoms: C4_5  and  O2_6 
REMARK    4  A    between atoms: C4_5  and  C6_9 
REMARK    5  A    between atoms: O2_6  and  C5_7 
REMARK    6  A    between atoms: C8_11  and  O3_12 
REMARK    7  A    between atoms: O3_12  and  C9_13 
ROOT
HETATM    1  C6  UNL     1      24.118   2.467  50.865  1.00  0.00     0.072 A 
HETATM    2  C7  UNL     1      24.737   1.952  51.994  1.00  0.00     0.088 A 
HETATM    3  C8  UNL     1      24.148   0.964  52.794  1.00  0.00     0.172 A 
HETATM    4  N1  UNL     1      22.935   0.499  52.447  1.00  0.00    -0.217 NA
HETATM    5  C15 UNL     1      22.338   0.997  51.354  1.00  0.00     0.236 A 
HETATM    6  N2  UNL     1      22.887   1.957  50.562  1.00  0.00    -0.243 NA
ENDROOT
BRANCH   1   7
HETATM    7  C4  UNL     1      24.701   3.514  49.988  1.00  0.00     0.212 C 
BRANCH   7   8
HETATM    8  C2  UNL     1      23.805   4.692  49.851  1.00  0.00     0.126 C 
HETATM    9  C1  UNL     1      23.187   4.825  48.686  1.00  0.00     0.047 C 
BRANCH   8  10
HETATM   10  O1  UNL     1      23.839   5.403  51.044  1.00  0.00    -0.379 OA
HETATM   11  C3  UNL     1      24.116   6.777  51.132  1.00  0.00     0.202 C 
ENDBRANCH   8  10
ENDBRANCH   7   8
BRANCH   7  12
HETATM   12  O2  UNL     1      25.984   3.852  50.414  1.00  0.00    -0.366 OA
BRANCH  12  13
HETATM   13  C5  UNL     1      26.841   3.834  49.314  1.00  0.00     0.253 C 
HETATM   14 BR1  UNL     1      27.257   5.614  48.699  1.00  0.00    -0.068 Br
ENDBRANCH  12  13
ENDBRANCH   7  12
ENDBRANCH   1   7
BRANCH   3  15
HETATM   15  O3  UNL     1      24.994   0.660  53.831  1.00  0.00    -0.292 OA
BRANCH  15  16
HETATM   16  C9  UNL     1      26.214   0.061  53.668  1.00  0.00     0.078 A 
HETATM   17  C10 UNL     1      27.138   0.640  54.518  1.00  0.00     0.040 A 
HETATM   18  C11 UNL     1      28.471   0.219  54.560  1.00  0.00     0.045 A 
HETATM   19  C12 UNL     1      28.889  -0.803  53.736  1.00  0.00     0.116 A 
HETATM   20  F1  UNL     1      30.162  -1.293  53.694  1.00  0.00    -0.206 F 
HETATM   21  C13 UNL     1      27.963  -1.373  52.896  1.00  0.00     0.045 A 
HETATM   22  C14 UNL     1      26.662  -0.959  52.857  1.00  0.00     0.040 A 
ENDBRANCH  15  16
ENDBRANCH   3  15
TORSDOF 7
ENDMDL
MODEL 5
REMARK VINA RESULT:      -6.2      3.131      6.552
REMARK  7 active torsions:
REMARK  status: ('A' for Active; 'I' for Inactive)
REMARK    1  A    between atoms: C2_2  and  O1_3 
REMARK    2  A    between atoms: C2_2  and  C4_5 
REMARK    3  A    between atoms: C4_5  and  O2_6 
REMARK    4  A    between atoms: C4_5  and  C6_9 
REMARK    5  A    between atoms: O2_6  and  C5_7 
REMARK    6  A    between atoms: C8_11  and  O3_12 
REMARK    7  A    between atoms: O3_12  and  C9_13 
ROOT
HETATM    1  C6  UNL     1      21.579   1.184  52.794  1.00  0.00     0.072 A 
HETATM    2  C7  UNL     1      22.748   0.455  52.624  1.00  0.00     0.088 A 
HETATM    3  C8  UNL     1      23.156  -0.538  53.524  1.00  0.00     0.172 A 
HETATM    4  N1  UNL     1      22.379  -0.790  54.592  1.00  0.00    -0.217 NA
HETATM    5  C15 UNL     1      21.250  -0.086  54.755  1.00  0.00     0.236 A 
HETATM    6  N2  UNL     1      20.832   0.884  53.897  1.00  0.00    -0.243 NA
ENDROOT
BRANCH   1   7
HETATM    7  C4  UNL     1      21.107   2.245  51.868  1.00  0.00     0.212 C 
BRANCH   7   8
HETATM    8  C2  UNL     1      19.701   2.023  51.434  1.00  0.00     0.126 C 
HETATM    9  C1  UNL     1      19.504   1.037  50.571  1.00  0.00     0.047 C 
BRANCH   8  10
HETATM   10  O1  UNL     1      18.898   2.957  52.077  1.00  0.00    -0.379 OA
HETATM   11  C3  UNL     1      17.851   3.654  51.452  1.00  0.00     0.202 C 
ENDBRANCH   8  10
ENDBRANCH   7   8
BRANCH   7  12
HETATM   12  O2  UNL     1      21.313   3.507  52.421  1.00  0.00    -0.366 OA
BRANCH  12  13
HETATM   13  C5  UNL     1      22.536   4.001  51.968  1.00  0.00     0.253 C 
HETATM   14 BR1  UNL     1      22.815   3.616  50.098  1.00  0.00    -0.068 Br
ENDBRANCH  12  13
ENDBRANCH   7  12
ENDBRANCH   1   7
BRANCH   3  15
HETATM   15  O3  UNL     1      24.341  -1.077  53.093  1.00  0.00    -0.292 OA
BRANCH  15  16
HETATM   16  C9  UNL     1      25.568  -0.694  53.564  1.00  0.00     0.078 A 
HETATM   17  C10 UNL     1      26.561  -1.178  52.732  1.00  0.00     0.040 A 
HETATM   18  C11 UNL     1      27.916  -0.935  52.977  1.00  0.00     0.045 A 
HETATM   19  C12 UNL     1      28.287  -0.193  54.078  1.00  0.00     0.116 A 
HETATM   20  F1  UNL     1      29.576   0.105  54.413  1.00  0.00    -0.206 F 
HETATM   21  C13 UNL     1      27.293   0.284  54.897  1.00  0.00     0.045 A 
HETATM   22  C14 UNL     1      25.970   0.044  54.655  1.00  0.00     0.040 A 
ENDBRANCH  15  16
ENDBRANCH   3  15
TORSDOF 7
ENDMDL
MODEL 6
REMARK VINA RESULT:      -6.2      3.089      3.989
REMARK  7 active torsions:
REMARK  status: ('A' for Active; 'I' for Inactive)
REMARK    1  A    between atoms: C2_2  and  O1_3 
REMARK    2  A    between atoms: C2_2  and  C4_5 
REMARK    3  A    between atoms: C4_5  and  O2_6 
REMARK    4  A    between atoms: C4_5  and  C6_9 
REMARK    5  A    between atoms: O2_6  and  C5_7 
REMARK    6  A    between atoms: C8_11  and  O3_12 
REMARK    7  A    between atoms: O3_12  and  C9_13 
ROOT
HETATM    1  C6  UNL     1      26.375   2.006  52.445  1.00  0.00     0.072 A 
HETATM    2  C7  UNL     1      25.021   2.299  52.523  1.00  0.00     0.088 A 
HETATM    3  C8  UNL     1      24.372   3.122  51.593  1.00  0.00     0.172 A 
HETATM    4  N1  UNL     1      25.095   3.643  50.587  1.00  0.00    -0.217 NA
HETATM    5  C15 UNL     1      26.404   3.358  50.512  1.00  0.00     0.236 A 
HETATM    6  N2  UNL     1      27.058   2.564  51.402  1.00  0.00    -0.243 NA
ENDROOT
BRANCH   1   7
HETATM    7  C4  UNL     1      27.106   1.141  53.407  1.00  0.00     0.212 C 
BRANCH   7   8
HETATM    8  C2  UNL     1      26.546  -0.236  53.457  1.00  0.00     0.126 C 
HETATM    9  C1  UNL     1      26.630  -0.943  52.339  1.00  0.00     0.047 C 
BRANCH   8  10
HETATM   10  O1  UNL     1      26.045  -0.453  54.734  1.00  0.00    -0.379 OA
HETATM   11  C3  UNL     1      24.759  -0.951  54.999  1.00  0.00     0.202 C 
ENDBRANCH   8  10
ENDBRANCH   7   8
BRANCH   7  12
HETATM   12  O2  UNL     1      28.474   1.164  53.145  1.00  0.00    -0.366 OA
BRANCH  12  13
HETATM   13  C5  UNL     1      29.149   0.629  54.242  1.00  0.00     0.253 C 
HETATM   14 BR1  UNL     1      30.079  -0.999  53.787  1.00  0.00    -0.068 Br
ENDBRANCH  12  13
ENDBRANCH   7  12
ENDBRANCH   1   7
BRANCH   3  15
HETATM   15  O3  UNL     1      23.046   3.225  51.931  1.00  0.00    -0.292 OA
BRANCH  15  16
HETATM   16  C9  UNL     1      22.102   2.291  51.603  1.00  0.00     0.078 A 
HETATM   17  C10 UNL     1      21.077   2.314  52.531  1.00  0.00     0.040 A 
HETATM   18  C11 UNL     1      19.975   1.458  52.440  1.00  0.00     0.045 A 
HETATM   19  C12 UNL     1      19.895   0.560  51.398  1.00  0.00     0.116 A 
HETATM   20  F1  UNL     1      18.868  -0.320  51.210  1.00  0.00    -0.206 F 
HETATM   21  C13 UNL     1      20.917   0.544  50.481  1.00  0.00     0.045 A 
HETATM   22  C14 UNL     1      21.993   1.381  50.573  1.00  0.00     0.040 A 
ENDBRANCH  15  16
ENDBRANCH   3  15
TORSDOF 7
ENDMDL
MODEL 7
REMARK VINA RESULT:      -6.2      3.559      6.987
REMARK  7 active torsions:
REMARK  status: ('A' for Active; 'I' for Inactive)
REMARK    1  A    between atoms: C2_2  and  O1_3 
REMARK    2  A    between atoms: C2_2  and  C4_5 
REMARK    3  A    between atoms: C4_5  and  O2_6 
REMARK    4  A    between atoms: C4_5  and  C6_9 
REMARK    5  A    between atoms: O2_6  and  C5_7 
REMARK    6  A    between atoms: C8_11  and  O3_12 
REMARK    7  A    between atoms: O3_12  and  C9_13 
ROOT
HETATM    1  C6  UNL     1      22.206   1.401  51.845  1.00  0.00     0.072 A 
HETATM    2  C7  UNL     1      23.055   0.523  52.504  1.00  0.00     0.088 A 
HETATM    3  C8  UNL     1      24.210   0.949  53.173  1.00  0.00     0.172 A 
HETATM    4  N1  UNL     1      24.501   2.262  53.173  1.00  0.00    -0.217 NA
HETATM    5  C15 UNL     1      23.679   3.109  52.537  1.00  0.00     0.236 A 
HETATM    6  N2  UNL     1      22.552   2.722  51.880  1.00  0.00    -0.243 NA
ENDROOT
BRANCH   1   7
HETATM    7  C4  UNL     1      20.972   0.997  51.124  1.00  0.00     0.212 C 
BRANCH   7   8
HETATM    8  C2  UNL     1      19.775   1.024  52.005  1.00  0.00     0.126 C 
HETATM    9  C1  UNL     1      19.503  -0.097  52.657  1.00  0.00     0.047 C 
BRANCH   8  10
HETATM   10  O1  UNL     1      19.205   2.288  51.922  1.00  0.00    -0.379 OA
HETATM   11  C3  UNL     1      17.874   2.526  51.540  1.00  0.00     0.202 C 
ENDBRANCH   8  10
ENDBRANCH   7   8
BRANCH   7  12
HETATM   12  O2  UNL     1      20.812   1.753  49.965  1.00  0.00    -0.366 OA
BRANCH  12  13
HETATM   13  C5  UNL     1      21.397   1.069  48.899  1.00  0.00     0.253 C 
HETATM   14 BR1  UNL     1      22.472   2.237  47.802  1.00  0.00    -0.068 Br
ENDBRANCH  12  13
ENDBRANCH   7  12
ENDBRANCH   1   7
BRANCH   3  15
HETATM   15  O3  UNL     1      24.840  -0.139  53.722  1.00  0.00    -0.292 OA
BRANCH  15  16
HETATM   16  C9  UNL     1      26.193  -0.220  53.912  1.00  0.00     0.078 A 
HETATM   17  C10 UNL     1      26.753  -1.043  52.952  1.00  0.00     0.040 A 
HETATM   18  C11 UNL     1      28.126  -1.304  52.910  1.00  0.00     0.045 A 
HETATM   19  C12 UNL     1      28.958  -0.731  53.847  1.00  0.00     0.116 A 
HETATM   20  F1  UNL     1      30.309  -0.916  53.901  1.00  0.00    -0.206 F 
HETATM   21  C13 UNL     1      28.393   0.085  54.797  1.00  0.00     0.045 A 
HETATM   22  C14 UNL     1      27.050   0.338  54.836  1.00  0.00     0.040 A 
ENDBRANCH  15  16
ENDBRANCH   3  15
TORSDOF 7
ENDMDL
MODEL 8
REMARK VINA RESULT:      -6.1      4.450      7.634
REMARK  7 active torsions:
REMARK  status: ('A' for Active; 'I' for Inactive)
REMARK    1  A    between atoms: C2_2  and  O1_3 
REMARK    2  A    between atoms: C2_2  and  C4_5 
REMARK    3  A    between atoms: C4_5  and  O2_6 
REMARK    4  A    between atoms: C4_5  and  C6_9 
REMARK    5  A    between atoms: O2_6  and  C5_7 
REMARK    6  A    between atoms: C8_11  and  O3_12 
REMARK    7  A    between atoms: O3_12  and  C9_13 
ROOT
HETATM    1  C6  UNL     1      24.153   3.137  50.369  1.00  0.00     0.072 A 
HETATM    2  C7  UNL     1      24.615   2.217  51.299  1.00  0.00     0.088 A 
HETATM    3  C8  UNL     1      25.979   2.017  51.549  1.00  0.00     0.172 A 
HETATM    4  N1  UNL     1      26.870   2.750  50.858  1.00  0.00    -0.217 NA
HETATM    5  C15 UNL     1      26.422   3.639  49.960  1.00  0.00     0.236 A 
HETATM    6  N2  UNL     1      25.104   3.853  49.698  1.00  0.00    -0.243 NA
ENDROOT
BRANCH   1   7
HETATM    7  C4  UNL     1      22.719   3.384  50.070  1.00  0.00     0.212 C 
BRANCH   7   8
HETATM    8  C2  UNL     1      22.211   4.611  50.739  1.00  0.00     0.126 C 
HETATM    9  C1  UNL     1      21.975   4.513  52.039  1.00  0.00     0.047 C 
BRANCH   8  10
HETATM   10  O1  UNL     1      22.104   5.613  49.782  1.00  0.00    -0.379 OA
HETATM   11  C3  UNL     1      22.603   6.915  49.949  1.00  0.00     0.202 C 
ENDBRANCH   8  10
ENDBRANCH   7   8
BRANCH   7  12
HETATM   12  O2  UNL     1      22.497   3.383  48.695  1.00  0.00    -0.366 OA
BRANCH  12  13
HETATM   13  C5  UNL     1      22.330   2.065  48.268  1.00  0.00     0.253 C 
HETATM   14 BR1  UNL     1      21.155   1.078  49.437  1.00  0.00    -0.068 Br
ENDBRANCH  12  13
ENDBRANCH   7  12
ENDBRANCH   1   7
BRANCH   3  15
HETATM   15  O3  UNL     1      26.124   1.050  52.511  1.00  0.00    -0.292 OA
BRANCH  15  16
HETATM   16  C9  UNL     1      27.334   0.567  52.930  1.00  0.00     0.078 A 
HETATM   17  C10 UNL     1      27.350  -0.812  52.824  1.00  0.00     0.040 A 
HETATM   18  C11 UNL     1      28.468  -1.569  53.186  1.00  0.00     0.045 A 
HETATM   19  C12 UNL     1      29.596  -0.935  53.664  1.00  0.00     0.116 A 
HETATM   20  F1  UNL     1      30.740  -1.573  54.045  1.00  0.00    -0.206 F 
HETATM   21  C13 UNL     1      29.570   0.434  53.764  1.00  0.00     0.045 A 
HETATM   22  C14 UNL     1      28.475   1.172  53.410  1.00  0.00     0.040 A 
ENDBRANCH  15  16
ENDBRANCH   3  15
TORSDOF 7
ENDMDL
MODEL 9
REMARK VINA RESULT:      -6.0      4.621      6.316
REMARK  7 active torsions:
REMARK  status: ('A' for Active; 'I' for Inactive)
REMARK    1  A    between atoms: C2_2  and  O1_3 
REMARK    2  A    between atoms: C2_2  and  C4_5 
REMARK    3  A    between atoms: C4_5  and  O2_6 
REMARK    4  A    between atoms: C4_5  and  C6_9 
REMARK    5  A    between atoms: O2_6  and  C5_7 
REMARK    6  A    between atoms: C8_11  and  O3_12 
REMARK    7  A    between atoms: O3_12  and  C9_13 
ROOT
HETATM    1  C6  UNL     1      24.597   2.176  52.077  1.00  0.00     0.072 A 
HETATM    2  C7  UNL     1      24.977   2.690  50.846  1.00  0.00     0.088 A 
HETATM    3  C8  UNL     1      24.662   3.993  50.441  1.00  0.00     0.172 A 
HETATM    4  N1  UNL     1      23.964   4.773  51.285  1.00  0.00    -0.217 NA
HETATM    5  C15 UNL     1      23.597   4.276  52.476  1.00  0.00     0.236 A 
HETATM    6  N2  UNL     1      23.890   3.014  52.892  1.00  0.00    -0.243 NA
ENDROOT
BRANCH   1   7
HETATM    7  C4  UNL     1      24.908   0.803  52.549  1.00  0.00     0.212 C 
BRANCH   7   8
HETATM    8  C2  UNL     1      26.371   0.577  52.689  1.00  0.00     0.126 C 
HETATM    9  C1  UNL     1      26.877  -0.431  51.993  1.00  0.00     0.047 C 
BRANCH   8  10
HETATM   10  O1  UNL     1      26.874   1.532  53.564  1.00  0.00    -0.379 OA
HETATM   11  C3  UNL     1      28.034   2.287  53.320  1.00  0.00     0.202 C 
ENDBRANCH   8  10
ENDBRANCH   7   8
BRANCH   7  12
HETATM   12  O2  UNL     1      24.199   0.511  53.713  1.00  0.00    -0.366 OA
BRANCH  12  13
HETATM   13  C5  UNL     1      23.498  -0.680  53.524  1.00  0.00     0.253 C 
HETATM   14 BR1  UNL     1      21.868  -0.723  54.555  1.00  0.00    -0.068 Br
ENDBRANCH  12  13
ENDBRANCH   7  12
ENDBRANCH   1   7
BRANCH   3  15
HETATM   15  O3  UNL     1      25.167   4.210  49.185  1.00  0.00    -0.292 OA
BRANCH  15  16
HETATM   16  C9  UNL     1      26.311   4.920  48.936  1.00  0.00     0.078 A 
HETATM   17  C10 UNL     1      26.035   6.274  48.951  1.00  0.00     0.040 A 
HETATM   18  C11 UNL     1      27.026   7.235  48.725  1.00  0.00     0.045 A 
HETATM   19  C12 UNL     1      28.321   6.833  48.479  1.00  0.00     0.116 A 
HETATM   20  F1  UNL     1      29.365   7.681  48.246  1.00  0.00    -0.206 F 
HETATM   21  C13 UNL     1      28.586   5.485  48.467  1.00  0.00     0.045 A 
HETATM   22  C14 UNL     1      27.615   4.549  48.687  1.00  0.00     0.040 A 
ENDBRANCH  15  16
ENDBRANCH   3  15
TORSDOF 7
ENDMDL
