MODEL 1
REMARK VINA RESULT:      -7.7      0.000      0.000
REMARK  5 active torsions:
REMARK  status: ('A' for Active; 'I' for Inactive)
REMARK    1  A    between atoms: C2_2  and  C3_3 
REMARK       I    between atoms: C3_3  and  N1_5 
REMARK    2  A    between atoms: N1_5  and  C4_6 
REMARK    3  A    between atoms: C9_13  and  N4_14 
REMARK    4  A    between atoms: N4_14  and  C10_15 
REMARK    5  A    between atoms: C11_16  and  C12_18 
ROOT
HETATM    1  C4  UNL     1      26.552   0.758  52.514  1.00  0.00     0.036 A 
HETATM    2  C5  UNL     1      25.430   0.390  53.225  1.00  0.00     0.032 A 
HETATM    3  C6  UNL     1      24.172   0.919  52.990  1.00  0.00     0.035 A 
HETATM    4  C7  UNL     1      24.077   1.866  51.973  1.00  0.00     0.072 A 
HETATM    5  N2  UNL     1      22.882   2.418  51.695  1.00  0.00    -0.241 NA
HETATM    6  C8  UNL     1      22.770   3.348  50.702  1.00  0.00     0.236 A 
HETATM    7  N3  UNL     1      23.847   3.735  49.982  1.00  0.00    -0.224 NA
HETATM    8  C9  UNL     1      25.059   3.201  50.237  1.00  0.00     0.141 A 
HETATM    9  C14 UNL     1      25.204   2.253  51.239  1.00  0.00     0.041 A 
HETATM   10  C15 UNL     1      26.438   1.699  51.510  1.00  0.00     0.047 A 
ENDROOT
BRANCH   8  11
HETATM   11  N4  UNL     1      26.255   3.549  49.527  1.00  0.00    -0.347 N 
HETATM   12  H8  UNL     1      26.793   2.693  49.390  1.00  0.00     0.167 HD
BRANCH  11  13
HETATM   13  C10 UNL     1      26.048   4.952  49.384  1.00  0.00     0.129 C 
HETATM   14  C11 UNL     1      27.136   5.252  48.697  1.00  0.00     0.128 C 
HETATM   15  F1  UNL     1      27.632   4.007  48.641  1.00  0.00    -0.208 F 
BRANCH  14  16
HETATM   16  C12 UNL     1      27.544   6.556  48.214  1.00  0.00     0.075 C 
HETATM   17  C13 UNL     1      28.812   6.761  47.962  1.00  0.00     0.099 C 
HETATM   18 CL1  UNL     1      26.247   7.718  48.030  1.00  0.00    -0.117 Cl
ENDBRANCH  14  16
ENDBRANCH  11  13
ENDBRANCH   8  11
BRANCH   1  19
HETATM   19  N1  UNL     1      27.746   0.105  52.903  1.00  0.00    -0.324 N 
HETATM   20  C3  UNL     1      28.646   0.127  53.978  1.00  0.00     0.244 C 
HETATM   21  O1  UNL     1      28.659   0.803  55.025  1.00  0.00    -0.268 OA
HETATM   22  H4  UNL     1      27.892  -0.539  52.092  1.00  0.00     0.169 HD
BRANCH  20  23
HETATM   23  C2  UNL     1      29.782  -0.785  53.908  1.00  0.00     0.064 C 
HETATM   24  C1  UNL     1      29.350  -1.863  53.310  1.00  0.00     0.017 C 
ENDBRANCH  20  23
ENDBRANCH   1  19
TORSDOF 5
ENDMDL
MODEL 2
REMARK VINA RESULT:      -7.6      3.514      6.339
REMARK  5 active torsions:
REMARK  status: ('A' for Active; 'I' for Inactive)
REMARK    1  A    between atoms: C2_2  and  C3_3 
REMARK       I    between atoms: C3_3  and  N1_5 
REMARK    2  A    between atoms: N1_5  and  C4_6 
REMARK    3  A    between atoms: C9_13  and  N4_14 
REMARK    4  A    between atoms: N4_14  and  C10_15 
REMARK    5  A    between atoms: C11_16  and  C12_18 
ROOT
HETATM    1  C4  UNL     1      24.107   2.664  50.728  1.00  0.00     0.036 A 
HETATM    2  C5  UNL     1      22.831   2.411  50.272  1.00  0.00     0.032 A 
HETATM    3  C6  UNL     1      22.008   1.439  50.814  1.00  0.00     0.035 A 
HETATM    4  C7  UNL     1      22.533   0.700  51.873  1.00  0.00     0.072 A 
HETATM    5  N2  UNL     1      21.782  -0.261  52.443  1.00  0.00    -0.241 NA
HETATM    6  C8  UNL     1      22.280  -0.994  53.481  1.00  0.00     0.236 A 
HETATM    7  N3  UNL     1      23.527  -0.776  53.956  1.00  0.00    -0.224 NA
HETATM    8  C9  UNL     1      24.303   0.180  53.406  1.00  0.00     0.141 A 
HETATM    9  C14 UNL     1      23.825   0.941  52.350  1.00  0.00     0.041 A 
HETATM   10  C15 UNL     1      24.609   1.922  51.778  1.00  0.00     0.047 A 
ENDROOT
BRANCH   8  11
HETATM   11  N4  UNL     1      25.635   0.482  53.843  1.00  0.00    -0.347 N 
HETATM   12  H8  UNL     1      25.606   1.381  54.324  1.00  0.00     0.167 HD
BRANCH  11  13
HETATM   13  C10 UNL     1      26.314  -0.674  53.357  1.00  0.00     0.129 C 
HETATM   14  C11 UNL     1      27.553  -0.326  53.657  1.00  0.00     0.128 C 
HETATM   15  F1  UNL     1      27.254   0.863  54.200  1.00  0.00    -0.208 F 
BRANCH  14  16
HETATM   16  C12 UNL     1      28.764  -1.085  53.421  1.00  0.00     0.075 C 
HETATM   17  C13 UNL     1      29.918  -0.483  53.562  1.00  0.00     0.099 C 
HETATM   18 CL1  UNL     1      28.515  -2.757  52.963  1.00  0.00    -0.117 Cl
ENDBRANCH  14  16
ENDBRANCH  11  13
ENDBRANCH   8  11
BRANCH   1  19
HETATM   19  N1  UNL     1      24.791   3.699  50.045  1.00  0.00    -0.324 N 
HETATM   20  C3  UNL     1      26.111   4.043  49.725  1.00  0.00     0.244 C 
HETATM   21  O1  UNL     1      27.192   3.476  49.973  1.00  0.00    -0.268 OA
HETATM   22  H4  UNL     1      23.990   4.302  49.750  1.00  0.00     0.169 HD
BRANCH  20  23
HETATM   23  C2  UNL     1      26.308   5.273  48.965  1.00  0.00     0.064 C 
HETATM   24  C1  UNL     1      27.553   5.265  48.572  1.00  0.00     0.017 C 
ENDBRANCH  20  23
ENDBRANCH   1  19
TORSDOF 5
ENDMDL
MODEL 3
REMARK VINA RESULT:      -7.5      3.049      4.066
REMARK  5 active torsions:
REMARK  status: ('A' for Active; 'I' for Inactive)
REMARK    1  A    between atoms: C2_2  and  C3_3 
REMARK       I    between atoms: C3_3  and  N1_5 
REMARK    2  A    between atoms: N1_5  and  C4_6 
REMARK    3  A    between atoms: C9_13  and  N4_14 
REMARK    4  A    between atoms: N4_14  and  C10_15 
REMARK    5  A    between atoms: C11_16  and  C12_18 
ROOT
HETATM    1  C4  UNL     1      25.157  -0.603  54.328  1.00  0.00     0.036 A 
HETATM    2  C5  UNL     1      24.555  -1.262  55.378  1.00  0.00     0.032 A 
HETATM    3  C6  UNL     1      23.182  -1.390  55.508  1.00  0.00     0.035 A 
HETATM    4  C7  UNL     1      22.406  -0.813  54.505  1.00  0.00     0.072 A 
HETATM    5  N2  UNL     1      21.065  -0.903  54.574  1.00  0.00    -0.241 NA
HETATM    6  C8  UNL     1      20.290  -0.343  53.601  1.00  0.00     0.236 A 
HETATM    7  N3  UNL     1      20.843   0.312  52.555  1.00  0.00    -0.224 NA
HETATM    8  C9  UNL     1      22.184   0.420  52.459  1.00  0.00     0.141 A 
HETATM    9  C14 UNL     1      22.999  -0.140  53.431  1.00  0.00     0.041 A 
HETATM   10  C15 UNL     1      24.372  -0.037  53.344  1.00  0.00     0.047 A 
ENDROOT
BRANCH   8  11
HETATM   11  N4  UNL     1      22.860   1.093  51.388  1.00  0.00    -0.347 N 
HETATM   12  H8  UNL     1      23.448   0.408  50.914  1.00  0.00     0.167 HD
BRANCH  11  13
HETATM   13  C10 UNL     1      22.332   2.406  51.561  1.00  0.00     0.129 C 
HETATM   14  C11 UNL     1      23.253   3.087  50.901  1.00  0.00     0.128 C 
HETATM   15  F1  UNL     1      24.007   2.033  50.555  1.00  0.00    -0.208 F 
BRANCH  14  16
HETATM   16  C12 UNL     1      23.310   4.519  50.691  1.00  0.00     0.075 C 
HETATM   17  C13 UNL     1      22.800   5.306  51.605  1.00  0.00     0.099 C 
HETATM   18 CL1  UNL     1      24.076   5.021  49.199  1.00  0.00    -0.117 Cl
ENDBRANCH  14  16
ENDBRANCH  11  13
ENDBRANCH   8  11
BRANCH   1  19
HETATM   19  N1  UNL     1      26.573  -0.579  54.372  1.00  0.00    -0.324 N 
HETATM   20  C3  UNL     1      27.599   0.374  54.445  1.00  0.00     0.244 C 
HETATM   21  O1  UNL     1      27.563   1.618  54.499  1.00  0.00    -0.268 OA
HETATM   22  H4  UNL     1      26.788  -1.601  54.334  1.00  0.00     0.169 HD
BRANCH  20  23
HETATM   23  C2  UNL     1      28.968  -0.130  54.465  1.00  0.00     0.064 C 
HETATM   24  C1  UNL     1      29.055  -0.990  53.485  1.00  0.00     0.017 C 
ENDBRANCH  20  23
ENDBRANCH   1  19
TORSDOF 5
ENDMDL
MODEL 4
REMARK VINA RESULT:      -7.5      1.303      1.620
REMARK  5 active torsions:
REMARK  status: ('A' for Active; 'I' for Inactive)
REMARK    1  A    between atoms: C2_2  and  C3_3 
REMARK       I    between atoms: C3_3  and  N1_5 
REMARK    2  A    between atoms: N1_5  and  C4_6 
REMARK    3  A    between atoms: C9_13  and  N4_14 
REMARK    4  A    between atoms: N4_14  and  C10_15 
REMARK    5  A    between atoms: C11_16  and  C12_18 
ROOT
HETATM    1  C4  UNL     1      26.131   0.111  52.936  1.00  0.00     0.036 A 
HETATM    2  C5  UNL     1      25.192  -0.480  53.754  1.00  0.00     0.032 A 
HETATM    3  C6  UNL     1      23.839  -0.192  53.690  1.00  0.00     0.035 A 
HETATM    4  C7  UNL     1      23.448   0.747  52.738  1.00  0.00     0.072 A 
HETATM    5  N2  UNL     1      22.146   1.070  52.627  1.00  0.00    -0.241 NA
HETATM    6  C8  UNL     1      21.745   1.988  51.700  1.00  0.00     0.236 A 
HETATM    7  N3  UNL     1      22.636   2.590  50.880  1.00  0.00    -0.224 NA
HETATM    8  C9  UNL     1      23.947   2.287  50.968  1.00  0.00     0.141 A 
HETATM    9  C14 UNL     1      24.386   1.358  51.899  1.00  0.00     0.041 A 
HETATM   10  C15 UNL     1      25.724   1.039  51.999  1.00  0.00     0.047 A 
ENDROOT
BRANCH   8  11
HETATM   11  N4  UNL     1      24.963   2.873  50.142  1.00  0.00    -0.347 N 
HETATM   12  H8  UNL     1      25.471   2.112  49.691  1.00  0.00     0.167 HD
BRANCH  11  13
HETATM   13  C10 UNL     1      24.713   4.253  50.398  1.00  0.00     0.129 C 
HETATM   14  C11 UNL     1      25.698   4.775  49.689  1.00  0.00     0.128 C 
HETATM   15  F1  UNL     1      26.206   3.615  49.249  1.00  0.00    -0.208 F 
BRANCH  14  16
HETATM   16  C12 UNL     1      26.015   6.179  49.520  1.00  0.00     0.075 C 
HETATM   17  C13 UNL     1      25.458   7.047  50.327  1.00  0.00     0.099 C 
HETATM   18 CL1  UNL     1      27.134   6.537  48.221  1.00  0.00    -0.117 Cl
ENDBRANCH  14  16
ENDBRANCH  11  13
ENDBRANCH   8  11
BRANCH   1  19
HETATM   19  N1  UNL     1      27.464  -0.315  53.153  1.00  0.00    -0.324 N 
HETATM   20  C3  UNL     1      28.511  -0.056  54.049  1.00  0.00     0.244 C 
HETATM   21  O1  UNL     1      28.584   0.712  55.028  1.00  0.00    -0.268 OA
HETATM   22  H4  UNL     1      27.579  -1.005  52.375  1.00  0.00     0.169 HD
BRANCH  20  23
HETATM   23  C2  UNL     1      29.755  -0.789  53.842  1.00  0.00     0.064 C 
HETATM   24  C1  UNL     1      29.420  -1.934  53.310  1.00  0.00     0.017 C 
ENDBRANCH  20  23
ENDBRANCH   1  19
TORSDOF 5
ENDMDL
MODEL 5
REMARK VINA RESULT:      -7.2      1.405      1.683
REMARK  5 active torsions:
REMARK  status: ('A' for Active; 'I' for Inactive)
REMARK    1  A    between atoms: C2_2  and  C3_3 
REMARK       I    between atoms: C3_3  and  N1_5 
REMARK    2  A    between atoms: N1_5  and  C4_6 
REMARK    3  A    between atoms: C9_13  and  N4_14 
REMARK    4  A    between atoms: N4_14  and  C10_15 
REMARK    5  A    between atoms: C11_16  and  C12_18 
ROOT
HETATM    1  C4  UNL     1      26.322   1.446  51.867  1.00  0.00     0.036 A 
HETATM    2  C5  UNL     1      25.018   1.072  52.112  1.00  0.00     0.032 A 
HETATM    3  C6  UNL     1      23.925   1.701  51.540  1.00  0.00     0.035 A 
HETATM    4  C7  UNL     1      24.200   2.760  50.678  1.00  0.00     0.072 A 
HETATM    5  N2  UNL     1      23.180   3.413  50.090  1.00  0.00    -0.241 NA
HETATM    6  C8  UNL     1      23.430   4.454  49.242  1.00  0.00     0.236 A 
HETATM    7  N3  UNL     1      24.695   4.851  48.977  1.00  0.00    -0.224 NA
HETATM    8  C9  UNL     1      25.738   4.216  49.551  1.00  0.00     0.141 A 
HETATM    9  C14 UNL     1      25.516   3.156  50.416  1.00  0.00     0.041 A 
HETATM   10  C15 UNL     1      26.573   2.498  51.009  1.00  0.00     0.047 A 
ENDROOT
BRANCH   8  11
HETATM   11  N4  UNL     1      27.111   4.566  49.328  1.00  0.00    -0.347 N 
HETATM   12  H8  UNL     1      27.682   3.770  49.611  1.00  0.00     0.167 HD
BRANCH  11  13
HETATM   13  C10 UNL     1      26.941   5.884  48.813  1.00  0.00     0.129 C 
HETATM   14  C11 UNL     1      28.085   6.000  48.163  1.00  0.00     0.128 C 
HETATM   15  F1  UNL     1      28.562   4.785  48.469  1.00  0.00    -0.208 F 
BRANCH  14  16
HETATM   16  C12 UNL     1      28.553   7.138  47.396  1.00  0.00     0.075 C 
HETATM   17  C13 UNL     1      27.682   8.043  47.026  1.00  0.00     0.099 C 
HETATM   18 CL1  UNL     1      30.271   7.148  47.057  1.00  0.00    -0.117 Cl
ENDBRANCH  14  16
ENDBRANCH  11  13
ENDBRANCH   8  11
BRANCH   1  19
HETATM   19  N1  UNL     1      27.300   0.680  52.545  1.00  0.00    -0.324 N 
HETATM   20  C3  UNL     1      27.672   0.395  53.867  1.00  0.00     0.244 C 
HETATM   21  O1  UNL     1      27.196   0.774  54.954  1.00  0.00    -0.268 OA
HETATM   22  H4  UNL     1      27.821   0.266  51.739  1.00  0.00     0.169 HD
BRANCH  20  23
HETATM   23  C2  UNL     1      28.809  -0.499  54.055  1.00  0.00     0.064 C 
HETATM   24  C1  UNL     1      29.838   0.100  53.518  1.00  0.00     0.017 C 
ENDBRANCH  20  23
ENDBRANCH   1  19
TORSDOF 5
ENDMDL
MODEL 6
REMARK VINA RESULT:      -7.2      4.195      6.981
REMARK  5 active torsions:
REMARK  status: ('A' for Active; 'I' for Inactive)
REMARK    1  A    between atoms: C2_2  and  C3_3 
REMARK       I    between atoms: C3_3  and  N1_5 
REMARK    2  A    between atoms: N1_5  and  C4_6 
REMARK    3  A    between atoms: C9_13  and  N4_14 
REMARK    4  A    between atoms: N4_14  and  C10_15 
REMARK    5  A    between atoms: C11_16  and  C12_18 
ROOT
HETATM    1  C4  UNL     1      26.326   2.582  51.613  1.00  0.00     0.036 A 
HETATM    2  C5  UNL     1      27.395   2.234  52.410  1.00  0.00     0.032 A 
HETATM    3  C6  UNL     1      27.328   1.258  53.390  1.00  0.00     0.035 A 
HETATM    4  C7  UNL     1      26.100   0.618  53.546  1.00  0.00     0.072 A 
HETATM    5  N2  UNL     1      25.970  -0.340  54.482  1.00  0.00    -0.241 NA
HETATM    6  C8  UNL     1      24.775  -0.977  54.648  1.00  0.00     0.236 A 
HETATM    7  N3  UNL     1      23.703  -0.664  53.887  1.00  0.00    -0.224 NA
HETATM    8  C9  UNL     1      23.802   0.292  52.940  1.00  0.00     0.141 A 
HETATM    9  C14 UNL     1      25.003   0.957  52.747  1.00  0.00     0.041 A 
HETATM   10  C15 UNL     1      25.118   1.937  51.783  1.00  0.00     0.047 A 
ENDROOT
BRANCH   8  11
HETATM   11  N4  UNL     1      22.721   0.691  52.086  1.00  0.00    -0.347 N 
HETATM   12  H8  UNL     1      23.122   1.195  51.296  1.00  0.00     0.167 HD
BRANCH  11  13
HETATM   13  C10 UNL     1      21.625   0.152  52.821  1.00  0.00     0.129 C 
HETATM   14  C11 UNL     1      20.681   0.276  51.904  1.00  0.00     0.128 C 
HETATM   15  F1  UNL     1      21.457   0.820  50.955  1.00  0.00    -0.208 F 
BRANCH  14  16
HETATM   16  C12 UNL     1      19.286  -0.099  52.017  1.00  0.00     0.075 C 
HETATM   17  C13 UNL     1      18.450   0.317  51.099  1.00  0.00     0.099 C 
HETATM   18 CL1  UNL     1      18.894  -1.088  53.408  1.00  0.00    -0.117 Cl
ENDBRANCH  14  16
ENDBRANCH  11  13
ENDBRANCH   8  11
BRANCH   1  19
HETATM   19  N1  UNL     1      26.593   3.603  50.668  1.00  0.00    -0.324 N 
HETATM   20  C3  UNL     1      25.915   4.285  49.648  1.00  0.00     0.244 C 
HETATM   21  O1  UNL     1      24.747   4.182  49.226  1.00  0.00    -0.268 OA
HETATM   22  H4  UNL     1      27.590   3.823  50.893  1.00  0.00     0.169 HD
BRANCH  20  23
HETATM   23  C2  UNL     1      26.665   5.305  48.924  1.00  0.00     0.064 C 
HETATM   24  C1  UNL     1      27.817   4.768  48.624  1.00  0.00     0.017 C 
ENDBRANCH  20  23
ENDBRANCH   1  19
TORSDOF 5
ENDMDL
MODEL 7
REMARK VINA RESULT:      -7.1      4.306      6.544
REMARK  5 active torsions:
REMARK  status: ('A' for Active; 'I' for Inactive)
REMARK    1  A    between atoms: C2_2  and  C3_3 
REMARK       I    between atoms: C3_3  and  N1_5 
REMARK    2  A    between atoms: N1_5  and  C4_6 
REMARK    3  A    between atoms: C9_13  and  N4_14 
REMARK    4  A    between atoms: N4_14  and  C10_15 
REMARK    5  A    between atoms: C11_16  and  C12_18 
ROOT
HETATM    1  C4  UNL     1      20.778  -0.541  53.422  1.00  0.00     0.036 A 
HETATM    2  C5  UNL     1      21.140  -1.314  54.505  1.00  0.00     0.032 A 
HETATM    3  C6  UNL     1      22.445  -1.434  54.951  1.00  0.00     0.035 A 
HETATM    4  C7  UNL     1      23.412  -0.720  54.245  1.00  0.00     0.072 A 
HETATM    5  N2  UNL     1      24.699  -0.795  54.630  1.00  0.00    -0.241 NA
HETATM    6  C8  UNL     1      25.659  -0.103  53.950  1.00  0.00     0.236 A 
HETATM    7  N3  UNL     1      25.343   0.666  52.883  1.00  0.00    -0.224 NA
HETATM    8  C9  UNL     1      24.062   0.761  52.474  1.00  0.00     0.141 A 
HETATM    9  C14 UNL     1      23.064   0.070  53.144  1.00  0.00     0.041 A 
HETATM   10  C15 UNL     1      21.750   0.158  52.736  1.00  0.00     0.047 A 
ENDROOT
BRANCH   8  11
HETATM   11  N4  UNL     1      23.633   1.551  51.356  1.00  0.00    -0.347 N 
HETATM   12  H8  UNL     1      22.696   1.241  51.100  1.00  0.00     0.167 HD
BRANCH  11  13
HETATM   13  C10 UNL     1      24.784   2.375  51.190  1.00  0.00     0.129 C 
HETATM   14  C11 UNL     1      24.385   3.079  50.146  1.00  0.00     0.128 C 
HETATM   15  F1  UNL     1      23.186   2.494  50.013  1.00  0.00    -0.208 F 
BRANCH  14  16
HETATM   16  C12 UNL     1      25.113   4.126  49.457  1.00  0.00     0.075 C 
HETATM   17  C13 UNL     1      24.445   5.157  49.003  1.00  0.00     0.099 C 
HETATM   18 CL1  UNL     1      26.839   3.864  49.321  1.00  0.00    -0.117 Cl
ENDBRANCH  14  16
ENDBRANCH  11  13
ENDBRANCH   8  11
BRANCH   1  19
HETATM   19  N1  UNL     1      19.394  -0.547  53.121  1.00  0.00    -0.324 N 
HETATM   20  C3  UNL     1      18.292  -1.396  53.292  1.00  0.00     0.244 C 
HETATM   21  O1  UNL     1      18.195  -2.522  53.818  1.00  0.00    -0.268 OA
HETATM   22  H4  UNL     1      19.292   0.380  52.649  1.00  0.00     0.169 HD
BRANCH  20  23
HETATM   23  C2  UNL     1      17.010  -0.925  52.782  1.00  0.00     0.064 C 
HETATM   24  C1  UNL     1      17.264  -0.329  51.648  1.00  0.00     0.017 C 
ENDBRANCH  20  23
ENDBRANCH   1  19
TORSDOF 5
ENDMDL
MODEL 8
REMARK VINA RESULT:      -7.0      3.297      6.489
REMARK  5 active torsions:
REMARK  status: ('A' for Active; 'I' for Inactive)
REMARK    1  A    between atoms: C2_2  and  C3_3 
REMARK       I    between atoms: C3_3  and  N1_5 
REMARK    2  A    between atoms: N1_5  and  C4_6 
REMARK    3  A    between atoms: C9_13  and  N4_14 
REMARK    4  A    between atoms: N4_14  and  C10_15 
REMARK    5  A    between atoms: C11_16  and  C12_18 
ROOT
HETATM    1  C4  UNL     1      25.511   4.864  49.254  1.00  0.00     0.036 A 
HETATM    2  C5  UNL     1      24.233   5.077  48.782  1.00  0.00     0.032 A 
HETATM    3  C6  UNL     1      23.144   4.312  49.163  1.00  0.00     0.035 A 
HETATM    4  C7  UNL     1      23.393   3.286  50.073  1.00  0.00     0.072 A 
HETATM    5  N2  UNL     1      22.375   2.507  50.482  1.00  0.00    -0.241 NA
HETATM    6  C8  UNL     1      22.601   1.497  51.372  1.00  0.00     0.236 A 
HETATM    7  N3  UNL     1      23.839   1.256  51.858  1.00  0.00    -0.224 NA
HETATM    8  C9  UNL     1      24.880   2.020  51.466  1.00  0.00     0.141 A 
HETATM    9  C14 UNL     1      24.682   3.054  50.563  1.00  0.00     0.041 A 
HETATM   10  C15 UNL     1      25.737   3.843  50.154  1.00  0.00     0.047 A 
ENDROOT
BRANCH   8  11
HETATM   11  N4  UNL     1      26.226   1.840  51.927  1.00  0.00    -0.347 N 
HETATM   12  H8  UNL     1      26.708   2.734  51.829  1.00  0.00     0.167 HD
BRANCH  11  13
HETATM   13  C10 UNL     1      26.173   0.462  52.288  1.00  0.00     0.129 C 
HETATM   14  C11 UNL     1      27.438   0.288  52.624  1.00  0.00     0.128 C 
HETATM   15  F1  UNL     1      27.839   1.544  52.376  1.00  0.00    -0.208 F 
BRANCH  14  16
HETATM   16  C12 UNL     1      28.066  -0.929  53.099  1.00  0.00     0.075 C 
HETATM   17  C13 UNL     1      29.145  -0.830  53.834  1.00  0.00     0.099 C 
HETATM   18 CL1  UNL     1      27.274  -2.412  52.611  1.00  0.00    -0.117 Cl
ENDBRANCH  14  16
ENDBRANCH  11  13
ENDBRANCH   8  11
BRANCH   1  19
HETATM   19  N1  UNL     1      26.490   5.752  48.747  1.00  0.00    -0.324 N 
HETATM   20  C3  UNL     1      27.846   5.719  48.393  1.00  0.00     0.244 C 
HETATM   21  O1  UNL     1      28.681   4.795  48.424  1.00  0.00    -0.268 OA
HETATM   22  H4  UNL     1      25.931   6.630  48.654  1.00  0.00     0.169 HD
BRANCH  20  23
HETATM   23  C2  UNL     1      28.429   6.959  47.894  1.00  0.00     0.064 C 
HETATM   24  C1  UNL     1      27.432   7.685  47.463  1.00  0.00     0.017 C 
ENDBRANCH  20  23
ENDBRANCH   1  19
TORSDOF 5
ENDMDL
MODEL 9
REMARK VINA RESULT:      -7.0      3.900      6.075
REMARK  5 active torsions:
REMARK  status: ('A' for Active; 'I' for Inactive)
REMARK    1  A    between atoms: C2_2  and  C3_3 
REMARK       I    between atoms: C3_3  and  N1_5 
REMARK    2  A    between atoms: N1_5  and  C4_6 
REMARK    3  A    between atoms: C9_13  and  N4_14 
REMARK    4  A    between atoms: N4_14  and  C10_15 
REMARK    5  A    between atoms: C11_16  and  C12_18 
ROOT
HETATM    1  C4  UNL     1      26.130   1.072  51.926  1.00  0.00     0.036 A 
HETATM    2  C5  UNL     1      26.602   2.129  51.177  1.00  0.00     0.032 A 
HETATM    3  C6  UNL     1      25.798   3.166  50.735  1.00  0.00     0.035 A 
HETATM    4  C7  UNL     1      24.452   3.102  51.086  1.00  0.00     0.072 A 
HETATM    5  N2  UNL     1      23.618   4.081  50.685  1.00  0.00    -0.241 NA
HETATM    6  C8  UNL     1      22.296   4.034  51.020  1.00  0.00     0.236 A 
HETATM    7  N3  UNL     1      21.795   3.014  51.752  1.00  0.00    -0.224 NA
HETATM    8  C9  UNL     1      22.605   2.019  52.168  1.00  0.00     0.141 A 
HETATM    9  C14 UNL     1      23.953   2.038  51.845  1.00  0.00     0.041 A 
HETATM   10  C15 UNL     1      24.792   1.026  52.263  1.00  0.00     0.047 A 
ENDROOT
BRANCH   8  11
HETATM   11  N4  UNL     1      22.164   0.899  52.948  1.00  0.00    -0.347 N 
HETATM   12  H8  UNL     1      22.680   0.912  53.827  1.00  0.00     0.167 HD
BRANCH  11  13
HETATM   13  C10 UNL     1      21.207   0.343  52.049  1.00  0.00     0.129 C 
HETATM   14  C11 UNL     1      20.254   0.052  52.917  1.00  0.00     0.128 C 
HETATM   15  F1  UNL     1      20.896   0.497  54.007  1.00  0.00    -0.208 F 
BRANCH  14  16
HETATM   16  C12 UNL     1      18.967  -0.554  52.643  1.00  0.00     0.075 C 
HETATM   17  C13 UNL     1      18.487  -1.417  53.502  1.00  0.00     0.099 C 
HETATM   18 CL1  UNL     1      18.204  -0.037  51.154  1.00  0.00    -0.117 Cl
ENDBRANCH  14  16
ENDBRANCH  11  13
ENDBRANCH   8  11
BRANCH   1  19
HETATM   19  N1  UNL     1      27.106   0.111  52.283  1.00  0.00    -0.324 N 
HETATM   20  C3  UNL     1      27.612  -0.480  53.449  1.00  0.00     0.244 C 
HETATM   21  O1  UNL     1      27.316  -0.316  54.649  1.00  0.00    -0.268 OA
HETATM   22  H4  UNL     1      27.477  -0.152  51.342  1.00  0.00     0.169 HD
BRANCH  20  23
HETATM   23  C2  UNL     1      28.670  -1.470  53.283  1.00  0.00     0.064 C 
HETATM   24  C1  UNL     1      29.797  -0.835  53.469  1.00  0.00     0.017 C 
ENDBRANCH  20  23
ENDBRANCH   1  19
TORSDOF 5
ENDMDL
