MODEL 1
REMARK VINA RESULT:      -7.9      0.000      0.000
REMARK  3 active torsions:
REMARK  status: ('A' for Active; 'I' for Inactive)
REMARK    1  A    between atoms: N1_7  and  C7_8 
REMARK    2  A    between atoms: C11_14  and  O1_15 
REMARK    3  A    between atoms: O1_15  and  C12_16 
ROOT
HETATM    1  C1  UNL     1      18.368   4.192  51.243  1.00  0.00     0.012 C 
HETATM    2  C2  UNL     1      19.061   3.207  51.350  1.00  0.00    -0.107 C 
HETATM    3  C3  UNL     1      19.903   2.002  51.456  1.00  0.00     0.104 C 
HETATM    4  C4  UNL     1      19.788   1.246  50.188  1.00  0.00    -0.010 C 
HETATM    5  C5  UNL     1      20.837   0.953  49.412  1.00  0.00    -0.010 C 
HETATM    6  C6  UNL     1      22.224   1.399  49.817  1.00  0.00     0.151 C 
HETATM    7  N1  UNL     1      22.268   1.379  51.265  1.00  0.00    -0.360 N 
HETATM    8  C19 UNL     1      21.315   2.367  51.793  1.00  0.00     0.146 C 
ENDROOT
BRANCH   7   9
HETATM    9  C7  UNL     1      22.960   0.676  52.301  1.00  0.00     0.142 A 
HETATM   10  N2  UNL     1      22.109  -0.157  52.923  1.00  0.00    -0.224 NA
HETATM   11  C8  UNL     1      22.567  -0.945  53.943  1.00  0.00     0.236 A 
HETATM   12  N3  UNL     1      23.872  -0.892  54.331  1.00  0.00    -0.241 NA
HETATM   13  C9  UNL     1      24.740  -0.067  53.725  1.00  0.00     0.077 A 
HETATM   14  C10 UNL     1      26.075   0.060  54.046  1.00  0.00     0.072 A 
HETATM   15  C16 UNL     1      24.277   0.721  52.703  1.00  0.00     0.075 A 
HETATM   16  C11 UNL     1      26.895   0.943  53.365  1.00  0.00     0.107 A 
HETATM   17  C14 UNL     1      26.376   1.727  52.329  1.00  0.00     0.136 A 
HETATM   18  C15 UNL     1      25.041   1.617  51.988  1.00  0.00     0.121 A 
HETATM   19  O3  UNL     1      27.168   2.635  51.613  1.00  0.00    -0.344 OA
HETATM   20  O2  UNL     1      24.561   2.393  50.978  1.00  0.00    -0.345 OA
HETATM   21  C17 UNL     1      25.318   3.232  50.140  1.00  0.00     0.202 C 
HETATM   22  C18 UNL     1      26.790   3.072  50.316  1.00  0.00     0.202 C 
BRANCH  16  23
HETATM   23  O1  UNL     1      28.222   1.109  53.641  1.00  0.00    -0.348 OA
BRANCH  23  24
HETATM   24  C12 UNL     1      29.041   0.241  54.389  1.00  0.00     0.171 C 
HETATM   25  C13 UNL     1      29.755  -0.689  53.458  1.00  0.00     0.034 C 
ENDBRANCH  23  24
ENDBRANCH  16  23
ENDBRANCH   7   9
TORSDOF 3
ENDMDL
MODEL 2
REMARK VINA RESULT:      -7.7      2.793      6.044
REMARK  3 active torsions:
REMARK  status: ('A' for Active; 'I' for Inactive)
REMARK    1  A    between atoms: N1_7  and  C7_8 
REMARK    2  A    between atoms: C11_14  and  O1_15 
REMARK    3  A    between atoms: O1_15  and  C12_16 
ROOT
HETATM    1  C1  UNL     1      26.522   8.773  50.461  1.00  0.00     0.012 C 
HETATM    2  C2  UNL     1      26.136   7.759  49.928  1.00  0.00    -0.107 C 
HETATM    3  C3  UNL     1      25.690   6.516  49.273  1.00  0.00     0.104 C 
HETATM    4  C4  UNL     1      26.834   5.956  48.517  1.00  0.00    -0.010 C 
HETATM    5  C5  UNL     1      27.328   4.734  48.737  1.00  0.00    -0.010 C 
HETATM    6  C6  UNL     1      26.715   3.851  49.801  1.00  0.00     0.151 C 
HETATM    7  N1  UNL     1      25.302   4.163  49.845  1.00  0.00    -0.360 N 
HETATM    8  C19 UNL     1      25.126   5.559  50.275  1.00  0.00     0.146 C 
ENDROOT
BRANCH   7   9
HETATM    9  C7  UNL     1      24.056   3.508  49.586  1.00  0.00     0.142 A 
HETATM   10  N2  UNL     1      23.510   4.009  48.466  1.00  0.00    -0.224 NA
HETATM   11  C8  UNL     1      22.318   3.512  48.020  1.00  0.00     0.236 A 
HETATM   12  N3  UNL     1      21.681   2.517  48.699  1.00  0.00    -0.241 NA
HETATM   13  C9  UNL     1      22.207   2.000  49.821  1.00  0.00     0.077 A 
HETATM   14  C10 UNL     1      21.640   0.997  50.578  1.00  0.00     0.072 A 
HETATM   15  C16 UNL     1      23.404   2.502  50.265  1.00  0.00     0.075 A 
HETATM   16  C11 UNL     1      22.257   0.530  51.725  1.00  0.00     0.107 A 
HETATM   17  C14 UNL     1      23.477   1.074  52.139  1.00  0.00     0.136 A 
HETATM   18  C15 UNL     1      24.066   2.080  51.396  1.00  0.00     0.121 A 
HETATM   19  O3  UNL     1      24.137   0.633  53.293  1.00  0.00    -0.344 OA
HETATM   20  O2  UNL     1      25.252   2.594  51.821  1.00  0.00    -0.345 OA
HETATM   21  C17 UNL     1      26.027   2.121  52.897  1.00  0.00     0.202 C 
HETATM   22  C18 UNL     1      25.533   0.834  53.462  1.00  0.00     0.202 C 
BRANCH  16  23
HETATM   23  O1  UNL     1      21.740  -0.461  52.512  1.00  0.00    -0.348 OA
BRANCH  23  24
HETATM   24  C12 UNL     1      20.852  -0.299  53.592  1.00  0.00     0.171 C 
HETATM   25  C13 UNL     1      21.438  -0.936  54.814  1.00  0.00     0.034 C 
ENDBRANCH  23  24
ENDBRANCH  16  23
ENDBRANCH   7   9
TORSDOF 3
ENDMDL
MODEL 3
REMARK VINA RESULT:      -7.6      2.327      6.820
REMARK  3 active torsions:
REMARK  status: ('A' for Active; 'I' for Inactive)
REMARK    1  A    between atoms: N1_7  and  C7_8 
REMARK    2  A    between atoms: C11_14  and  O1_15 
REMARK    3  A    between atoms: O1_15  and  C12_16 
ROOT
HETATM    1  C1  UNL     1      29.420  -1.427  53.018  1.00  0.00     0.012 C 
HETATM    2  C2  UNL     1      28.379  -1.013  53.474  1.00  0.00    -0.107 C 
HETATM    3  C3  UNL     1      27.119  -0.485  54.027  1.00  0.00     0.104 C 
HETATM    4  C4  UNL     1      27.327   0.941  54.369  1.00  0.00    -0.010 C 
HETATM    5  C5  UNL     1      26.597   1.932  53.847  1.00  0.00    -0.010 C 
HETATM    6  C6  UNL     1      25.497   1.620  52.858  1.00  0.00     0.151 C 
HETATM    7  N1  UNL     1      24.949   0.331  53.228  1.00  0.00    -0.360 N 
HETATM    8  C19 UNL     1      25.987  -0.700  53.073  1.00  0.00     0.146 C 
ENDROOT
BRANCH   7   9
HETATM    9  C7  UNL     1      23.709  -0.206  53.699  1.00  0.00     0.142 A 
HETATM   10  N2  UNL     1      23.925  -0.920  54.816  1.00  0.00    -0.224 NA
HETATM   11  C8  UNL     1      22.867  -1.512  55.448  1.00  0.00     0.236 A 
HETATM   12  N3  UNL     1      21.603  -1.385  54.957  1.00  0.00    -0.241 NA
HETATM   13  C9  UNL     1      21.363  -0.677  53.842  1.00  0.00     0.077 A 
HETATM   14  C10 UNL     1      20.123  -0.493  53.267  1.00  0.00     0.072 A 
HETATM   15  C16 UNL     1      22.426  -0.085  53.211  1.00  0.00     0.075 A 
HETATM   16  C11 UNL     1      19.974   0.253  52.111  1.00  0.00     0.107 A 
HETATM   17  C14 UNL     1      21.089   0.837  51.503  1.00  0.00     0.136 A 
HETATM   18  C15 UNL     1      22.342   0.668  52.061  1.00  0.00     0.121 A 
HETATM   19  O3  UNL     1      20.986   1.600  50.332  1.00  0.00    -0.344 OA
HETATM   20  O2  UNL     1      23.412   1.245  51.449  1.00  0.00    -0.345 OA
HETATM   21  C17 UNL     1      23.368   2.119  50.345  1.00  0.00     0.202 C 
HETATM   22  C18 UNL     1      21.987   2.544  49.980  1.00  0.00     0.202 C 
BRANCH  16  23
HETATM   23  O1  UNL     1      18.771   0.467  51.499  1.00  0.00    -0.348 OA
BRANCH  23  24
HETATM   24  C12 UNL     1      17.736  -0.472  51.327  1.00  0.00     0.171 C 
HETATM   25  C13 UNL     1      16.972  -0.143  50.082  1.00  0.00     0.034 C 
ENDBRANCH  23  24
ENDBRANCH  16  23
ENDBRANCH   7   9
TORSDOF 3
ENDMDL
MODEL 4
REMARK VINA RESULT:      -7.5      2.185      3.739
REMARK  3 active torsions:
REMARK  status: ('A' for Active; 'I' for Inactive)
REMARK    1  A    between atoms: N1_7  and  C7_8 
REMARK    2  A    between atoms: C11_14  and  O1_15 
REMARK    3  A    between atoms: O1_15  and  C12_16 
ROOT
HETATM    1  C1  UNL     1      19.149   2.867  47.904  1.00  0.00     0.012 C 
HETATM    2  C2  UNL     1      20.132   3.267  48.484  1.00  0.00    -0.107 C 
HETATM    3  C3  UNL     1      21.316   3.765  49.208  1.00  0.00     0.104 C 
HETATM    4  C4  UNL     1      20.871   4.818  50.149  1.00  0.00    -0.010 C 
HETATM    5  C5  UNL     1      21.067   4.750  51.470  1.00  0.00    -0.010 C 
HETATM    6  C6  UNL     1      21.775   3.554  52.067  1.00  0.00     0.151 C 
HETATM    7  N1  UNL     1      22.744   3.105  51.089  1.00  0.00    -0.360 N 
HETATM    8  C19 UNL     1      22.038   2.643  49.884  1.00  0.00     0.146 C 
ENDROOT
BRANCH   7   9
HETATM    9  C7  UNL     1      24.165   2.994  50.969  1.00  0.00     0.142 A 
HETATM   10  N2  UNL     1      24.630   3.995  50.203  1.00  0.00    -0.224 NA
HETATM   11  C8  UNL     1      25.973   4.093  49.969  1.00  0.00     0.236 A 
HETATM   12  N3  UNL     1      26.840   3.188  50.503  1.00  0.00    -0.241 NA
HETATM   13  C9  UNL     1      26.399   2.178  51.270  1.00  0.00     0.077 A 
HETATM   14  C10 UNL     1      27.195   1.213  51.851  1.00  0.00     0.072 A 
HETATM   15  C16 UNL     1      25.051   2.084  51.502  1.00  0.00     0.075 A 
HETATM   16  C11 UNL     1      26.647   0.206  52.626  1.00  0.00     0.107 A 
HETATM   17  C14 UNL     1      25.266   0.151  52.834  1.00  0.00     0.136 A 
HETATM   18  C15 UNL     1      24.447   1.107  52.263  1.00  0.00     0.121 A 
HETATM   19  O3  UNL     1      24.667  -0.851  53.611  1.00  0.00    -0.344 OA
HETATM   20  O2  UNL     1      23.106   1.030  52.479  1.00  0.00    -0.345 OA
HETATM   21  C17 UNL     1      22.451   0.129  53.340  1.00  0.00     0.202 C 
HETATM   22  C18 UNL     1      23.385  -0.662  54.191  1.00  0.00     0.202 C 
BRANCH  16  23
HETATM   23  O1  UNL     1      27.387  -0.775  53.225  1.00  0.00    -0.348 OA
BRANCH  23  24
HETATM   24  C12 UNL     1      28.505  -0.592  54.061  1.00  0.00     0.171 C 
HETATM   25  C13 UNL     1      29.723  -1.141  53.385  1.00  0.00     0.034 C 
ENDBRANCH  23  24
ENDBRANCH  16  23
ENDBRANCH   7   9
TORSDOF 3
ENDMDL
MODEL 5
REMARK VINA RESULT:      -7.1      3.006      4.578
REMARK  3 active torsions:
REMARK  status: ('A' for Active; 'I' for Inactive)
REMARK    1  A    between atoms: N1_7  and  C7_8 
REMARK    2  A    between atoms: C11_14  and  O1_15 
REMARK    3  A    between atoms: O1_15  and  C12_16 
ROOT
HETATM    1  C1  UNL     1      20.422   3.923  45.478  1.00  0.00     0.012 C 
HETATM    2  C2  UNL     1      21.279   4.279  46.253  1.00  0.00    -0.107 C 
HETATM    3  C3  UNL     1      22.309   4.728  47.208  1.00  0.00     0.104 C 
HETATM    4  C4  UNL     1      21.829   5.973  47.851  1.00  0.00    -0.010 C 
HETATM    5  C5  UNL     1      21.670   6.100  49.172  1.00  0.00    -0.010 C 
HETATM    6  C6  UNL     1      21.985   4.937  50.086  1.00  0.00     0.151 C 
HETATM    7  N1  UNL     1      23.077   4.206  49.478  1.00  0.00    -0.360 N 
HETATM    8  C19 UNL     1      22.630   3.648  48.192  1.00  0.00     0.146 C 
ENDROOT
BRANCH   7   9
HETATM    9  C7  UNL     1      24.441   3.888  49.769  1.00  0.00     0.142 A 
HETATM   10  N2  UNL     1      25.250   4.707  49.078  1.00  0.00    -0.224 NA
HETATM   11  C8  UNL     1      26.605   4.589  49.220  1.00  0.00     0.236 A 
HETATM   12  N3  UNL     1      27.138   3.653  50.054  1.00  0.00    -0.241 NA
HETATM   13  C9  UNL     1      26.349   2.823  50.755  1.00  0.00     0.077 A 
HETATM   14  C10 UNL     1      26.792   1.843  51.620  1.00  0.00     0.072 A 
HETATM   15  C16 UNL     1      24.991   2.944  50.609  1.00  0.00     0.075 A 
HETATM   16  C11 UNL     1      25.901   1.031  52.298  1.00  0.00     0.107 A 
HETATM   17  C14 UNL     1      24.523   1.193  52.116  1.00  0.00     0.136 A 
HETATM   18  C15 UNL     1      24.055   2.168  51.255  1.00  0.00     0.121 A 
HETATM   19  O3  UNL     1      23.584   0.393  52.781  1.00  0.00    -0.344 OA
HETATM   20  O2  UNL     1      22.711   2.303  51.094  1.00  0.00    -0.345 OA
HETATM   21  C17 UNL     1      21.712   1.621  51.815  1.00  0.00     0.202 C 
HETATM   22  C18 UNL     1      22.245   0.830  52.961  1.00  0.00     0.202 C 
BRANCH  16  23
HETATM   23  O1  UNL     1      26.283   0.047  53.165  1.00  0.00    -0.348 OA
BRANCH  23  24
HETATM   24  C12 UNL     1      26.894  -1.177  52.832  1.00  0.00     0.171 C 
HETATM   25  C13 UNL     1      28.344  -1.122  53.198  1.00  0.00     0.034 C 
ENDBRANCH  23  24
ENDBRANCH  16  23
ENDBRANCH   7   9
TORSDOF 3
ENDMDL
MODEL 6
REMARK VINA RESULT:      -6.9      1.436      1.988
REMARK  3 active torsions:
REMARK  status: ('A' for Active; 'I' for Inactive)
REMARK    1  A    between atoms: N1_7  and  C7_8 
REMARK    2  A    between atoms: C11_14  and  O1_15 
REMARK    3  A    between atoms: O1_15  and  C12_16 
ROOT
HETATM    1  C1  UNL     1      16.566   4.273  51.688  1.00  0.00     0.012 C 
HETATM    2  C2  UNL     1      17.204   3.247  51.743  1.00  0.00    -0.107 C 
HETATM    3  C3  UNL     1      17.977   1.993  51.785  1.00  0.00     0.104 C 
HETATM    4  C4  UNL     1      17.654   1.211  50.569  1.00  0.00    -0.010 C 
HETATM    5  C5  UNL     1      18.575   0.829  49.680  1.00  0.00    -0.010 C 
HETATM    6  C6  UNL     1      20.027   1.193  49.891  1.00  0.00     0.151 C 
HETATM    7  N1  UNL     1      20.254   1.210  51.321  1.00  0.00    -0.360 N 
HETATM    8  C19 UNL     1      19.440   2.273  51.929  1.00  0.00     0.146 C 
ENDROOT
BRANCH   7   9
HETATM    9  C7  UNL     1      21.028   0.491  52.287  1.00  0.00     0.142 A 
HETATM   10  N2  UNL     1      20.236  -0.370  52.946  1.00  0.00    -0.224 NA
HETATM   11  C8  UNL     1      20.776  -1.175  53.909  1.00  0.00     0.236 A 
HETATM   12  N3  UNL     1      22.104  -1.113  54.205  1.00  0.00    -0.241 NA
HETATM   13  C9  UNL     1      22.916  -0.260  53.560  1.00  0.00     0.077 A 
HETATM   14  C10 UNL     1      24.269  -0.120  53.789  1.00  0.00     0.072 A 
HETATM   15  C16 UNL     1      22.370   0.547  52.595  1.00  0.00     0.075 A 
HETATM   16  C11 UNL     1      25.025   0.791  53.074  1.00  0.00     0.107 A 
HETATM   17  C14 UNL     1      24.423   1.593  52.099  1.00  0.00     0.136 A 
HETATM   18  C15 UNL     1      23.069   1.472  51.851  1.00  0.00     0.121 A 
HETATM   19  O3  UNL     1      25.150   2.530  51.352  1.00  0.00    -0.344 OA
HETATM   20  O2  UNL     1      22.507   2.265  50.899  1.00  0.00    -0.345 OA
HETATM   21  C17 UNL     1      23.192   3.137  50.031  1.00  0.00     0.202 C 
HETATM   22  C18 UNL     1      24.674   2.995  50.097  1.00  0.00     0.202 C 
BRANCH  16  23
HETATM   23  O1  UNL     1      26.367   0.971  53.259  1.00  0.00    -0.348 OA
BRANCH  23  24
HETATM   24  C12 UNL     1      27.338  -0.039  53.401  1.00  0.00     0.171 C 
HETATM   25  C13 UNL     1      28.111   0.193  54.661  1.00  0.00     0.034 C 
ENDBRANCH  23  24
ENDBRANCH  16  23
ENDBRANCH   7   9
TORSDOF 3
ENDMDL
MODEL 7
REMARK VINA RESULT:      -6.7      3.349      5.802
REMARK  3 active torsions:
REMARK  status: ('A' for Active; 'I' for Inactive)
REMARK    1  A    between atoms: N1_7  and  C7_8 
REMARK    2  A    between atoms: C11_14  and  O1_15 
REMARK    3  A    between atoms: O1_15  and  C12_16 
ROOT
HETATM    1  C1  UNL     1      22.884   7.464  45.752  1.00  0.00     0.012 C 
HETATM    2  C2  UNL     1      23.483   7.072  46.727  1.00  0.00    -0.107 C 
HETATM    3  C3  UNL     1      24.208   6.615  47.927  1.00  0.00     0.104 C 
HETATM    4  C4  UNL     1      24.409   7.782  48.816  1.00  0.00    -0.010 C 
HETATM    5  C5  UNL     1      23.954   7.832  50.072  1.00  0.00    -0.010 C 
HETATM    6  C6  UNL     1      23.193   6.659  50.647  1.00  0.00     0.151 C 
HETATM    7  N1  UNL     1      23.740   5.463  50.040  1.00  0.00    -0.360 N 
HETATM    8  C19 UNL     1      23.479   5.490  48.593  1.00  0.00     0.146 C 
ENDROOT
BRANCH   7   9
HETATM    9  C7  UNL     1      24.453   4.291  50.447  1.00  0.00     0.142 A 
HETATM   10  N2  UNL     1      25.756   4.437  50.160  1.00  0.00    -0.224 NA
HETATM   11  C8  UNL     1      26.630   3.435  50.481  1.00  0.00     0.236 A 
HETATM   12  N3  UNL     1      26.192   2.297  51.088  1.00  0.00    -0.241 NA
HETATM   13  C9  UNL     1      24.893   2.128  51.384  1.00  0.00     0.077 A 
HETATM   14  C10 UNL     1      24.353   1.015  51.992  1.00  0.00     0.072 A 
HETATM   15  C16 UNL     1      24.020   3.135  51.060  1.00  0.00     0.075 A 
HETATM   16  C11 UNL     1      22.997   0.930  52.256  1.00  0.00     0.107 A 
HETATM   17  C14 UNL     1      22.146   1.982  51.906  1.00  0.00     0.136 A 
HETATM   18  C15 UNL     1      22.663   3.109  51.295  1.00  0.00     0.121 A 
HETATM   19  O3  UNL     1      20.767   1.940  52.152  1.00  0.00    -0.344 OA
HETATM   20  O2  UNL     1      21.814   4.119  50.963  1.00  0.00    -0.345 OA
HETATM   21  C17 UNL     1      20.446   4.196  51.286  1.00  0.00     0.202 C 
HETATM   22  C18 UNL     1      19.998   3.131  52.229  1.00  0.00     0.202 C 
BRANCH  16  23
HETATM   23  O1  UNL     1      22.409  -0.148  52.856  1.00  0.00    -0.348 OA
BRANCH  23  24
HETATM   24  C12 UNL     1      22.884  -0.846  53.983  1.00  0.00     0.171 C 
HETATM   25  C13 UNL     1      21.723  -1.266  54.829  1.00  0.00     0.034 C 
ENDBRANCH  23  24
ENDBRANCH  16  23
ENDBRANCH   7   9
TORSDOF 3
ENDMDL
MODEL 8
REMARK VINA RESULT:      -6.7      3.236      6.923
REMARK  3 active torsions:
REMARK  status: ('A' for Active; 'I' for Inactive)
REMARK    1  A    between atoms: N1_7  and  C7_8 
REMARK    2  A    between atoms: C11_14  and  O1_15 
REMARK    3  A    between atoms: O1_15  and  C12_16 
ROOT
HETATM    1  C1  UNL     1      27.328   9.125  50.329  1.00  0.00     0.012 C 
HETATM    2  C2  UNL     1      26.778   8.210  49.760  1.00  0.00    -0.107 C 
HETATM    3  C3  UNL     1      26.131   7.084  49.063  1.00  0.00     0.104 C 
HETATM    4  C4  UNL     1      27.184   6.298  48.379  1.00  0.00    -0.010 C 
HETATM    5  C5  UNL     1      27.400   5.001  48.618  1.00  0.00    -0.010 C 
HETATM    6  C6  UNL     1      26.548   4.267  49.628  1.00  0.00     0.151 C 
HETATM    7  N1  UNL     1      25.229   4.863  49.581  1.00  0.00    -0.360 N 
HETATM    8  C19 UNL     1      25.316   6.267  50.015  1.00  0.00     0.146 C 
ENDROOT
BRANCH   7   9
HETATM    9  C7  UNL     1      23.896   4.478  49.233  1.00  0.00     0.142 A 
HETATM   10  N2  UNL     1      23.532   5.098  48.098  1.00  0.00    -0.224 NA
HETATM   11  C8  UNL     1      22.294   4.860  47.571  1.00  0.00     0.236 A 
HETATM   12  N3  UNL     1      21.429   4.003  48.183  1.00  0.00    -0.241 NA
HETATM   13  C9  UNL     1      21.770   3.372  49.318  1.00  0.00     0.077 A 
HETATM   14  C10 UNL     1      20.967   2.492  50.012  1.00  0.00     0.072 A 
HETATM   15  C16 UNL     1      23.014   3.614  49.844  1.00  0.00     0.075 A 
HETATM   16  C11 UNL     1      21.405   1.890  51.179  1.00  0.00     0.107 A 
HETATM   17  C14 UNL     1      22.682   2.169  51.677  1.00  0.00     0.136 A 
HETATM   18  C15 UNL     1      23.506   3.048  50.999  1.00  0.00     0.121 A 
HETATM   19  O3  UNL     1      23.168   1.585  52.854  1.00  0.00    -0.344 OA
HETATM   20  O2  UNL     1      24.743   3.304  51.505  1.00  0.00    -0.345 OA
HETATM   21  C17 UNL     1      25.339   2.666  52.609  1.00  0.00     0.202 C 
HETATM   22  C18 UNL     1      24.562   1.496  53.108  1.00  0.00     0.202 C 
BRANCH  16  23
HETATM   23  O1  UNL     1      20.653   1.012  51.905  1.00  0.00    -0.348 OA
BRANCH  23  24
HETATM   24  C12 UNL     1      19.248   0.984  51.998  1.00  0.00     0.171 C 
HETATM   25  C13 UNL     1      18.809  -0.374  52.449  1.00  0.00     0.034 C 
ENDBRANCH  23  24
ENDBRANCH  16  23
ENDBRANCH   7   9
TORSDOF 3
ENDMDL
MODEL 9
REMARK VINA RESULT:      -6.6      2.338      7.282
REMARK  3 active torsions:
REMARK  status: ('A' for Active; 'I' for Inactive)
REMARK    1  A    between atoms: N1_7  and  C7_8 
REMARK    2  A    between atoms: C11_14  and  O1_15 
REMARK    3  A    between atoms: O1_15  and  C12_16 
ROOT
HETATM    1  C1  UNL     1      29.406   1.731  54.609  1.00  0.00     0.012 C 
HETATM    2  C2  UNL     1      28.555   1.540  53.771  1.00  0.00    -0.107 C 
HETATM    3  C3  UNL     1      27.520   1.284  52.753  1.00  0.00     0.104 C 
HETATM    4  C4  UNL     1      27.581  -0.150  52.385  1.00  0.00    -0.010 C 
HETATM    5  C5  UNL     1      26.544  -0.983  52.515  1.00  0.00    -0.010 C 
HETATM    6  C6  UNL     1      25.229  -0.473  53.061  1.00  0.00     0.151 C 
HETATM    7  N1  UNL     1      25.100   0.904  52.634  1.00  0.00    -0.360 N 
HETATM    8  C19 UNL     1      26.172   1.705  53.246  1.00  0.00     0.146 C 
ENDROOT
BRANCH   7   9
HETATM    9  C7  UNL     1      24.244   1.685  51.795  1.00  0.00     0.142 A 
HETATM   10  N2  UNL     1      24.985   2.360  50.901  1.00  0.00    -0.224 NA
HETATM   11  C8  UNL     1      24.365   3.162  49.984  1.00  0.00     0.236 A 
HETATM   12  N3  UNL     1      23.008   3.281  49.968  1.00  0.00    -0.241 NA
HETATM   13  C9  UNL     1      22.246   2.617  50.852  1.00  0.00     0.077 A 
HETATM   14  C10 UNL     1      20.870   2.674  50.919  1.00  0.00     0.072 A 
HETATM   15  C16 UNL     1      22.872   1.814  51.770  1.00  0.00     0.075 A 
HETATM   16  C11 UNL     1      20.168   1.954  51.869  1.00  0.00     0.107 A 
HETATM   17  C14 UNL     1      20.852   1.149  52.786  1.00  0.00     0.136 A 
HETATM   18  C15 UNL     1      22.231   1.074  52.739  1.00  0.00     0.121 A 
HETATM   19  O3  UNL     1      20.183   0.403  53.767  1.00  0.00    -0.344 OA
HETATM   20  O2  UNL     1      22.872   0.285  53.644  1.00  0.00    -0.345 OA
HETATM   21  C17 UNL     1      22.264  -0.580  54.573  1.00  0.00     0.202 C 
HETATM   22  C18 UNL     1      20.794  -0.727  54.371  1.00  0.00     0.202 C 
BRANCH  16  23
HETATM   23  O1  UNL     1      18.807   1.974  51.981  1.00  0.00    -0.348 OA
BRANCH  23  24
HETATM   24  C12 UNL     1      17.942   2.995  51.544  1.00  0.00     0.171 C 
HETATM   25  C13 UNL     1      16.559   2.443  51.398  1.00  0.00     0.034 C 
ENDBRANCH  23  24
ENDBRANCH  16  23
ENDBRANCH   7   9
TORSDOF 3
ENDMDL
