MODEL 1
REMARK VINA RESULT:      -7.8      0.000      0.000
REMARK  4 active torsions:
REMARK  status: ('A' for Active; 'I' for Inactive)
REMARK    1  A    between atoms: O1_2  and  C2_3 
REMARK    2  A    between atoms: C6_9  and  N3_10 
REMARK    3  A    between atoms: N3_10  and  C8_12 
REMARK    4  A    between atoms: C16_20  and  O2_21 
ROOT
HETATM    1  C2  UNL     1      21.299   0.216  52.069  1.00  0.00     0.103 A 
HETATM    2  C3  UNL     1      21.241  -0.549  53.217  1.00  0.00     0.072 A 
HETATM    3  C4  UNL     1      22.381  -0.719  53.955  1.00  0.00     0.075 A 
HETATM    4  N1  UNL     1      22.437  -1.443  55.086  1.00  0.00    -0.241 NA
HETATM    5  C5  UNL     1      23.615  -1.563  55.764  1.00  0.00     0.236 A 
HETATM    6  N2  UNL     1      24.753  -0.973  55.336  1.00  0.00    -0.223 NA
HETATM    7  C6  UNL     1      24.728  -0.243  54.208  1.00  0.00     0.144 A 
HETATM    8  C14 UNL     1      23.542  -0.116  53.515  1.00  0.00     0.042 A 
HETATM    9  C15 UNL     1      23.575   0.645  52.363  1.00  0.00     0.057 A 
HETATM   10  C16 UNL     1      22.445   0.838  51.595  1.00  0.00     0.102 A 
ENDROOT
BRANCH   7  11
HETATM   11  N3  UNL     1      25.978   0.334  53.845  1.00  0.00    -0.335 N 
HETATM   12  C7  UNL     1      26.229   1.772  53.701  1.00  0.00     0.158 C 
BRANCH  11  13
HETATM   13  C8  UNL     1      27.101  -0.507  53.592  1.00  0.00     0.035 A 
HETATM   14  C9  UNL     1      28.352  -0.157  54.030  1.00  0.00     0.029 A 
HETATM   15  C10 UNL     1      29.482  -0.931  53.817  1.00  0.00     0.002 A 
HETATM   16  C11 UNL     1      29.373  -2.120  53.132  1.00  0.00     0.000 A 
HETATM   17  C12 UNL     1      28.116  -2.511  52.670  1.00  0.00     0.002 A 
HETATM   18  C13 UNL     1      27.030  -1.700  52.913  1.00  0.00     0.029 A 
ENDBRANCH  11  13
ENDBRANCH   7  11
BRANCH  10  19
HETATM   19  O2  UNL     1      22.376   1.583  50.423  1.00  0.00    -0.353 OA
HETATM   20  C17 UNL     1      23.265   2.681  50.315  1.00  0.00     0.210 C 
ENDBRANCH  10  19
BRANCH   1  21
HETATM   21  O1  UNL     1      20.128   0.378  51.331  1.00  0.00    -0.353 OA
HETATM   22  C1  UNL     1      18.865   0.009  51.815  1.00  0.00     0.210 C 
ENDBRANCH   1  21
TORSDOF 4
ENDMDL
MODEL 2
REMARK VINA RESULT:      -7.5      2.672      5.977
REMARK  4 active torsions:
REMARK  status: ('A' for Active; 'I' for Inactive)
REMARK    1  A    between atoms: O1_2  and  C2_3 
REMARK    2  A    between atoms: C6_9  and  N3_10 
REMARK    3  A    between atoms: N3_10  and  C8_12 
REMARK    4  A    between atoms: C16_20  and  O2_21 
ROOT
HETATM    1  C2  UNL     1      26.822  -0.134  53.814  1.00  0.00     0.103 A 
HETATM    2  C3  UNL     1      25.725  -0.809  54.309  1.00  0.00     0.072 A 
HETATM    3  C4  UNL     1      24.472  -0.361  53.986  1.00  0.00     0.075 A 
HETATM    4  N1  UNL     1      23.339  -0.943  54.413  1.00  0.00    -0.241 NA
HETATM    5  C5  UNL     1      22.128  -0.432  54.044  1.00  0.00     0.236 A 
HETATM    6  N2  UNL     1      22.018   0.657  53.253  1.00  0.00    -0.223 NA
HETATM    7  C6  UNL     1      23.135   1.259  52.810  1.00  0.00     0.144 A 
HETATM    8  C14 UNL     1      24.364   0.752  53.177  1.00  0.00     0.042 A 
HETATM    9  C15 UNL     1      25.477   1.411  52.694  1.00  0.00     0.057 A 
HETATM   10  C16 UNL     1      26.754   0.987  52.999  1.00  0.00     0.102 A 
ENDROOT
BRANCH   7  11
HETATM   11  N3  UNL     1      22.910   2.397  51.984  1.00  0.00    -0.335 N 
HETATM   12  C7  UNL     1      22.903   3.787  52.451  1.00  0.00     0.158 C 
BRANCH  11  13
HETATM   13  C8  UNL     1      22.667   2.223  50.590  1.00  0.00     0.035 A 
HETATM   14  C9  UNL     1      23.312   3.001  49.664  1.00  0.00     0.029 A 
HETATM   15  C10 UNL     1      23.120   2.881  48.296  1.00  0.00     0.002 A 
HETATM   16  C11 UNL     1      22.241   1.939  47.812  1.00  0.00     0.000 A 
HETATM   17  C12 UNL     1      21.565   1.127  48.724  1.00  0.00     0.002 A 
HETATM   18  C13 UNL     1      21.798   1.293  50.071  1.00  0.00     0.029 A 
ENDBRANCH  11  13
ENDBRANCH   7  11
BRANCH  10  19
HETATM   19  O2  UNL     1      27.934   1.581  52.564  1.00  0.00    -0.353 OA
HETATM   20  C17 UNL     1      28.558   2.485  53.459  1.00  0.00     0.210 C 
ENDBRANCH  10  19
BRANCH   1  21
HETATM   21  O1  UNL     1      28.089  -0.605  54.153  1.00  0.00    -0.353 OA
HETATM   22  C1  UNL     1      28.800  -1.515  53.359  1.00  0.00     0.210 C 
ENDBRANCH   1  21
TORSDOF 4
ENDMDL
MODEL 3
REMARK VINA RESULT:      -7.1      2.904      6.639
REMARK  4 active torsions:
REMARK  status: ('A' for Active; 'I' for Inactive)
REMARK    1  A    between atoms: O1_2  and  C2_3 
REMARK    2  A    between atoms: C6_9  and  N3_10 
REMARK    3  A    between atoms: N3_10  and  C8_12 
REMARK    4  A    between atoms: C16_20  and  O2_21 
ROOT
HETATM    1  C2  UNL     1      26.133  -0.159  52.952  1.00  0.00     0.103 A 
HETATM    2  C3  UNL     1      26.869   0.661  52.121  1.00  0.00     0.072 A 
HETATM    3  C4  UNL     1      26.265   1.762  51.574  1.00  0.00     0.075 A 
HETATM    4  N1  UNL     1      26.888   2.624  50.754  1.00  0.00    -0.241 NA
HETATM    5  C5  UNL     1      26.213   3.698  50.251  1.00  0.00     0.236 A 
HETATM    6  N2  UNL     1      24.917   3.935  50.548  1.00  0.00    -0.223 NA
HETATM    7  C6  UNL     1      24.268   3.090  51.366  1.00  0.00     0.144 A 
HETATM    8  C14 UNL     1      24.941   2.000  51.881  1.00  0.00     0.042 A 
HETATM    9  C15 UNL     1      24.225   1.165  52.714  1.00  0.00     0.057 A 
HETATM   10  C16 UNL     1      24.801   0.048  53.283  1.00  0.00     0.102 A 
ENDROOT
BRANCH   7  11
HETATM   11  N3  UNL     1      22.908   3.429  51.616  1.00  0.00    -0.335 N 
HETATM   12  C7  UNL     1      22.458   4.623  52.341  1.00  0.00     0.158 C 
BRANCH  11  13
HETATM   13  C8  UNL     1      21.867   2.576  51.146  1.00  0.00     0.035 A 
HETATM   14  C9  UNL     1      20.797   2.268  51.947  1.00  0.00     0.029 A 
HETATM   15  C10 UNL     1      19.755   1.446  51.550  1.00  0.00     0.002 A 
HETATM   16  C11 UNL     1      19.766   0.894  50.289  1.00  0.00     0.000 A 
HETATM   17  C12 UNL     1      20.838   1.184  49.443  1.00  0.00     0.002 A 
HETATM   18  C13 UNL     1      21.844   2.008  49.895  1.00  0.00     0.029 A 
ENDBRANCH  11  13
ENDBRANCH   7  11
BRANCH  10  19
HETATM   19  O2  UNL     1      24.167  -0.852  54.133  1.00  0.00    -0.353 OA
HETATM   20  C17 UNL     1      22.750  -0.845  54.122  1.00  0.00     0.210 C 
ENDBRANCH  10  19
BRANCH   1  21
HETATM   21  O1  UNL     1      26.765  -1.274  53.499  1.00  0.00    -0.353 OA
HETATM   22  C1  UNL     1      27.304  -2.304  52.716  1.00  0.00     0.210 C 
ENDBRANCH   1  21
TORSDOF 4
ENDMDL
MODEL 4
REMARK VINA RESULT:      -7.0      2.544      5.887
REMARK  4 active torsions:
REMARK  status: ('A' for Active; 'I' for Inactive)
REMARK    1  A    between atoms: O1_2  and  C2_3 
REMARK    2  A    between atoms: C6_9  and  N3_10 
REMARK    3  A    between atoms: N3_10  and  C8_12 
REMARK    4  A    between atoms: C16_20  and  O2_21 
ROOT
HETATM    1  C2  UNL     1      25.962  -0.400  53.783  1.00  0.00     0.103 A 
HETATM    2  C3  UNL     1      24.947  -0.882  54.584  1.00  0.00     0.072 A 
HETATM    3  C4  UNL     1      23.649  -0.625  54.233  1.00  0.00     0.075 A 
HETATM    4  N1  UNL     1      22.587  -1.046  54.941  1.00  0.00    -0.241 NA
HETATM    5  C5  UNL     1      21.324  -0.746  54.521  1.00  0.00     0.236 A 
HETATM    6  N2  UNL     1      21.090  -0.026  53.402  1.00  0.00    -0.223 NA
HETATM    7  C6  UNL     1      22.132   0.409  52.674  1.00  0.00     0.144 A 
HETATM    8  C14 UNL     1      23.414   0.111  53.089  1.00  0.00     0.042 A 
HETATM    9  C15 UNL     1      24.446   0.583  52.304  1.00  0.00     0.057 A 
HETATM   10  C16 UNL     1      25.766   0.342  52.627  1.00  0.00     0.102 A 
ENDROOT
BRANCH   7  11
HETATM   11  N3  UNL     1      21.779   1.157  51.515  1.00  0.00    -0.335 N 
HETATM   12  C7  UNL     1      21.059   0.619  50.356  1.00  0.00     0.158 C 
BRANCH  11  13
HETATM   13  C8  UNL     1      22.129   2.536  51.428  1.00  0.00     0.035 A 
HETATM   14  C9  UNL     1      22.847   3.010  50.360  1.00  0.00     0.029 A 
HETATM   15  C10 UNL     1      23.219   4.337  50.217  1.00  0.00     0.002 A 
HETATM   16  C11 UNL     1      22.862   5.252  51.182  1.00  0.00     0.000 A 
HETATM   17  C12 UNL     1      22.130   4.808  52.284  1.00  0.00     0.002 A 
HETATM   18  C13 UNL     1      21.791   3.477  52.370  1.00  0.00     0.029 A 
ENDBRANCH  11  13
ENDBRANCH   7  11
BRANCH  10  19
HETATM   19  O2  UNL     1      26.873   0.774  51.903  1.00  0.00    -0.353 OA
HETATM   20  C17 UNL     1      26.809   2.083  51.366  1.00  0.00     0.210 C 
ENDBRANCH  10  19
BRANCH   1  21
HETATM   21  O1  UNL     1      27.277  -0.672  54.156  1.00  0.00    -0.353 OA
HETATM   22  C1  UNL     1      28.066   0.234  54.878  1.00  0.00     0.210 C 
ENDBRANCH   1  21
TORSDOF 4
ENDMDL
MODEL 5
REMARK VINA RESULT:      -6.7      2.938      6.211
REMARK  4 active torsions:
REMARK  status: ('A' for Active; 'I' for Inactive)
REMARK    1  A    between atoms: O1_2  and  C2_3 
REMARK    2  A    between atoms: C6_9  and  N3_10 
REMARK    3  A    between atoms: N3_10  and  C8_12 
REMARK    4  A    between atoms: C16_20  and  O2_21 
ROOT
HETATM    1  C2  UNL     1      23.334  -0.124  53.472  1.00  0.00     0.103 A 
HETATM    2  C3  UNL     1      24.677  -0.047  53.167  1.00  0.00     0.072 A 
HETATM    3  C4  UNL     1      25.119   0.985  52.383  1.00  0.00     0.075 A 
HETATM    4  N1  UNL     1      26.403   1.155  52.027  1.00  0.00    -0.241 NA
HETATM    5  C5  UNL     1      26.761   2.212  51.242  1.00  0.00     0.236 A 
HETATM    6  N2  UNL     1      25.859   3.114  50.797  1.00  0.00    -0.223 NA
HETATM    7  C6  UNL     1      24.567   2.971  51.138  1.00  0.00     0.144 A 
HETATM    8  C14 UNL     1      24.194   1.905  51.931  1.00  0.00     0.042 A 
HETATM    9  C15 UNL     1      22.855   1.806  52.249  1.00  0.00     0.057 A 
HETATM   10  C16 UNL     1      22.375   0.780  53.036  1.00  0.00     0.102 A 
ENDROOT
BRANCH   7  11
HETATM   11  N3  UNL     1      23.699   3.973  50.619  1.00  0.00    -0.335 N 
HETATM   12  C7  UNL     1      23.315   5.200  51.325  1.00  0.00     0.158 C 
BRANCH  11  13
HETATM   13  C8  UNL     1      23.136   3.819  49.318  1.00  0.00     0.035 A 
HETATM   14  C9  UNL     1      22.836   4.913  48.550  1.00  0.00     0.029 A 
HETATM   15  C10 UNL     1      22.287   4.830  47.279  1.00  0.00     0.002 A 
HETATM   16  C11 UNL     1      22.019   3.595  46.734  1.00  0.00     0.000 A 
HETATM   17  C12 UNL     1      22.311   2.456  47.485  1.00  0.00     0.002 A 
HETATM   18  C13 UNL     1      22.856   2.603  48.741  1.00  0.00     0.029 A 
ENDBRANCH  11  13
ENDBRANCH   7  11
BRANCH  10  19
HETATM   19  O2  UNL     1      21.049   0.594  53.411  1.00  0.00    -0.353 OA
HETATM   20  C17 UNL     1      20.075   1.322  52.684  1.00  0.00     0.210 C 
ENDBRANCH  10  19
BRANCH   1  21
HETATM   21  O1  UNL     1      22.903  -1.182  54.271  1.00  0.00    -0.353 OA
HETATM   22  C1  UNL     1      23.344  -1.369  55.588  1.00  0.00     0.210 C 
ENDBRANCH   1  21
TORSDOF 4
ENDMDL
MODEL 6
REMARK VINA RESULT:      -6.6      2.924      5.794
REMARK  4 active torsions:
REMARK  status: ('A' for Active; 'I' for Inactive)
REMARK    1  A    between atoms: O1_2  and  C2_3 
REMARK    2  A    between atoms: C6_9  and  N3_10 
REMARK    3  A    between atoms: N3_10  and  C8_12 
REMARK    4  A    between atoms: C16_20  and  O2_21 
ROOT
HETATM    1  C2  UNL     1      22.448   0.438  53.489  1.00  0.00     0.103 A 
HETATM    2  C3  UNL     1      23.804   0.185  53.531  1.00  0.00     0.072 A 
HETATM    3  C4  UNL     1      24.630   0.860  52.673  1.00  0.00     0.075 A 
HETATM    4  N1  UNL     1      25.962   0.690  52.631  1.00  0.00    -0.241 NA
HETATM    5  C5  UNL     1      26.714   1.404  51.744  1.00  0.00     0.236 A 
HETATM    6  N2  UNL     1      26.164   2.292  50.887  1.00  0.00    -0.223 NA
HETATM    7  C6  UNL     1      24.834   2.484  50.906  1.00  0.00     0.144 A 
HETATM    8  C14 UNL     1      24.064   1.767  51.800  1.00  0.00     0.042 A 
HETATM    9  C15 UNL     1      22.704   2.003  51.775  1.00  0.00     0.057 A 
HETATM   10  C16 UNL     1      21.843   1.341  52.626  1.00  0.00     0.102 A 
ENDROOT
BRANCH   7  11
HETATM   11  N3  UNL     1      24.356   3.439  49.966  1.00  0.00    -0.335 N 
HETATM   12  C7  UNL     1      23.526   3.127  48.798  1.00  0.00     0.158 C 
BRANCH  11  13
HETATM   13  C8  UNL     1      24.683   4.818  50.128  1.00  0.00     0.035 A 
HETATM   14  C9  UNL     1      25.674   5.396  49.378  1.00  0.00     0.029 A 
HETATM   15  C10 UNL     1      26.039   6.729  49.488  1.00  0.00     0.002 A 
HETATM   16  C11 UNL     1      25.388   7.540  50.390  1.00  0.00     0.000 A 
HETATM   17  C12 UNL     1      24.372   6.988  51.171  1.00  0.00     0.002 A 
HETATM   18  C13 UNL     1      24.055   5.658  51.016  1.00  0.00     0.029 A 
ENDBRANCH  11  13
ENDBRANCH   7  11
BRANCH  10  19
HETATM   19  O2  UNL     1      20.463   1.507  52.678  1.00  0.00    -0.353 OA
HETATM   20  C17 UNL     1      19.956   2.752  52.231  1.00  0.00     0.210 C 
ENDBRANCH  10  19
BRANCH   1  21
HETATM   21  O1  UNL     1      21.624  -0.259  54.370  1.00  0.00    -0.353 OA
HETATM   22  C1  UNL     1      21.715  -1.645  54.563  1.00  0.00     0.210 C 
ENDBRANCH   1  21
TORSDOF 4
ENDMDL
MODEL 7
REMARK VINA RESULT:      -6.6      3.024      5.932
REMARK  4 active torsions:
REMARK  status: ('A' for Active; 'I' for Inactive)
REMARK    1  A    between atoms: O1_2  and  C2_3 
REMARK    2  A    between atoms: C6_9  and  N3_10 
REMARK    3  A    between atoms: N3_10  and  C8_12 
REMARK    4  A    between atoms: C16_20  and  O2_21 
ROOT
HETATM    1  C2  UNL     1      24.404  -0.309  53.918  1.00  0.00     0.103 A 
HETATM    2  C3  UNL     1      23.208  -0.949  54.174  1.00  0.00     0.072 A 
HETATM    3  C4  UNL     1      22.054  -0.426  53.654  1.00  0.00     0.075 A 
HETATM    4  N1  UNL     1      20.839  -0.969  53.842  1.00  0.00    -0.241 NA
HETATM    5  C5  UNL     1      19.737  -0.384  53.288  1.00  0.00     0.236 A 
HETATM    6  N2  UNL     1      19.818   0.741  52.545  1.00  0.00    -0.223 NA
HETATM    7  C6  UNL     1      21.020   1.305  52.340  1.00  0.00     0.144 A 
HETATM    8  C14 UNL     1      22.141   0.723  52.895  1.00  0.00     0.042 A 
HETATM    9  C15 UNL     1      23.348   1.346  52.653  1.00  0.00     0.057 A 
HETATM   10  C16 UNL     1      24.531   0.847  53.160  1.00  0.00     0.102 A 
ENDROOT
BRANCH   7  11
HETATM   11  N3  UNL     1      20.995   2.486  51.544  1.00  0.00    -0.335 N 
HETATM   12  C7  UNL     1      20.494   3.790  51.990  1.00  0.00     0.158 C 
BRANCH  11  13
HETATM   13  C8  UNL     1      21.483   2.447  50.204  1.00  0.00     0.035 A 
HETATM   14  C9  UNL     1      22.117   3.533  49.659  1.00  0.00     0.029 A 
HETATM   15  C10 UNL     1      22.613   3.559  48.364  1.00  0.00     0.002 A 
HETATM   16  C11 UNL     1      22.476   2.449  47.561  1.00  0.00     0.000 A 
HETATM   17  C12 UNL     1      21.836   1.324  48.081  1.00  0.00     0.002 A 
HETATM   18  C13 UNL     1      21.365   1.359  49.374  1.00  0.00     0.029 A 
ENDBRANCH  11  13
ENDBRANCH   7  11
BRANCH  10  19
HETATM   19  O2  UNL     1      25.793   1.400  52.973  1.00  0.00    -0.353 OA
HETATM   20  C17 UNL     1      26.385   1.216  51.699  1.00  0.00     0.210 C 
ENDBRANCH  10  19
BRANCH   1  21
HETATM   21  O1  UNL     1      25.568  -0.855  54.455  1.00  0.00    -0.353 OA
HETATM   22  C1  UNL     1      26.012  -0.572  55.754  1.00  0.00     0.210 C 
ENDBRANCH   1  21
TORSDOF 4
ENDMDL
MODEL 8
REMARK VINA RESULT:      -6.5      1.395      2.168
REMARK  4 active torsions:
REMARK  status: ('A' for Active; 'I' for Inactive)
REMARK    1  A    between atoms: O1_2  and  C2_3 
REMARK    2  A    between atoms: C6_9  and  N3_10 
REMARK    3  A    between atoms: N3_10  and  C8_12 
REMARK    4  A    between atoms: C16_20  and  O2_21 
ROOT
HETATM    1  C2  UNL     1      19.367  -0.314  52.101  1.00  0.00     0.103 A 
HETATM    2  C3  UNL     1      19.667  -0.891  53.318  1.00  0.00     0.072 A 
HETATM    3  C4  UNL     1      20.960  -0.852  53.766  1.00  0.00     0.075 A 
HETATM    4  N1  UNL     1      21.361  -1.383  54.934  1.00  0.00    -0.241 NA
HETATM    5  C5  UNL     1      22.671  -1.301  55.307  1.00  0.00     0.236 A 
HETATM    6  N2  UNL     1      23.602  -0.698  54.536  1.00  0.00    -0.223 NA
HETATM    7  C6  UNL     1      23.231  -0.158  53.363  1.00  0.00     0.144 A 
HETATM    8  C14 UNL     1      21.908  -0.235  52.976  1.00  0.00     0.042 A 
HETATM    9  C15 UNL     1      21.583   0.335  51.761  1.00  0.00     0.057 A 
HETATM   10  C16 UNL     1      20.291   0.315  51.279  1.00  0.00     0.102 A 
ENDROOT
BRANCH   7  11
HETATM   11  N3  UNL     1      24.286   0.453  52.628  1.00  0.00    -0.335 N 
HETATM   12  C7  UNL     1      24.111   1.519  51.636  1.00  0.00     0.158 C 
BRANCH  11  13
HETATM   13  C8  UNL     1      25.632   0.029  52.835  1.00  0.00     0.035 A 
HETATM   14  C9  UNL     1      26.019  -1.249  52.526  1.00  0.00     0.029 A 
HETATM   15  C10 UNL     1      27.311  -1.721  52.704  1.00  0.00     0.002 A 
HETATM   16  C11 UNL     1      28.276  -0.884  53.216  1.00  0.00     0.000 A 
HETATM   17  C12 UNL     1      27.920   0.425  53.542  1.00  0.00     0.002 A 
HETATM   18  C13 UNL     1      26.622   0.836  53.343  1.00  0.00     0.029 A 
ENDBRANCH  11  13
ENDBRANCH   7  11
BRANCH  10  19
HETATM   19  O2  UNL     1      19.864   0.860  50.073  1.00  0.00    -0.353 OA
HETATM   20  C17 UNL     1      20.871   1.359  49.209  1.00  0.00     0.210 C 
ENDBRANCH  10  19
BRANCH   1  21
HETATM   21  O1  UNL     1      18.045  -0.363  51.662  1.00  0.00    -0.353 OA
HETATM   22  C1  UNL     1      17.042   0.472  52.174  1.00  0.00     0.210 C 
ENDBRANCH   1  21
TORSDOF 4
ENDMDL
MODEL 9
REMARK VINA RESULT:      -6.4      3.081      6.570
REMARK  4 active torsions:
REMARK  status: ('A' for Active; 'I' for Inactive)
REMARK    1  A    between atoms: O1_2  and  C2_3 
REMARK    2  A    between atoms: C6_9  and  N3_10 
REMARK    3  A    between atoms: N3_10  and  C8_12 
REMARK    4  A    between atoms: C16_20  and  O2_21 
ROOT
HETATM    1  C2  UNL     1      26.132   1.119  52.187  1.00  0.00     0.103 A 
HETATM    2  C3  UNL     1      25.140   0.440  52.865  1.00  0.00     0.072 A 
HETATM    3  C4  UNL     1      23.850   0.888  52.772  1.00  0.00     0.075 A 
HETATM    4  N1  UNL     1      22.811   0.303  53.390  1.00  0.00    -0.241 NA
HETATM    5  C5  UNL     1      21.554   0.814  53.246  1.00  0.00     0.236 A 
HETATM    6  N2  UNL     1      21.305   1.908  52.493  1.00  0.00    -0.223 NA
HETATM    7  C6  UNL     1      22.325   2.514  51.862  1.00  0.00     0.144 A 
HETATM    8  C14 UNL     1      23.600   2.006  52.002  1.00  0.00     0.042 A 
HETATM    9  C15 UNL     1      24.609   2.669  51.333  1.00  0.00     0.057 A 
HETATM   10  C16 UNL     1      25.920   2.245  51.404  1.00  0.00     0.102 A 
ENDROOT
BRANCH   7  11
HETATM   11  N3  UNL     1      21.956   3.656  51.095  1.00  0.00    -0.335 N 
HETATM   12  C7  UNL     1      21.560   4.952  51.655  1.00  0.00     0.158 C 
BRANCH  11  13
HETATM   13  C8  UNL     1      21.956   3.583  49.671  1.00  0.00     0.035 A 
HETATM   14  C9  UNL     1      21.501   2.462  49.027  1.00  0.00     0.029 A 
HETATM   15  C10 UNL     1      21.474   2.330  47.648  1.00  0.00     0.002 A 
HETATM   16  C11 UNL     1      21.924   3.362  46.856  1.00  0.00     0.000 A 
HETATM   17  C12 UNL     1      22.395   4.521  47.475  1.00  0.00     0.002 A 
HETATM   18  C13 UNL     1      22.396   4.593  48.850  1.00  0.00     0.029 A 
ENDBRANCH  11  13
ENDBRANCH   7  11
BRANCH  10  19
HETATM   19  O2  UNL     1      27.004   2.843  50.769  1.00  0.00    -0.353 OA
HETATM   20  C17 UNL     1      26.707   3.742  49.716  1.00  0.00     0.210 C 
ENDBRANCH  10  19
BRANCH   1  21
HETATM   21  O1  UNL     1      27.439   0.648  52.294  1.00  0.00    -0.353 OA
HETATM   22  C1  UNL     1      27.840  -0.270  53.275  1.00  0.00     0.210 C 
ENDBRANCH   1  21
TORSDOF 4
ENDMDL
