MODEL 1
REMARK VINA RESULT:      -8.7      0.000      0.000
REMARK  6 active torsions:
REMARK  status: ('A' for Active; 'I' for Inactive)
REMARK    1  A    between atoms: C1_2  and  O2_3 
REMARK    2  A    between atoms: C1_2  and  C2_4 
REMARK    3  A    between atoms: C9_13  and  N3_14 
REMARK    4  A    between atoms: N4_16  and  C11_17 
REMARK    5  A    between atoms: C11_17  and  N5_18 
REMARK    6  A    between atoms: N5_18  and  C12_19 
ROOT
HETATM    1  C2  UNL     1      25.318   0.349  53.396  1.00  0.00     0.040 A 
HETATM    2  C3  UNL     1      26.302  -0.212  52.619  1.00  0.00     0.021 A 
HETATM    3  C4  UNL     1      26.765   0.538  51.534  1.00  0.00     0.041 A 
HETATM    4  C5  UNL     1      26.224   1.783  51.295  1.00  0.00     0.105 A 
HETATM    5  C6  UNL     1      25.225   2.315  52.109  1.00  0.00     0.085 A 
HETATM    6  C7  UNL     1      24.744   1.588  53.199  1.00  0.00     0.052 A 
HETATM    7  N1  UNL     1      24.529   3.556  52.059  1.00  0.00    -0.276 N 
HETATM    8  N2  UNL     1      24.569   4.454  50.964  1.00  0.00    -0.183 NA
HETATM    9  C8  UNL     1      25.435   4.540  49.999  1.00  0.00     0.190 C 
HETATM   10  C9  UNL     1      26.641   3.732  49.748  1.00  0.00     0.168 C 
HETATM   11  O3  UNL     1      26.794   2.400  50.176  1.00  0.00    -0.293 OA
HETATM   12  H5  UNL     1      23.965   3.778  52.906  1.00  0.00     0.189 HD
ENDROOT
BRANCH  10  13
HETATM   13  N3  UNL     1      27.560   4.358  49.092  1.00  0.00    -0.127 NA
HETATM   14  C10 UNL     1      27.218   5.655  48.617  1.00  0.00     0.198 A 
HETATM   15  N4  UNL     1      28.474   5.428  48.476  1.00  0.00    -0.280 N 
BRANCH  15  16
HETATM   16  C11 UNL     1      29.359   6.409  47.901  1.00  0.00     0.266 C 
BRANCH  16  17
HETATM   17  N5  UNL     1      30.499   6.596  48.784  1.00  0.00    -0.372 N 
HETATM   18  H10 UNL     1      30.449   7.232  49.613  1.00  0.00     0.161 HD
BRANCH  17  19
HETATM   19  C12 UNL     1      31.709   5.901  48.514  1.00  0.00     0.031 A 
HETATM   20  C13 UNL     1      32.955   6.411  48.879  1.00  0.00     0.032 A 
HETATM   21  C14 UNL     1      34.102   5.685  48.588  1.00  0.00     0.046 A 
HETATM   22  C15 UNL     1      34.008   4.477  47.947  1.00  0.00     0.138 A 
HETATM   23  F1  UNL     1      35.140   3.756  47.658  1.00  0.00    -0.204 F 
HETATM   24  C16 UNL     1      32.805   3.909  47.556  1.00  0.00     0.074 A 
HETATM   25 CL1  UNL     1      32.645   2.384  46.744  1.00  0.00    -0.081 Cl
HETATM   26  C17 UNL     1      31.697   4.684  47.876  1.00  0.00     0.056 A 
ENDBRANCH  17  19
ENDBRANCH  16  17
ENDBRANCH  15  16
ENDBRANCH  10  13
BRANCH   1  27
HETATM   27  C1  UNL     1      24.878  -0.474  54.507  1.00  0.00     0.176 C 
HETATM   28  O1  UNL     1      23.688  -0.876  54.591  1.00  0.00    -0.646 OA
BRANCH  27  29
HETATM   29  O2  UNL     1      25.510  -0.977  55.611  1.00  0.00    -0.773 OA
HETATM   30  H1  UNL     1      26.507  -1.153  55.605  1.00  0.00     0.167 HD
ENDBRANCH  27  29
ENDBRANCH   1  27
TORSDOF 6
ENDMDL
MODEL 2
REMARK VINA RESULT:      -8.6      2.259      3.257
REMARK  6 active torsions:
REMARK  status: ('A' for Active; 'I' for Inactive)
REMARK    1  A    between atoms: C1_2  and  O2_3 
REMARK    2  A    between atoms: C1_2  and  C2_4 
REMARK    3  A    between atoms: C9_13  and  N3_14 
REMARK    4  A    between atoms: N4_16  and  C11_17 
REMARK    5  A    between atoms: C11_17  and  N5_18 
REMARK    6  A    between atoms: N5_18  and  C12_19 
ROOT
HETATM    1  C2  UNL     1      22.373  -0.174  53.689  1.00  0.00     0.040 A 
HETATM    2  C3  UNL     1      21.891   1.000  53.164  1.00  0.00     0.021 A 
HETATM    3  C4  UNL     1      22.822   1.879  52.602  1.00  0.00     0.041 A 
HETATM    4  C5  UNL     1      24.157   1.536  52.601  1.00  0.00     0.105 A 
HETATM    5  C6  UNL     1      24.604   0.332  53.146  1.00  0.00     0.085 A 
HETATM    6  C7  UNL     1      23.696  -0.563  53.713  1.00  0.00     0.052 A 
HETATM    7  N1  UNL     1      25.909  -0.226  53.255  1.00  0.00    -0.276 N 
HETATM    8  N2  UNL     1      27.109   0.486  53.012  1.00  0.00    -0.183 NA
HETATM    9  C8  UNL     1      27.293   1.589  52.350  1.00  0.00     0.190 C 
HETATM   10  C9  UNL     1      26.313   2.436  51.649  1.00  0.00     0.168 C 
HETATM   11  O3  UNL     1      24.954   2.519  52.005  1.00  0.00    -0.293 OA
HETATM   12  H5  UNL     1      25.935  -1.229  53.537  1.00  0.00     0.189 HD
ENDROOT
BRANCH  10  13
HETATM   13  N3  UNL     1      26.813   3.106  50.665  1.00  0.00    -0.127 NA
HETATM   14  C10 UNL     1      25.883   3.796  49.839  1.00  0.00     0.198 A 
HETATM   15  N4  UNL     1      27.089   4.142  49.565  1.00  0.00    -0.280 N 
BRANCH  15  16
HETATM   16  C11 UNL     1      27.382   5.111  48.540  1.00  0.00     0.266 C 
BRANCH  16  17
HETATM   17  N5  UNL     1      28.471   5.964  48.988  1.00  0.00    -0.372 N 
HETATM   18  H10 UNL     1      28.443   6.441  49.917  1.00  0.00     0.161 HD
BRANCH  17  19
HETATM   19  C12 UNL     1      29.598   6.155  48.143  1.00  0.00     0.031 A 
HETATM   20  C13 UNL     1      29.800   7.336  47.430  1.00  0.00     0.032 A 
HETATM   21  C14 UNL     1      30.921   7.462  46.620  1.00  0.00     0.046 A 
HETATM   22  C15 UNL     1      31.821   6.433  46.525  1.00  0.00     0.138 A 
HETATM   23  F1  UNL     1      32.930   6.555  45.726  1.00  0.00    -0.204 F 
HETATM   24  C16 UNL     1      31.685   5.232  47.205  1.00  0.00     0.074 A 
HETATM   25 CL1  UNL     1      32.802   3.907  47.110  1.00  0.00    -0.081 Cl
HETATM   26  C17 UNL     1      30.545   5.169  47.996  1.00  0.00     0.056 A 
ENDBRANCH  17  19
ENDBRANCH  16  17
ENDBRANCH  15  16
ENDBRANCH  10  13
BRANCH   1  27
HETATM   27  C1  UNL     1      21.361  -1.046  54.257  1.00  0.00     0.176 C 
HETATM   28  O1  UNL     1      21.675  -2.017  54.994  1.00  0.00    -0.646 OA
BRANCH  27  29
HETATM   29  O2  UNL     1      19.995  -1.074  54.179  1.00  0.00    -0.773 OA
HETATM   30  H1  UNL     1      19.449  -1.630  54.824  1.00  0.00     0.167 HD
ENDBRANCH  27  29
ENDBRANCH   1  27
TORSDOF 6
ENDMDL
MODEL 3
REMARK VINA RESULT:      -8.6      5.649      7.912
REMARK  6 active torsions:
REMARK  status: ('A' for Active; 'I' for Inactive)
REMARK    1  A    between atoms: C1_2  and  O2_3 
REMARK    2  A    between atoms: C1_2  and  C2_4 
REMARK    3  A    between atoms: C9_13  and  N3_14 
REMARK    4  A    between atoms: N4_16  and  C11_17 
REMARK    5  A    between atoms: C11_17  and  N5_18 
REMARK    6  A    between atoms: N5_18  and  C12_19 
ROOT
HETATM    1  C2  UNL     1      17.296  -1.197  52.641  1.00  0.00     0.040 A 
HETATM    2  C3  UNL     1      17.444  -0.076  51.860  1.00  0.00     0.021 A 
HETATM    3  C4  UNL     1      18.673   0.588  51.922  1.00  0.00     0.041 A 
HETATM    4  C5  UNL     1      19.663   0.099  52.748  1.00  0.00     0.105 A 
HETATM    5  C6  UNL     1      19.469  -1.043  53.524  1.00  0.00     0.085 A 
HETATM    6  C7  UNL     1      18.252  -1.725  53.482  1.00  0.00     0.052 A 
HETATM    7  N1  UNL     1      20.330  -1.722  54.433  1.00  0.00    -0.276 N 
HETATM    8  N2  UNL     1      21.553  -1.200  54.921  1.00  0.00    -0.183 NA
HETATM    9  C8  UNL     1      22.294  -0.248  54.438  1.00  0.00     0.190 C 
HETATM   10  C9  UNL     1      22.090   0.580  53.237  1.00  0.00     0.168 C 
HETATM   11  O3  UNL     1      20.825   0.874  52.695  1.00  0.00    -0.293 OA
HETATM   12  H5  UNL     1      19.997  -2.662  54.734  1.00  0.00     0.189 HD
ENDROOT
BRANCH  10  13
HETATM   13  N3  UNL     1      23.186   1.021  52.716  1.00  0.00    -0.127 NA
HETATM   14  C10 UNL     1      23.130   1.366  51.337  1.00  0.00     0.198 A 
HETATM   15  N4  UNL     1      24.233   1.757  51.867  1.00  0.00    -0.280 N 
BRANCH  15  16
HETATM   16  C11 UNL     1      25.236   2.450  51.099  1.00  0.00     0.266 C 
BRANCH  16  17
HETATM   17  N5  UNL     1      26.321   2.848  51.982  1.00  0.00    -0.372 N 
HETATM   18  H10 UNL     1      26.504   3.852  52.203  1.00  0.00     0.161 HD
BRANCH  17  19
HETATM   19  C12 UNL     1      27.152   1.847  52.556  1.00  0.00     0.031 A 
HETATM   20  C13 UNL     1      28.266   2.164  53.332  1.00  0.00     0.032 A 
HETATM   21  C14 UNL     1      29.039   1.141  53.867  1.00  0.00     0.046 A 
HETATM   22  C15 UNL     1      28.708  -0.167  53.631  1.00  0.00     0.138 A 
HETATM   23  F1  UNL     1      29.469  -1.180  54.158  1.00  0.00    -0.204 F 
HETATM   24  C16 UNL     1      27.616  -0.556  52.870  1.00  0.00     0.074 A 
HETATM   25 CL1  UNL     1      27.164  -2.200  52.550  1.00  0.00    -0.081 Cl
HETATM   26  C17 UNL     1      26.884   0.512  52.365  1.00  0.00     0.056 A 
ENDBRANCH  17  19
ENDBRANCH  16  17
ENDBRANCH  15  16
ENDBRANCH  10  13
BRANCH   1  27
HETATM   27  C1  UNL     1      16.001  -1.843  52.535  1.00  0.00     0.176 C 
HETATM   28  O1  UNL     1      15.899  -3.047  52.184  1.00  0.00    -0.646 OA
BRANCH  27  29
HETATM   29  O2  UNL     1      14.718  -1.417  52.747  1.00  0.00    -0.773 OA
HETATM   30  H1  UNL     1      13.943  -1.825  52.241  1.00  0.00     0.167 HD
ENDBRANCH  27  29
ENDBRANCH   1  27
TORSDOF 6
ENDMDL
MODEL 4
REMARK VINA RESULT:      -8.4      8.727     12.444
REMARK  6 active torsions:
REMARK  status: ('A' for Active; 'I' for Inactive)
REMARK    1  A    between atoms: C1_2  and  O2_3 
REMARK    2  A    between atoms: C1_2  and  C2_4 
REMARK    3  A    between atoms: C9_13  and  N3_14 
REMARK    4  A    between atoms: N4_16  and  C11_17 
REMARK    5  A    between atoms: C11_17  and  N5_18 
REMARK    6  A    between atoms: N5_18  and  C12_19 
ROOT
HETATM    1  C2  UNL     1      26.850   0.243  54.197  1.00  0.00     0.040 A 
HETATM    2  C3  UNL     1      26.485   0.699  52.953  1.00  0.00     0.021 A 
HETATM    3  C4  UNL     1      25.163   0.478  52.554  1.00  0.00     0.041 A 
HETATM    4  C5  UNL     1      24.300  -0.173  53.409  1.00  0.00     0.105 A 
HETATM    5  C6  UNL     1      24.713  -0.620  54.664  1.00  0.00     0.085 A 
HETATM    6  C7  UNL     1      26.027  -0.414  55.087  1.00  0.00     0.052 A 
HETATM    7  N1  UNL     1      24.013  -1.304  55.698  1.00  0.00    -0.276 N 
HETATM    8  N2  UNL     1      22.735  -1.896  55.546  1.00  0.00    -0.183 NA
HETATM    9  C8  UNL     1      21.826  -1.674  54.644  1.00  0.00     0.190 C 
HETATM   10  C9  UNL     1      21.844  -0.741  53.505  1.00  0.00     0.168 C 
HETATM   11  O3  UNL     1      23.021  -0.313  52.862  1.00  0.00    -0.293 OA
HETATM   12  H5  UNL     1      24.512  -1.347  56.612  1.00  0.00     0.189 HD
ENDROOT
BRANCH  10  13
HETATM   13  N3  UNL     1      20.672  -0.341  53.141  1.00  0.00    -0.127 NA
HETATM   14  C10 UNL     1      20.491  -0.114  51.748  1.00  0.00     0.198 A 
HETATM   15  N4  UNL     1      19.369  -0.072  52.373  1.00  0.00    -0.280 N 
BRANCH  15  16
HETATM   16  C11 UNL     1      18.130   0.177  51.681  1.00  0.00     0.266 C 
BRANCH  16  17
HETATM   17  N5  UNL     1      17.021  -0.199  52.543  1.00  0.00    -0.372 N 
HETATM   18  H10 UNL     1      16.454   0.520  53.048  1.00  0.00     0.161 HD
BRANCH  17  19
HETATM   19  C12 UNL     1      16.700  -1.574  52.704  1.00  0.00     0.031 A 
HETATM   20  C13 UNL     1      17.482  -2.434  53.473  1.00  0.00     0.032 A 
HETATM   21  C14 UNL     1      17.116  -3.768  53.592  1.00  0.00     0.046 A 
HETATM   22  C15 UNL     1      15.995  -4.234  52.957  1.00  0.00     0.138 A 
HETATM   23  F1  UNL     1      15.630  -5.552  53.072  1.00  0.00    -0.204 F 
HETATM   24  C16 UNL     1      15.170  -3.437  52.177  1.00  0.00     0.074 A 
HETATM   25 CL1  UNL     1      13.743  -3.989  51.358  1.00  0.00    -0.081 Cl
HETATM   26  C17 UNL     1      15.590  -2.115  52.098  1.00  0.00     0.056 A 
ENDBRANCH  17  19
ENDBRANCH  16  17
ENDBRANCH  15  16
ENDBRANCH  10  13
BRANCH   1  27
HETATM   27  C1  UNL     1      28.232   0.500  54.556  1.00  0.00     0.176 C 
HETATM   28  O1  UNL     1      29.067  -0.437  54.648  1.00  0.00    -0.646 OA
BRANCH  27  29
HETATM   29  O2  UNL     1      28.929   1.639  54.853  1.00  0.00    -0.773 OA
HETATM   30  H1  UNL     1      29.863   1.786  54.494  1.00  0.00     0.167 HD
ENDBRANCH  27  29
ENDBRANCH   1  27
TORSDOF 6
ENDMDL
MODEL 5
REMARK VINA RESULT:      -8.4      3.778      4.668
REMARK  6 active torsions:
REMARK  status: ('A' for Active; 'I' for Inactive)
REMARK    1  A    between atoms: C1_2  and  O2_3 
REMARK    2  A    between atoms: C1_2  and  C2_4 
REMARK    3  A    between atoms: C9_13  and  N3_14 
REMARK    4  A    between atoms: N4_16  and  C11_17 
REMARK    5  A    between atoms: C11_17  and  N5_18 
REMARK    6  A    between atoms: N5_18  and  C12_19 
ROOT
HETATM    1  C2  UNL     1      22.333  -0.209  53.640  1.00  0.00     0.040 A 
HETATM    2  C3  UNL     1      21.817   0.900  53.013  1.00  0.00     0.021 A 
HETATM    3  C4  UNL     1      22.727   1.781  52.422  1.00  0.00     0.041 A 
HETATM    4  C5  UNL     1      24.076   1.504  52.491  1.00  0.00     0.105 A 
HETATM    5  C6  UNL     1      24.557   0.367  53.138  1.00  0.00     0.085 A 
HETATM    6  C7  UNL     1      23.671  -0.529  53.738  1.00  0.00     0.052 A 
HETATM    7  N1  UNL     1      25.881  -0.117  53.334  1.00  0.00    -0.276 N 
HETATM    8  N2  UNL     1      27.056   0.634  53.081  1.00  0.00    -0.183 NA
HETATM    9  C8  UNL     1      27.214   1.694  52.346  1.00  0.00     0.190 C 
HETATM   10  C9  UNL     1      26.222   2.439  51.551  1.00  0.00     0.168 C 
HETATM   11  O3  UNL     1      24.848   2.480  51.853  1.00  0.00    -0.293 OA
HETATM   12  H5  UNL     1      25.944  -1.095  53.689  1.00  0.00     0.189 HD
ENDROOT
BRANCH  10  13
HETATM   13  N3  UNL     1      26.728   3.061  50.539  1.00  0.00    -0.127 NA
HETATM   14  C10 UNL     1      25.972   4.155  50.034  1.00  0.00     0.198 A 
HETATM   15  N4  UNL     1      27.141   4.117  49.503  1.00  0.00    -0.280 N 
BRANCH  15  16
HETATM   16  C11 UNL     1      27.560   5.092  48.528  1.00  0.00     0.266 C 
BRANCH  16  17
HETATM   17  N5  UNL     1      27.594   6.405  49.153  1.00  0.00    -0.372 N 
HETATM   18  H10 UNL     1      27.250   6.554  50.128  1.00  0.00     0.161 HD
BRANCH  17  19
HETATM   19  C12 UNL     1      28.106   7.510  48.421  1.00  0.00     0.031 A 
HETATM   20  C13 UNL     1      27.766   7.739  47.088  1.00  0.00     0.032 A 
HETATM   21  C14 UNL     1      28.299   8.838  46.426  1.00  0.00     0.046 A 
HETATM   22  C15 UNL     1      29.152   9.688  47.080  1.00  0.00     0.138 A 
HETATM   23  F1  UNL     1      29.681  10.775  46.429  1.00  0.00    -0.204 F 
HETATM   24  C16 UNL     1      29.533   9.523  48.403  1.00  0.00     0.074 A 
HETATM   25 CL1  UNL     1      30.610  10.577  49.265  1.00  0.00    -0.081 Cl
HETATM   26  C17 UNL     1      28.967   8.408  49.008  1.00  0.00     0.056 A 
ENDBRANCH  17  19
ENDBRANCH  16  17
ENDBRANCH  15  16
ENDBRANCH  10  13
BRANCH   1  27
HETATM   27  C1  UNL     1      21.342  -1.086  54.235  1.00  0.00     0.176 C 
HETATM   28  O1  UNL     1      21.679  -2.042  54.980  1.00  0.00    -0.646 OA
BRANCH  27  29
HETATM   29  O2  UNL     1      19.976  -1.134  54.178  1.00  0.00    -0.773 OA
HETATM   30  H1  UNL     1      19.475  -0.757  53.384  1.00  0.00     0.167 HD
ENDBRANCH  27  29
ENDBRANCH   1  27
TORSDOF 6
ENDMDL
MODEL 6
REMARK VINA RESULT:      -8.4      4.642      6.044
REMARK  6 active torsions:
REMARK  status: ('A' for Active; 'I' for Inactive)
REMARK    1  A    between atoms: C1_2  and  O2_3 
REMARK    2  A    between atoms: C1_2  and  C2_4 
REMARK    3  A    between atoms: C9_13  and  N3_14 
REMARK    4  A    between atoms: N4_16  and  C11_17 
REMARK    5  A    between atoms: C11_17  and  N5_18 
REMARK    6  A    between atoms: N5_18  and  C12_19 
ROOT
HETATM    1  C2  UNL     1      22.180  -0.130  53.546  1.00  0.00     0.040 A 
HETATM    2  C3  UNL     1      21.781   1.108  53.105  1.00  0.00     0.021 A 
HETATM    3  C4  UNL     1      22.772   1.961  52.609  1.00  0.00     0.041 A 
HETATM    4  C5  UNL     1      24.081   1.530  52.585  1.00  0.00     0.105 A 
HETATM    5  C6  UNL     1      24.444   0.264  53.043  1.00  0.00     0.085 A 
HETATM    6  C7  UNL     1      23.474  -0.607  53.544  1.00  0.00     0.052 A 
HETATM    7  N1  UNL     1      25.707  -0.387  53.114  1.00  0.00    -0.276 N 
HETATM    8  N2  UNL     1      26.954   0.258  52.924  1.00  0.00    -0.183 NA
HETATM    9  C8  UNL     1      27.216   1.391  52.342  1.00  0.00     0.190 C 
HETATM   10  C9  UNL     1      26.298   2.349  51.702  1.00  0.00     0.168 C 
HETATM   11  O3  UNL     1      24.946   2.497  52.061  1.00  0.00    -0.293 OA
HETATM   12  H5  UNL     1      25.665  -1.407  53.323  1.00  0.00     0.189 HD
ENDROOT
BRANCH  10  13
HETATM   13  N3  UNL     1      26.848   3.052  50.769  1.00  0.00    -0.127 NA
HETATM   14  C10 UNL     1      25.999   3.443  49.696  1.00  0.00     0.198 A 
HETATM   15  N4  UNL     1      27.131   4.049  49.635  1.00  0.00    -0.280 N 
BRANCH  15  16
HETATM   16  C11 UNL     1      27.428   4.989  48.584  1.00  0.00     0.266 C 
BRANCH  16  17
HETATM   17  N5  UNL     1      27.430   6.334  49.137  1.00  0.00    -0.372 N 
HETATM   18  H10 UNL     1      28.308   6.778  49.488  1.00  0.00     0.161 HD
BRANCH  17  19
HETATM   19  C12 UNL     1      26.210   7.062  49.201  1.00  0.00     0.031 A 
HETATM   20  C13 UNL     1      25.610   7.399  50.414  1.00  0.00     0.032 A 
HETATM   21  C14 UNL     1      24.418   8.111  50.411  1.00  0.00     0.046 A 
HETATM   22  C15 UNL     1      23.838   8.479  49.226  1.00  0.00     0.138 A 
HETATM   23  F1  UNL     1      22.660   9.184  49.220  1.00  0.00    -0.204 F 
HETATM   24  C16 UNL     1      24.378   8.179  47.984  1.00  0.00     0.074 A 
HETATM   25 CL1  UNL     1      23.674   8.627  46.462  1.00  0.00    -0.081 Cl
HETATM   26  C17 UNL     1      25.568   7.467  48.054  1.00  0.00     0.056 A 
ENDBRANCH  17  19
ENDBRANCH  16  17
ENDBRANCH  15  16
ENDBRANCH  10  13
BRANCH   1  27
HETATM   27  C1  UNL     1      21.109  -0.970  54.050  1.00  0.00     0.176 C 
HETATM   28  O1  UNL     1      19.953  -0.918  53.557  1.00  0.00    -0.646 OA
BRANCH  27  29
HETATM   29  O2  UNL     1      21.041  -1.910  55.041  1.00  0.00    -0.773 OA
HETATM   30  H1  UNL     1      21.874  -2.212  55.530  1.00  0.00     0.167 HD
ENDBRANCH  27  29
ENDBRANCH   1  27
TORSDOF 6
ENDMDL
MODEL 7
REMARK VINA RESULT:      -8.3      6.681      8.950
REMARK  6 active torsions:
REMARK  status: ('A' for Active; 'I' for Inactive)
REMARK    1  A    between atoms: C1_2  and  O2_3 
REMARK    2  A    between atoms: C1_2  and  C2_4 
REMARK    3  A    between atoms: C9_13  and  N3_14 
REMARK    4  A    between atoms: N4_16  and  C11_17 
REMARK    5  A    between atoms: C11_17  and  N5_18 
REMARK    6  A    between atoms: N5_18  and  C12_19 
ROOT
HETATM    1  C2  UNL     1      27.724   0.561  53.844  1.00  0.00     0.040 A 
HETATM    2  C3  UNL     1      27.301   0.689  52.543  1.00  0.00     0.021 A 
HETATM    3  C4  UNL     1      25.991   0.293  52.255  1.00  0.00     0.041 A 
HETATM    4  C5  UNL     1      25.197  -0.198  53.269  1.00  0.00     0.105 A 
HETATM    5  C6  UNL     1      25.667  -0.312  54.577  1.00  0.00     0.085 A 
HETATM    6  C7  UNL     1      26.971   0.075  54.892  1.00  0.00     0.052 A 
HETATM    7  N1  UNL     1      25.042  -0.783  55.766  1.00  0.00    -0.276 N 
HETATM    8  N2  UNL     1      23.809  -1.479  55.802  1.00  0.00    -0.183 NA
HETATM    9  C8  UNL     1      22.867  -1.535  54.908  1.00  0.00     0.190 C 
HETATM   10  C9  UNL     1      22.793  -0.893  53.585  1.00  0.00     0.168 C 
HETATM   11  O3  UNL     1      23.920  -0.548  52.817  1.00  0.00    -0.293 OA
HETATM   12  H5  UNL     1      25.562  -0.579  56.646  1.00  0.00     0.189 HD
ENDROOT
BRANCH  10  13
HETATM   13  N3  UNL     1      21.586  -0.669  53.183  1.00  0.00    -0.127 NA
HETATM   14  C10 UNL     1      20.778   0.131  54.038  1.00  0.00     0.198 A 
HETATM   15  N4  UNL     1      20.207  -0.054  52.902  1.00  0.00    -0.280 N 
BRANCH  15  16
HETATM   16  C11 UNL     1      18.914   0.509  52.608  1.00  0.00     0.266 C 
BRANCH  16  17
HETATM   17  N5  UNL     1      19.092   1.758  51.884  1.00  0.00    -0.372 N 
HETATM   18  H10 UNL     1      18.475   2.583  52.061  1.00  0.00     0.161 HD
BRANCH  17  19
HETATM   19  C12 UNL     1      20.126   1.859  50.915  1.00  0.00     0.031 A 
HETATM   20  C13 UNL     1      20.075   1.175  49.701  1.00  0.00     0.032 A 
HETATM   21  C14 UNL     1      21.117   1.315  48.793  1.00  0.00     0.046 A 
HETATM   22  C15 UNL     1      22.186   2.118  49.091  1.00  0.00     0.138 A 
HETATM   23  F1  UNL     1      23.218   2.258  48.197  1.00  0.00    -0.204 F 
HETATM   24  C16 UNL     1      22.305   2.826  50.277  1.00  0.00     0.074 A 
HETATM   25 CL1  UNL     1      23.642   3.852  50.691  1.00  0.00    -0.081 Cl
HETATM   26  C17 UNL     1      21.232   2.645  51.141  1.00  0.00     0.056 A 
ENDBRANCH  17  19
ENDBRANCH  16  17
ENDBRANCH  15  16
ENDBRANCH  10  13
BRANCH   1  27
HETATM   27  C1  UNL     1      29.091   0.987  54.082  1.00  0.00     0.176 C 
HETATM   28  O1  UNL     1      29.356   1.894  54.913  1.00  0.00    -0.646 OA
BRANCH  27  29
HETATM   29  O2  UNL     1      30.298   0.601  53.567  1.00  0.00    -0.773 OA
HETATM   30  H1  UNL     1      31.162   0.828  54.041  1.00  0.00     0.167 HD
ENDBRANCH  27  29
ENDBRANCH   1  27
TORSDOF 6
ENDMDL
MODEL 8
REMARK VINA RESULT:      -8.2      3.481      4.029
REMARK  6 active torsions:
REMARK  status: ('A' for Active; 'I' for Inactive)
REMARK    1  A    between atoms: C1_2  and  O2_3 
REMARK    2  A    between atoms: C1_2  and  C2_4 
REMARK    3  A    between atoms: C9_13  and  N3_14 
REMARK    4  A    between atoms: N4_16  and  C11_17 
REMARK    5  A    between atoms: C11_17  and  N5_18 
REMARK    6  A    between atoms: N5_18  and  C12_19 
ROOT
HETATM    1  C2  UNL     1      25.270   0.073  53.708  1.00  0.00     0.040 A 
HETATM    2  C3  UNL     1      26.514  -0.258  53.230  1.00  0.00     0.021 A 
HETATM    3  C4  UNL     1      26.981   0.450  52.119  1.00  0.00     0.041 A 
HETATM    4  C5  UNL     1      26.188   1.431  51.562  1.00  0.00     0.105 A 
HETATM    5  C6  UNL     1      24.929   1.735  52.080  1.00  0.00     0.085 A 
HETATM    6  C7  UNL     1      24.439   1.043  53.188  1.00  0.00     0.052 A 
HETATM    7  N1  UNL     1      23.951   2.689  51.680  1.00  0.00    -0.276 N 
HETATM    8  N2  UNL     1      23.983   3.407  50.460  1.00  0.00    -0.183 NA
HETATM    9  C8  UNL     1      24.982   3.627  49.658  1.00  0.00     0.190 C 
HETATM   10  C9  UNL     1      26.386   3.198  49.773  1.00  0.00     0.168 C 
HETATM   11  O3  UNL     1      26.798   2.042  50.462  1.00  0.00    -0.293 OA
HETATM   12  H5  UNL     1      23.177   2.836  52.362  1.00  0.00     0.189 HD
ENDROOT
BRANCH  10  13
HETATM   13  N3  UNL     1      27.221   3.983  49.178  1.00  0.00    -0.127 NA
HETATM   14  C10 UNL     1      26.742   5.286  48.867  1.00  0.00     0.198 A 
HETATM   15  N4  UNL     1      28.010   5.201  48.675  1.00  0.00    -0.280 N 
BRANCH  15  16
HETATM   16  C11 UNL     1      28.779   6.325  48.204  1.00  0.00     0.266 C 
BRANCH  16  17
HETATM   17  N5  UNL     1      28.455   7.494  49.007  1.00  0.00    -0.372 N 
HETATM   18  H10 UNL     1      27.639   7.497  49.660  1.00  0.00     0.161 HD
BRANCH  17  19
HETATM   19  C12 UNL     1      29.265   8.657  48.901  1.00  0.00     0.031 A 
HETATM   20  C13 UNL     1      30.641   8.587  48.691  1.00  0.00     0.032 A 
HETATM   21  C14 UNL     1      31.378   9.759  48.595  1.00  0.00     0.046 A 
HETATM   22  C15 UNL     1      30.756  10.975  48.708  1.00  0.00     0.138 A 
HETATM   23  F1  UNL     1      31.482  12.136  48.614  1.00  0.00    -0.204 F 
HETATM   24  C16 UNL     1      29.393  11.121  48.917  1.00  0.00     0.074 A 
HETATM   25 CL1  UNL     1      28.569  12.641  49.064  1.00  0.00    -0.081 Cl
HETATM   26  C17 UNL     1      28.713   9.913  49.003  1.00  0.00     0.056 A 
ENDBRANCH  17  19
ENDBRANCH  16  17
ENDBRANCH  15  16
ENDBRANCH  10  13
BRANCH   1  27
HETATM   27  C1  UNL     1      24.838  -0.695  54.862  1.00  0.00     0.176 C 
HETATM   28  O1  UNL     1      25.615  -0.916  55.826  1.00  0.00    -0.646 OA
BRANCH  27  29
HETATM   29  O2  UNL     1      23.661  -1.307  55.195  1.00  0.00    -0.773 OA
HETATM   30  H1  UNL     1      22.773  -0.847  55.039  1.00  0.00     0.167 HD
ENDBRANCH  27  29
ENDBRANCH   1  27
TORSDOF 6
ENDMDL
MODEL 9
REMARK VINA RESULT:      -8.0      5.202      6.228
REMARK  6 active torsions:
REMARK  status: ('A' for Active; 'I' for Inactive)
REMARK    1  A    between atoms: C1_2  and  O2_3 
REMARK    2  A    between atoms: C1_2  and  C2_4 
REMARK    3  A    between atoms: C9_13  and  N3_14 
REMARK    4  A    between atoms: N4_16  and  C11_17 
REMARK    5  A    between atoms: C11_17  and  N5_18 
REMARK    6  A    between atoms: N5_18  and  C12_19 
ROOT
HETATM    1  C2  UNL     1      25.856   7.648  50.086  1.00  0.00     0.040 A 
HETATM    2  C3  UNL     1      25.948   6.773  49.032  1.00  0.00     0.021 A 
HETATM    3  C4  UNL     1      27.048   6.913  48.180  1.00  0.00     0.041 A 
HETATM    4  C5  UNL     1      27.973   7.904  48.429  1.00  0.00     0.105 A 
HETATM    5  C6  UNL     1      27.840   8.773  49.511  1.00  0.00     0.085 A 
HETATM    6  C7  UNL     1      26.752   8.655  50.378  1.00  0.00     0.052 A 
HETATM    7  N1  UNL     1      28.654   9.851  49.960  1.00  0.00    -0.276 N 
HETATM    8  N2  UNL     1      29.709  10.426  49.209  1.00  0.00    -0.183 NA
HETATM    9  C8  UNL     1      30.364   9.936  48.200  1.00  0.00     0.190 C 
HETATM   10  C9  UNL     1      30.212   8.634  47.527  1.00  0.00     0.168 C 
HETATM   11  O3  UNL     1      29.007   7.909  47.487  1.00  0.00    -0.293 OA
HETATM   12  H5  UNL     1      28.422  10.211  50.910  1.00  0.00     0.189 HD
ENDROOT
BRANCH  10  13
HETATM   13  N3  UNL     1      31.296   8.207  46.969  1.00  0.00    -0.127 NA
HETATM   14  C10 UNL     1      32.394   7.958  47.839  1.00  0.00     0.198 A 
HETATM   15  N4  UNL     1      32.628   7.508  46.658  1.00  0.00    -0.280 N 
BRANCH  15  16
HETATM   16  C11 UNL     1      33.867   6.848  46.334  1.00  0.00     0.266 C 
BRANCH  16  17
HETATM   17  N5  UNL     1      33.575   5.594  45.659  1.00  0.00    -0.372 N 
HETATM   18  H10 UNL     1      33.423   5.553  44.626  1.00  0.00     0.161 HD
BRANCH  17  19
HETATM   19  C12 UNL     1      33.494   4.396  46.420  1.00  0.00     0.031 A 
HETATM   20  C13 UNL     1      34.346   4.140  47.494  1.00  0.00     0.032 A 
HETATM   21  C14 UNL     1      34.217   2.951  48.199  1.00  0.00     0.046 A 
HETATM   22  C15 UNL     1      33.260   2.038  47.841  1.00  0.00     0.138 A 
HETATM   23  F1  UNL     1      33.129   0.862  48.537  1.00  0.00    -0.204 F 
HETATM   24  C16 UNL     1      32.379   2.225  46.787  1.00  0.00     0.074 A 
HETATM   25 CL1  UNL     1      31.155   1.095  46.303  1.00  0.00    -0.081 Cl
HETATM   26  C17 UNL     1      32.559   3.432  46.122  1.00  0.00     0.056 A 
ENDBRANCH  17  19
ENDBRANCH  16  17
ENDBRANCH  15  16
ENDBRANCH  10  13
BRANCH   1  27
HETATM   27  C1  UNL     1      24.696   7.455  50.936  1.00  0.00     0.176 C 
HETATM   28  O1  UNL     1      23.575   7.940  50.632  1.00  0.00    -0.646 OA
BRANCH  27  29
HETATM   29  O2  UNL     1      24.499   6.802  52.122  1.00  0.00    -0.773 OA
HETATM   30  H1  UNL     1      24.567   5.794  52.178  1.00  0.00     0.167 HD
ENDBRANCH  27  29
ENDBRANCH   1  27
TORSDOF 6
ENDMDL
