MODEL 1
REMARK VINA RESULT:      -8.3      0.000      0.000
REMARK  5 active torsions:
REMARK  status: ('A' for Active; 'I' for Inactive)
REMARK    1  A    between atoms: N1_2  and  C3_4 
REMARK    2  A    between atoms: C3_4  and  O1_5 
REMARK    3  A    between atoms: O1_5  and  C4_6 
REMARK    4  A    between atoms: C7_9  and  N2_10 
REMARK    5  A    between atoms: N2_10  and  C8_11 
ROOT
HETATM    1  C4  UNL     1      25.496  -0.466  54.199  1.00  0.00     0.166 A 
HETATM    2  C5  UNL     1      24.534   0.009  53.330  1.00  0.00     0.074 A 
HETATM    3  C6  UNL     1      23.201  -0.289  53.614  1.00  0.00     0.026 A 
HETATM    4  C7  UNL     1      22.251   0.192  52.736  1.00  0.00     0.068 A 
HETATM    5  C14 UNL     1      20.925  -0.101  53.015  1.00  0.00     0.089 A 
HETATM    6  C15 UNL     1      19.892   0.372  52.140  1.00  0.00     0.103 C 
HETATM    7  N3  UNL     1      19.034   0.748  51.428  1.00  0.00    -0.191 NA
HETATM    8  C16 UNL     1      20.632  -0.850  54.141  1.00  0.00     0.142 A 
HETATM    9  N4  UNL     1      21.606  -1.293  54.963  1.00  0.00    -0.257 NA
HETATM   10  C17 UNL     1      22.915  -1.036  54.740  1.00  0.00     0.086 A 
HETATM   11  C18 UNL     1      23.892  -1.502  55.597  1.00  0.00     0.152 A 
HETATM   12  N5  UNL     1      25.189  -1.195  55.294  1.00  0.00    -0.235 NA
ENDROOT
BRANCH   4  13
HETATM   13  N2  UNL     1      22.626   0.955  51.597  1.00  0.00    -0.354 N 
HETATM   14  H10 UNL     1      22.571   0.280  50.819  1.00  0.00     0.166 HD
BRANCH  13  15
HETATM   15  C8  UNL     1      22.995   2.324  51.494  1.00  0.00     0.033 A 
HETATM   16  C9  UNL     1      22.246   3.265  52.165  1.00  0.00     0.029 A 
HETATM   17  C10 UNL     1      22.672   4.569  52.013  1.00  0.00     0.004 A 
HETATM   18  C11 UNL     1      23.778   4.939  51.241  1.00  0.00     0.019 A 
HETATM   19  C12 UNL     1      24.468   3.919  50.605  1.00  0.00     0.013 A 
HETATM   20 BR1  UNL     1      26.004   4.333  49.522  1.00  0.00    -0.051 Br
HETATM   21  C13 UNL     1      24.095   2.575  50.714  1.00  0.00     0.048 A 
ENDBRANCH  13  15
ENDBRANCH   4  13
BRANCH   1  22
HETATM   22  O1  UNL     1      26.813  -0.153  53.890  1.00  0.00    -0.315 OA
BRANCH  22  23
HETATM   23  C3  UNL     1      27.706   0.240  54.931  1.00  0.00     0.296 C 
BRANCH  23  24
HETATM   24  N1  UNL     1      28.943   0.750  54.428  1.00  0.00    -0.400 N 
HETATM   25  C1  UNL     1      29.684  -0.201  53.644  1.00  0.00     0.144 C 
HETATM   26  C2  UNL     1      28.903   2.071  53.891  1.00  0.00     0.144 C 
ENDBRANCH  23  24
ENDBRANCH  22  23
ENDBRANCH   1  22
TORSDOF 5
ENDMDL
MODEL 2
REMARK VINA RESULT:      -8.0      2.323      5.602
REMARK  5 active torsions:
REMARK  status: ('A' for Active; 'I' for Inactive)
REMARK    1  A    between atoms: N1_2  and  C3_4 
REMARK    2  A    between atoms: C3_4  and  O1_5 
REMARK    3  A    between atoms: O1_5  and  C4_6 
REMARK    4  A    between atoms: C7_9  and  N2_10 
REMARK    5  A    between atoms: N2_10  and  C8_11 
ROOT
HETATM    1  C4  UNL     1      21.790  -1.179  54.278  1.00  0.00     0.166 A 
HETATM    2  C5  UNL     1      22.504  -0.345  53.442  1.00  0.00     0.074 A 
HETATM    3  C6  UNL     1      23.854  -0.141  53.730  1.00  0.00     0.026 A 
HETATM    4  C7  UNL     1      24.555   0.695  52.886  1.00  0.00     0.068 A 
HETATM    5  C14 UNL     1      25.897   0.900  53.169  1.00  0.00     0.089 A 
HETATM    6  C15 UNL     1      26.679   1.759  52.328  1.00  0.00     0.103 C 
HETATM    7  N3  UNL     1      27.333   2.465  51.650  1.00  0.00    -0.191 NA
HETATM    8  C16 UNL     1      26.451   0.264  54.266  1.00  0.00     0.142 A 
HETATM    9  N4  UNL     1      25.713  -0.544  55.056  1.00  0.00    -0.257 NA
HETATM   10  C17 UNL     1      24.400  -0.779  54.827  1.00  0.00     0.086 A 
HETATM   11  C18 UNL     1      23.668  -1.610  55.650  1.00  0.00     0.152 A 
HETATM   12  N5  UNL     1      22.349  -1.792  55.344  1.00  0.00    -0.235 NA
ENDROOT
BRANCH   4  13
HETATM   13  N2  UNL     1      23.921   1.317  51.776  1.00  0.00    -0.354 N 
HETATM   14  H10 UNL     1      24.055   0.643  51.006  1.00  0.00     0.166 HD
BRANCH  13  15
HETATM   15  C8  UNL     1      23.247   2.564  51.690  1.00  0.00     0.033 A 
HETATM   16  C9  UNL     1      23.513   3.529  52.636  1.00  0.00     0.029 A 
HETATM   17  C10 UNL     1      22.818   4.711  52.479  1.00  0.00     0.004 A 
HETATM   18  C11 UNL     1      21.903   4.942  51.446  1.00  0.00     0.019 A 
HETATM   19  C12 UNL     1      21.704   3.910  50.544  1.00  0.00     0.013 A 
HETATM   20 BR1  UNL     1      20.464   4.137  49.089  1.00  0.00    -0.051 Br
HETATM   21  C13 UNL     1      22.373   2.685  50.639  1.00  0.00     0.048 A 
ENDBRANCH  13  15
ENDBRANCH   4  13
BRANCH   1  22
HETATM   22  O1  UNL     1      20.449  -1.362  53.965  1.00  0.00    -0.315 OA
BRANCH  22  23
HETATM   23  C3  UNL     1      19.758  -0.364  53.217  1.00  0.00     0.296 C 
BRANCH  23  24
HETATM   24  N1  UNL     1      18.391  -0.707  52.977  1.00  0.00    -0.400 N 
HETATM   25  C1  UNL     1      17.954  -0.438  51.633  1.00  0.00     0.144 C 
HETATM   26  C2  UNL     1      17.957  -1.957  53.510  1.00  0.00     0.144 C 
ENDBRANCH  23  24
ENDBRANCH  22  23
ENDBRANCH   1  22
TORSDOF 5
ENDMDL
MODEL 3
REMARK VINA RESULT:      -7.9      2.305      4.410
REMARK  5 active torsions:
REMARK  status: ('A' for Active; 'I' for Inactive)
REMARK    1  A    between atoms: N1_2  and  C3_4 
REMARK    2  A    between atoms: C3_4  and  O1_5 
REMARK    3  A    between atoms: O1_5  and  C4_6 
REMARK    4  A    between atoms: C7_9  and  N2_10 
REMARK    5  A    between atoms: N2_10  and  C8_11 
ROOT
HETATM    1  C4  UNL     1      27.014   2.124  51.897  1.00  0.00     0.166 A 
HETATM    2  C5  UNL     1      25.779   1.537  52.082  1.00  0.00     0.074 A 
HETATM    3  C6  UNL     1      25.604   0.743  53.216  1.00  0.00     0.026 A 
HETATM    4  C7  UNL     1      24.364   0.162  53.388  1.00  0.00     0.068 A 
HETATM    5  C14 UNL     1      24.186  -0.628  54.514  1.00  0.00     0.089 A 
HETATM    6  C15 UNL     1      22.919  -1.259  54.747  1.00  0.00     0.103 C 
HETATM    7  N3  UNL     1      21.887  -1.787  54.950  1.00  0.00    -0.191 NA
HETATM    8  C16 UNL     1      25.246  -0.788  55.389  1.00  0.00     0.142 A 
HETATM    9  N4  UNL     1      26.436  -0.192  55.167  1.00  0.00    -0.257 NA
HETATM   10  C17 UNL     1      26.665   0.588  54.086  1.00  0.00     0.086 A 
HETATM   11  C18 UNL     1      27.893   1.185  53.882  1.00  0.00     0.152 A 
HETATM   12  N5  UNL     1      28.036   1.957  52.764  1.00  0.00    -0.235 NA
ENDROOT
BRANCH   4  13
HETATM   13  N2  UNL     1      23.320   0.368  52.446  1.00  0.00    -0.354 N 
HETATM   14  H10 UNL     1      23.469  -0.375  51.745  1.00  0.00     0.166 HD
BRANCH  13  15
HETATM   15  C8  UNL     1      22.289   1.346  52.424  1.00  0.00     0.033 A 
HETATM   16  C9  UNL     1      21.004   0.962  52.735  1.00  0.00     0.029 A 
HETATM   17  C10 UNL     1      20.064   1.971  52.691  1.00  0.00     0.004 A 
HETATM   18  C11 UNL     1      20.363   3.296  52.357  1.00  0.00     0.019 A 
HETATM   19  C12 UNL     1      21.685   3.584  52.060  1.00  0.00     0.013 A 
HETATM   20 BR1  UNL     1      22.192   5.380  51.590  1.00  0.00    -0.051 Br
HETATM   21  C13 UNL     1      22.692   2.613  52.085  1.00  0.00     0.048 A 
ENDBRANCH  13  15
ENDBRANCH   4  13
BRANCH   1  22
HETATM   22  O1  UNL     1      27.157   2.909  50.760  1.00  0.00    -0.315 OA
BRANCH  22  23
HETATM   23  C3  UNL     1      25.998   3.436  50.116  1.00  0.00     0.296 C 
BRANCH  23  24
HETATM   24  N1  UNL     1      26.224   4.730  49.554  1.00  0.00    -0.400 N 
HETATM   25  C1  UNL     1      27.413   4.811  48.749  1.00  0.00     0.144 C 
HETATM   26  C2  UNL     1      25.080   5.380  49.002  1.00  0.00     0.144 C 
ENDBRANCH  23  24
ENDBRANCH  22  23
ENDBRANCH   1  22
TORSDOF 5
ENDMDL
MODEL 4
REMARK VINA RESULT:      -7.8      2.794      4.748
REMARK  5 active torsions:
REMARK  status: ('A' for Active; 'I' for Inactive)
REMARK    1  A    between atoms: N1_2  and  C3_4 
REMARK    2  A    between atoms: C3_4  and  O1_5 
REMARK    3  A    between atoms: O1_5  and  C4_6 
REMARK    4  A    between atoms: C7_9  and  N2_10 
REMARK    5  A    between atoms: N2_10  and  C8_11 
ROOT
HETATM    1  C4  UNL     1      26.856   2.053  51.812  1.00  0.00     0.166 A 
HETATM    2  C5  UNL     1      25.630   1.436  51.956  1.00  0.00     0.074 A 
HETATM    3  C6  UNL     1      25.419   0.675  53.106  1.00  0.00     0.026 A 
HETATM    4  C7  UNL     1      24.189   0.063  53.236  1.00  0.00     0.068 A 
HETATM    5  C14 UNL     1      23.975  -0.694  54.378  1.00  0.00     0.089 A 
HETATM    6  C15 UNL     1      22.716  -1.353  54.569  1.00  0.00     0.103 C 
HETATM    7  N3  UNL     1      21.690  -1.905  54.738  1.00  0.00    -0.191 NA
HETATM    8  C16 UNL     1      24.993  -0.793  55.310  1.00  0.00     0.142 A 
HETATM    9  N4  UNL     1      26.176  -0.170  55.127  1.00  0.00    -0.257 NA
HETATM   10  C17 UNL     1      26.438   0.580  54.033  1.00  0.00     0.086 A 
HETATM   11  C18 UNL     1      27.658   1.206  53.870  1.00  0.00     0.152 A 
HETATM   12  N5  UNL     1      27.836   1.945  52.735  1.00  0.00    -0.235 NA
ENDROOT
BRANCH   4  13
HETATM   13  N2  UNL     1      23.189   0.208  52.236  1.00  0.00    -0.354 N 
HETATM   14  H10 UNL     1      23.492  -0.436  51.488  1.00  0.00     0.166 HD
BRANCH  13  15
HETATM   15  C8  UNL     1      22.028   1.027  52.215  1.00  0.00     0.033 A 
HETATM   16  C9  UNL     1      22.161   2.373  52.470  1.00  0.00     0.029 A 
HETATM   17  C10 UNL     1      20.987   3.096  52.430  1.00  0.00     0.004 A 
HETATM   18  C11 UNL     1      19.736   2.531  52.155  1.00  0.00     0.019 A 
HETATM   19  C12 UNL     1      19.706   1.168  51.911  1.00  0.00     0.013 A 
HETATM   20 BR1  UNL     1      18.031   0.303  51.523  1.00  0.00    -0.051 Br
HETATM   21  C13 UNL     1      20.855   0.372  51.934  1.00  0.00     0.048 A 
ENDBRANCH  13  15
ENDBRANCH   4  13
BRANCH   1  22
HETATM   22  O1  UNL     1      27.036   2.803  50.658  1.00  0.00    -0.315 OA
BRANCH  22  23
HETATM   23  C3  UNL     1      25.900   3.351  49.989  1.00  0.00     0.296 C 
BRANCH  23  24
HETATM   24  N1  UNL     1      26.126   4.685  49.528  1.00  0.00    -0.400 N 
HETATM   25  C1  UNL     1      27.329   4.833  48.755  1.00  0.00     0.144 C 
HETATM   26  C2  UNL     1      24.988   5.367  49.005  1.00  0.00     0.144 C 
ENDBRANCH  23  24
ENDBRANCH  22  23
ENDBRANCH   1  22
TORSDOF 5
ENDMDL
MODEL 5
REMARK VINA RESULT:      -7.4      3.259      5.678
REMARK  5 active torsions:
REMARK  status: ('A' for Active; 'I' for Inactive)
REMARK    1  A    between atoms: N1_2  and  C3_4 
REMARK    2  A    between atoms: C3_4  and  O1_5 
REMARK    3  A    between atoms: O1_5  and  C4_6 
REMARK    4  A    between atoms: C7_9  and  N2_10 
REMARK    5  A    between atoms: N2_10  and  C8_11 
ROOT
HETATM    1  C4  UNL     1      25.178   3.158  51.003  1.00  0.00     0.166 A 
HETATM    2  C5  UNL     1      24.175   2.528  51.712  1.00  0.00     0.074 A 
HETATM    3  C6  UNL     1      24.504   1.358  52.398  1.00  0.00     0.026 A 
HETATM    4  C7  UNL     1      23.491   0.739  53.101  1.00  0.00     0.068 A 
HETATM    5  C14 UNL     1      23.814  -0.424  53.784  1.00  0.00     0.089 A 
HETATM    6  C15 UNL     1      22.804  -1.113  54.533  1.00  0.00     0.103 C 
HETATM    7  N3  UNL     1      21.985  -1.693  55.148  1.00  0.00    -0.191 NA
HETATM    8  C16 UNL     1      25.115  -0.892  53.723  1.00  0.00     0.142 A 
HETATM    9  N4  UNL     1      26.063  -0.241  53.018  1.00  0.00    -0.257 NA
HETATM   10  C17 UNL     1      25.804   0.897  52.333  1.00  0.00     0.086 A 
HETATM   11  C18 UNL     1      26.793   1.543  51.619  1.00  0.00     0.152 A 
HETATM   12  N5  UNL     1      26.442   2.686  50.957  1.00  0.00    -0.235 NA
ENDROOT
BRANCH   4  13
HETATM   13  N2  UNL     1      22.175   1.276  53.118  1.00  0.00    -0.354 N 
HETATM   14  H10 UNL     1      22.215   2.003  53.849  1.00  0.00     0.166 HD
BRANCH  13  15
HETATM   15  C8  UNL     1      21.038   0.935  52.337  1.00  0.00     0.033 A 
HETATM   16  C9  UNL     1      20.977   1.366  51.031  1.00  0.00     0.029 A 
HETATM   17  C10 UNL     1      19.841   0.991  50.343  1.00  0.00     0.004 A 
HETATM   18  C11 UNL     1      18.810   0.230  50.903  1.00  0.00     0.019 A 
HETATM   19  C12 UNL     1      18.964  -0.156  52.225  1.00  0.00     0.013 A 
HETATM   20 BR1  UNL     1      17.597  -1.206  53.081  1.00  0.00    -0.051 Br
HETATM   21  C13 UNL     1      20.088   0.185  52.984  1.00  0.00     0.048 A 
ENDBRANCH  13  15
ENDBRANCH   4  13
BRANCH   1  22
HETATM   22  O1  UNL     1      24.820   4.320  50.331  1.00  0.00    -0.315 OA
BRANCH  22  23
HETATM   23  C3  UNL     1      24.092   5.335  51.020  1.00  0.00     0.296 C 
BRANCH  23  24
HETATM   24  N1  UNL     1      24.659   6.635  50.838  1.00  0.00    -0.400 N 
HETATM   25  C1  UNL     1      25.667   6.688  49.814  1.00  0.00     0.144 C 
HETATM   26  C2  UNL     1      23.737   7.724  50.830  1.00  0.00     0.144 C 
ENDBRANCH  23  24
ENDBRANCH  22  23
ENDBRANCH   1  22
TORSDOF 5
ENDMDL
MODEL 6
REMARK VINA RESULT:      -7.2      1.628      2.260
REMARK  5 active torsions:
REMARK  status: ('A' for Active; 'I' for Inactive)
REMARK    1  A    between atoms: N1_2  and  C3_4 
REMARK    2  A    between atoms: C3_4  and  O1_5 
REMARK    3  A    between atoms: O1_5  and  C4_6 
REMARK    4  A    between atoms: C7_9  and  N2_10 
REMARK    5  A    between atoms: N2_10  and  C8_11 
ROOT
HETATM    1  C4  UNL     1      25.229   0.197  53.083  1.00  0.00     0.166 A 
HETATM    2  C5  UNL     1      24.713   1.010  52.095  1.00  0.00     0.074 A 
HETATM    3  C6  UNL     1      23.328   1.029  51.929  1.00  0.00     0.026 A 
HETATM    4  C7  UNL     1      22.827   1.846  50.936  1.00  0.00     0.068 A 
HETATM    5  C14 UNL     1      21.451   1.868  50.769  1.00  0.00     0.089 A 
HETATM    6  C15 UNL     1      20.870   2.698  49.754  1.00  0.00     0.103 C 
HETATM    7  N3  UNL     1      20.379   3.370  48.921  1.00  0.00    -0.191 NA
HETATM    8  C16 UNL     1      20.668   1.080  51.594  1.00  0.00     0.142 A 
HETATM    9  N4  UNL     1      21.217   0.301  52.549  1.00  0.00    -0.257 NA
HETATM   10  C17 UNL     1      22.552   0.240  52.756  1.00  0.00     0.086 A 
HETATM   11  C18 UNL     1      23.088  -0.566  53.740  1.00  0.00     0.152 A 
HETATM   12  N5  UNL     1      24.447  -0.564  53.880  1.00  0.00    -0.235 NA
ENDROOT
BRANCH   4  13
HETATM   13  N2  UNL     1      23.692   2.628  50.124  1.00  0.00    -0.354 N 
HETATM   14  H10 UNL     1      23.945   1.994  49.351  1.00  0.00     0.166 HD
BRANCH  13  15
HETATM   15  C8  UNL     1      24.136   3.968  50.288  1.00  0.00     0.033 A 
HETATM   16  C9  UNL     1      23.499   4.770  51.208  1.00  0.00     0.029 A 
HETATM   17  C10 UNL     1      23.991   6.055  51.306  1.00  0.00     0.004 A 
HETATM   18  C11 UNL     1      25.058   6.538  50.540  1.00  0.00     0.019 A 
HETATM   19  C12 UNL     1      25.634   5.654  49.641  1.00  0.00     0.013 A 
HETATM   20 BR1  UNL     1      27.108   6.229  48.545  1.00  0.00    -0.051 Br
HETATM   21  C13 UNL     1      25.189   4.338  49.488  1.00  0.00     0.048 A 
ENDBRANCH  13  15
ENDBRANCH   4  13
BRANCH   1  22
HETATM   22  O1  UNL     1      26.610   0.200  53.224  1.00  0.00    -0.315 OA
BRANCH  22  23
HETATM   23  C3  UNL     1      27.185   0.258  54.529  1.00  0.00     0.296 C 
BRANCH  23  24
HETATM   24  N1  UNL     1      28.555   0.667  54.507  1.00  0.00    -0.400 N 
HETATM   25  C1  UNL     1      29.464  -0.377  54.117  1.00  0.00     0.144 C 
HETATM   26  C2  UNL     1      28.817   1.941  53.922  1.00  0.00     0.144 C 
ENDBRANCH  23  24
ENDBRANCH  22  23
ENDBRANCH   1  22
TORSDOF 5
ENDMDL
MODEL 7
REMARK VINA RESULT:      -7.1      2.882      5.058
REMARK  5 active torsions:
REMARK  status: ('A' for Active; 'I' for Inactive)
REMARK    1  A    between atoms: N1_2  and  C3_4 
REMARK    2  A    between atoms: C3_4  and  O1_5 
REMARK    3  A    between atoms: O1_5  and  C4_6 
REMARK    4  A    between atoms: C7_9  and  N2_10 
REMARK    5  A    between atoms: N2_10  and  C8_11 
ROOT
HETATM    1  C4  UNL     1      25.661   3.020  51.140  1.00  0.00     0.166 A 
HETATM    2  C5  UNL     1      24.551   2.478  51.756  1.00  0.00     0.074 A 
HETATM    3  C6  UNL     1      24.729   1.310  52.498  1.00  0.00     0.026 A 
HETATM    4  C7  UNL     1      23.610   0.779  53.107  1.00  0.00     0.068 A 
HETATM    5  C14 UNL     1      23.782  -0.382  53.846  1.00  0.00     0.089 A 
HETATM    6  C15 UNL     1      22.657  -0.981  54.503  1.00  0.00     0.103 C 
HETATM    7  N3  UNL     1      21.742  -1.488  55.043  1.00  0.00    -0.191 NA
HETATM    8  C16 UNL     1      25.048  -0.935  53.931  1.00  0.00     0.142 A 
HETATM    9  N4  UNL     1      26.105  -0.368  53.312  1.00  0.00    -0.257 NA
HETATM   10  C17 UNL     1      25.994   0.763  52.579  1.00  0.00     0.086 A 
HETATM   11  C18 UNL     1      27.092   1.322  51.956  1.00  0.00     0.152 A 
HETATM   12  N5  UNL     1      26.889   2.465  51.236  1.00  0.00    -0.235 NA
ENDROOT
BRANCH   4  13
HETATM   13  N2  UNL     1      22.339   1.401  52.976  1.00  0.00    -0.354 N 
HETATM   14  H10 UNL     1      22.315   2.080  53.753  1.00  0.00     0.166 HD
BRANCH  13  15
HETATM   15  C8  UNL     1      21.308   1.183  52.023  1.00  0.00     0.033 A 
HETATM   16  C9  UNL     1      20.226   0.412  52.382  1.00  0.00     0.029 A 
HETATM   17  C10 UNL     1      19.270   0.250  51.400  1.00  0.00     0.004 A 
HETATM   18  C11 UNL     1      19.365   0.815  50.123  1.00  0.00     0.019 A 
HETATM   19  C12 UNL     1      20.493   1.576  49.858  1.00  0.00     0.013 A 
HETATM   20 BR1  UNL     1      20.710   2.394  48.130  1.00  0.00    -0.051 Br
HETATM   21  C13 UNL     1      21.501   1.784  50.804  1.00  0.00     0.048 A 
ENDBRANCH  13  15
ENDBRANCH   4  13
BRANCH   1  22
HETATM   22  O1  UNL     1      25.453   4.182  50.409  1.00  0.00    -0.315 OA
BRANCH  22  23
HETATM   23  C3  UNL     1      26.348   4.518  49.350  1.00  0.00     0.296 C 
BRANCH  23  24
HETATM   24  N1  UNL     1      26.272   5.898  48.984  1.00  0.00    -0.400 N 
HETATM   25  C1  UNL     1      25.645   6.726  49.980  1.00  0.00     0.144 C 
HETATM   26  C2  UNL     1      27.445   6.453  48.393  1.00  0.00     0.144 C 
ENDBRANCH  23  24
ENDBRANCH  22  23
ENDBRANCH   1  22
TORSDOF 5
ENDMDL
MODEL 8
REMARK VINA RESULT:      -7.1      2.562      5.848
REMARK  5 active torsions:
REMARK  status: ('A' for Active; 'I' for Inactive)
REMARK    1  A    between atoms: N1_2  and  C3_4 
REMARK    2  A    between atoms: C3_4  and  O1_5 
REMARK    3  A    between atoms: O1_5  and  C4_6 
REMARK    4  A    between atoms: C7_9  and  N2_10 
REMARK    5  A    between atoms: N2_10  and  C8_11 
ROOT
HETATM    1  C4  UNL     1      19.522   0.176  51.782  1.00  0.00     0.166 A 
HETATM    2  C5  UNL     1      20.888   0.337  51.897  1.00  0.00     0.074 A 
HETATM    3  C6  UNL     1      21.523  -0.274  52.980  1.00  0.00     0.026 A 
HETATM    4  C7  UNL     1      22.888  -0.104  53.082  1.00  0.00     0.068 A 
HETATM    5  C14 UNL     1      23.523  -0.709  54.156  1.00  0.00     0.089 A 
HETATM    6  C15 UNL     1      24.941  -0.569  54.317  1.00  0.00     0.103 C 
HETATM    7  N3  UNL     1      26.103  -0.458  54.465  1.00  0.00    -0.191 NA
HETATM    8  C16 UNL     1      22.762  -1.440  55.053  1.00  0.00     0.142 A 
HETATM    9  N4  UNL     1      21.428  -1.571  54.898  1.00  0.00    -0.257 NA
HETATM   10  C17 UNL     1      20.758  -1.002  53.870  1.00  0.00     0.086 A 
HETATM   11  C18 UNL     1      19.392  -1.151  53.736  1.00  0.00     0.152 A 
HETATM   12  N5  UNL     1      18.798  -0.543  52.667  1.00  0.00    -0.235 NA
ENDROOT
BRANCH   4  13
HETATM   13  N2  UNL     1      23.606   0.662  52.124  1.00  0.00    -0.354 N 
HETATM   14  H10 UNL     1      24.082  -0.048  51.547  1.00  0.00     0.166 HD
BRANCH  13  15
HETATM   15  C8  UNL     1      23.684   2.071  51.952  1.00  0.00     0.033 A 
HETATM   16  C9  UNL     1      23.881   2.863  53.061  1.00  0.00     0.029 A 
HETATM   17  C10 UNL     1      23.947   4.218  52.808  1.00  0.00     0.004 A 
HETATM   18  C11 UNL     1      23.825   4.776  51.530  1.00  0.00     0.019 A 
HETATM   19  C12 UNL     1      23.629   3.895  50.479  1.00  0.00     0.013 A 
HETATM   20 BR1  UNL     1      23.451   4.571  48.685  1.00  0.00    -0.051 Br
HETATM   21  C13 UNL     1      23.553   2.511  50.659  1.00  0.00     0.048 A 
ENDBRANCH  13  15
ENDBRANCH   4  13
BRANCH   1  22
HETATM   22  O1  UNL     1      18.919   0.795  50.695  1.00  0.00    -0.315 OA
BRANCH  22  23
HETATM   23  C3  UNL     1      18.231   2.030  50.880  1.00  0.00     0.296 C 
BRANCH  23  24
HETATM   24  N1  UNL     1      18.524   2.981  49.854  1.00  0.00    -0.400 N 
HETATM   25  C1  UNL     1      17.738   4.182  49.936  1.00  0.00     0.144 C 
HETATM   26  C2  UNL     1      19.906   3.186  49.568  1.00  0.00     0.144 C 
ENDBRANCH  23  24
ENDBRANCH  22  23
ENDBRANCH   1  22
TORSDOF 5
ENDMDL
MODEL 9
REMARK VINA RESULT:      -7.0      2.325      6.044
REMARK  5 active torsions:
REMARK  status: ('A' for Active; 'I' for Inactive)
REMARK    1  A    between atoms: N1_2  and  C3_4 
REMARK    2  A    between atoms: C3_4  and  O1_5 
REMARK    3  A    between atoms: O1_5  and  C4_6 
REMARK    4  A    between atoms: C7_9  and  N2_10 
REMARK    5  A    between atoms: N2_10  and  C8_11 
ROOT
HETATM    1  C4  UNL     1      20.475   0.110  52.802  1.00  0.00     0.166 A 
HETATM    2  C5  UNL     1      21.617   0.678  52.275  1.00  0.00     0.074 A 
HETATM    3  C6  UNL     1      22.836   0.355  52.874  1.00  0.00     0.026 A 
HETATM    4  C7  UNL     1      23.969   0.931  52.338  1.00  0.00     0.068 A 
HETATM    5  C14 UNL     1      25.182   0.612  52.929  1.00  0.00     0.089 A 
HETATM    6  C15 UNL     1      26.395   1.178  52.416  1.00  0.00     0.103 C 
HETATM    7  N3  UNL     1      27.399   1.640  52.010  1.00  0.00    -0.191 NA
HETATM    8  C16 UNL     1      25.188  -0.254  54.009  1.00  0.00     0.142 A 
HETATM    9  N4  UNL     1      24.045  -0.786  54.489  1.00  0.00    -0.257 NA
HETATM   10  C17 UNL     1      22.835  -0.509  53.951  1.00  0.00     0.086 A 
HETATM   11  C18 UNL     1      21.680  -1.067  54.462  1.00  0.00     0.152 A 
HETATM   12  N5  UNL     1      20.502  -0.734  53.856  1.00  0.00    -0.235 NA
ENDROOT
BRANCH   4  13
HETATM   13  N2  UNL     1      23.887   1.813  51.226  1.00  0.00    -0.354 N 
HETATM   14  H10 UNL     1      23.725   1.184  50.424  1.00  0.00     0.166 HD
BRANCH  13  15
HETATM   15  C8  UNL     1      23.995   3.228  51.173  1.00  0.00     0.033 A 
HETATM   16  C9  UNL     1      23.207   3.985  52.011  1.00  0.00     0.029 A 
HETATM   17  C10 UNL     1      23.373   5.350  51.898  1.00  0.00     0.004 A 
HETATM   18  C11 UNL     1      24.267   5.952  51.005  1.00  0.00     0.019 A 
HETATM   19  C12 UNL     1      25.016   5.105  50.203  1.00  0.00     0.013 A 
HETATM   20 BR1  UNL     1      26.273   5.842  48.945  1.00  0.00    -0.051 Br
HETATM   21  C13 UNL     1      24.902   3.713  50.264  1.00  0.00     0.048 A 
ENDBRANCH  13  15
ENDBRANCH   4  13
BRANCH   1  22
HETATM   22  O1  UNL     1      19.278   0.451  52.185  1.00  0.00    -0.315 OA
BRANCH  22  23
HETATM   23  C3  UNL     1      18.268  -0.542  52.011  1.00  0.00     0.296 C 
BRANCH  23  24
HETATM   24  N1  UNL     1      17.025   0.012  51.574  1.00  0.00    -0.400 N 
HETATM   25  C1  UNL     1      16.721  -0.264  50.196  1.00  0.00     0.144 C 
HETATM   26  C2  UNL     1      15.926  -0.133  52.472  1.00  0.00     0.144 C 
ENDBRANCH  23  24
ENDBRANCH  22  23
ENDBRANCH   1  22
TORSDOF 5
ENDMDL
