MODEL 1
REMARK VINA RESULT:      -8.2      0.000      0.000
REMARK  6 active torsions:
REMARK  status: ('A' for Active; 'I' for Inactive)
REMARK    1  A    between atoms: O1_2  and  C2_3 
REMARK    2  A    between atoms: C3_5  and  N2_6 
REMARK    3  A    between atoms: N2_6  and  C4_7 
REMARK    4  A    between atoms: C4_7  and  C5_8 
REMARK    5  A    between atoms: C12_16  and  C13_17 
REMARK       I    between atoms: C13_17  and  N4_19 
REMARK    6  A    between atoms: N4_19  and  C14_20 
ROOT
HETATM    1  C2  UNL     1      22.942   2.316  50.583  1.00  0.00     0.173 A 
HETATM    2  N1  UNL     1      23.042   1.135  51.142  1.00  0.00    -0.042 NA
HETATM    3  C3  UNL     1      23.504   0.985  52.459  1.00  0.00     0.720 A 
HETATM    4  N3  UNL     1      23.842   1.988  53.159  1.00  0.00    -0.104 NA
HETATM    5  C11 UNL     1      23.780   3.330  52.667  1.00  0.00     0.191 A 
HETATM    6  C12 UNL     1      23.300   3.544  51.285  1.00  0.00     0.176 A 
ENDROOT
BRANCH   6   7
HETATM    7  C13 UNL     1      24.344   4.331  50.562  1.00  0.00     0.235 C 
HETATM    8  O2  UNL     1      24.824   5.444  50.971  1.00  0.00    -0.272 OA
HETATM    9  N4  UNL     1      24.923   3.921  49.328  1.00  0.00    -0.326 N 
HETATM   10  H15 UNL     1      24.610   3.025  48.895  1.00  0.00     0.169 HD
BRANCH   9  11
HETATM   11  C14 UNL     1      25.890   4.901  48.908  1.00  0.00     0.034 A 
HETATM   12  C15 UNL     1      25.444   6.151  48.532  1.00  0.00     0.030 A 
HETATM   13  C16 UNL     1      26.442   7.044  48.138  1.00  0.00     0.009 A 
HETATM   14  C17 UNL     1      27.776   6.682  48.132  1.00  0.00    -0.062 A 
HETATM   15  C18 UNL     1      28.721   7.735  47.690  1.00  0.00     0.048 C 
HETATM   16  C19 UNL     1      28.173   5.419  48.517  1.00  0.00     0.009 A 
HETATM   17  C20 UNL     1      27.209   4.505  48.914  1.00  0.00     0.030 A 
ENDBRANCH   9  11
ENDBRANCH   6   7
BRANCH   1  18
HETATM   18  O1  UNL     1      22.477   2.323  49.289  1.00  0.00    -0.342 OA
HETATM   19  C1  UNL     1      21.562   1.323  48.822  1.00  0.00     0.211 C 
ENDBRANCH   1  18
BRANCH   3  20
HETATM   20  N2  UNL     1      23.610  -0.300  53.059  1.00  0.00    -0.218 N 
HETATM   21  H4  UNL     1      23.147  -1.125  52.576  1.00  0.00     0.178 HD
BRANCH  20  22
HETATM   22  C4  UNL     1      24.315  -0.555  54.295  1.00  0.00     0.176 C 
BRANCH  22  23
HETATM   23  C5  UNL     1      25.776  -0.474  54.163  1.00  0.00    -0.040 A 
HETATM   24  C6  UNL     1      26.665   0.232  54.948  1.00  0.00     0.009 A 
HETATM   25  C7  UNL     1      28.008   0.207  54.696  1.00  0.00     0.001 A 
HETATM   26  C8  UNL     1      28.523  -0.539  53.631  1.00  0.00     0.000 A 
HETATM   27  C9  UNL     1      27.634  -1.259  52.828  1.00  0.00     0.001 A 
HETATM   28  C10 UNL     1      26.288  -1.207  53.115  1.00  0.00     0.009 A 
ENDBRANCH  22  23
ENDBRANCH  20  22
ENDBRANCH   3  20
TORSDOF 6
ENDMDL
MODEL 2
REMARK VINA RESULT:      -7.9      2.744      8.269
REMARK  6 active torsions:
REMARK  status: ('A' for Active; 'I' for Inactive)
REMARK    1  A    between atoms: O1_2  and  C2_3 
REMARK    2  A    between atoms: C3_5  and  N2_6 
REMARK    3  A    between atoms: N2_6  and  C4_7 
REMARK    4  A    between atoms: C4_7  and  C5_8 
REMARK    5  A    between atoms: C12_16  and  C13_17 
REMARK       I    between atoms: C13_17  and  N4_19 
REMARK    6  A    between atoms: N4_19  and  C14_20 
ROOT
HETATM    1  C2  UNL     1      24.645   5.518  50.746  1.00  0.00     0.173 A 
HETATM    2  N1  UNL     1      24.907   6.798  50.852  1.00  0.00    -0.042 NA
HETATM    3  C3  UNL     1      25.920   7.404  50.092  1.00  0.00     0.720 A 
HETATM    4  N3  UNL     1      26.621   6.735  49.272  1.00  0.00    -0.104 NA
HETATM    5  C11 UNL     1      26.436   5.332  49.062  1.00  0.00     0.191 A 
HETATM    6  C12 UNL     1      25.381   4.644  49.839  1.00  0.00     0.176 A 
ENDROOT
BRANCH   6   7
HETATM    7  C13 UNL     1      26.020   3.494  50.546  1.00  0.00     0.235 C 
HETATM    8  O2  UNL     1      26.888   2.715  50.024  1.00  0.00    -0.272 OA
HETATM    9  N4  UNL     1      25.725   3.140  51.894  1.00  0.00    -0.326 N 
HETATM   10  H15 UNL     1      25.029   3.705  52.425  1.00  0.00     0.169 HD
BRANCH   9  11
HETATM   11  C14 UNL     1      26.510   1.992  52.265  1.00  0.00     0.034 A 
HETATM   12  C15 UNL     1      26.045   0.737  51.930  1.00  0.00     0.030 A 
HETATM   13  C16 UNL     1      26.862  -0.324  52.325  1.00  0.00     0.009 A 
HETATM   14  C17 UNL     1      28.048  -0.111  53.003  1.00  0.00    -0.062 A 
HETATM   15  C18 UNL     1      28.809  -1.333  53.356  1.00  0.00     0.048 C 
HETATM   16  C19 UNL     1      28.471   1.163  53.315  1.00  0.00     0.009 A 
HETATM   17  C20 UNL     1      27.684   2.242  52.939  1.00  0.00     0.030 A 
ENDBRANCH   9  11
ENDBRANCH   6   7
BRANCH   1  18
HETATM   18  O1  UNL     1      23.629   5.052  51.546  1.00  0.00    -0.342 OA
HETATM   19  C1  UNL     1      22.289   5.544  51.410  1.00  0.00     0.211 C 
ENDBRANCH   1  18
BRANCH   3  20
HETATM   20  N2  UNL     1      26.199   8.793  50.213  1.00  0.00    -0.218 N 
HETATM   21  H4  UNL     1      26.130   9.242  51.173  1.00  0.00     0.178 HD
BRANCH  20  22
HETATM   22  C4  UNL     1      26.572   9.639  49.101  1.00  0.00     0.176 C 
BRANCH  22  23
HETATM   23  C5  UNL     1      27.980  10.058  49.132  1.00  0.00    -0.040 A 
HETATM   24  C6  UNL     1      29.088   9.300  49.448  1.00  0.00     0.009 A 
HETATM   25  C7  UNL     1      30.345   9.838  49.431  1.00  0.00     0.001 A 
HETATM   26  C8  UNL     1      30.543  11.180  49.090  1.00  0.00     0.000 A 
HETATM   27  C9  UNL     1      29.430  11.959  48.767  1.00  0.00     0.001 A 
HETATM   28  C10 UNL     1      28.180  11.379  48.797  1.00  0.00     0.009 A 
ENDBRANCH  22  23
ENDBRANCH  20  22
ENDBRANCH   3  20
TORSDOF 6
ENDMDL
MODEL 3
REMARK VINA RESULT:      -7.9      4.297      7.514
REMARK  6 active torsions:
REMARK  status: ('A' for Active; 'I' for Inactive)
REMARK    1  A    between atoms: O1_2  and  C2_3 
REMARK    2  A    between atoms: C3_5  and  N2_6 
REMARK    3  A    between atoms: N2_6  and  C4_7 
REMARK    4  A    between atoms: C4_7  and  C5_8 
REMARK    5  A    between atoms: C12_16  and  C13_17 
REMARK       I    between atoms: C13_17  and  N4_19 
REMARK    6  A    between atoms: N4_19  and  C14_20 
ROOT
HETATM    1  C2  UNL     1      21.941   1.432  51.286  1.00  0.00     0.173 A 
HETATM    2  N1  UNL     1      20.841   0.769  51.023  1.00  0.00    -0.042 NA
HETATM    3  C3  UNL     1      20.057   0.217  52.048  1.00  0.00     0.720 A 
HETATM    4  N3  UNL     1      20.383   0.338  53.268  1.00  0.00    -0.104 NA
HETATM    5  C11 UNL     1      21.558   1.038  53.688  1.00  0.00     0.191 A 
HETATM    6  C12 UNL     1      22.420   1.639  52.648  1.00  0.00     0.176 A 
ENDROOT
BRANCH   6   7
HETATM    7  C13 UNL     1      23.805   1.116  52.852  1.00  0.00     0.235 C 
HETATM    8  O2  UNL     1      24.858   1.646  52.360  1.00  0.00    -0.272 OA
HETATM    9  N4  UNL     1      24.100  -0.042  53.626  1.00  0.00    -0.326 N 
HETATM   10  H15 UNL     1      23.317  -0.562  54.079  1.00  0.00     0.169 HD
BRANCH   9  11
HETATM   11  C14 UNL     1      25.521  -0.268  53.619  1.00  0.00     0.034 A 
HETATM   12  C15 UNL     1      26.052  -1.111  52.666  1.00  0.00     0.030 A 
HETATM   13  C16 UNL     1      27.438  -1.278  52.725  1.00  0.00     0.009 A 
HETATM   14  C17 UNL     1      28.203  -0.635  53.680  1.00  0.00    -0.062 A 
HETATM   15  C18 UNL     1      29.659  -0.908  53.619  1.00  0.00     0.048 C 
HETATM   16  C19 UNL     1      27.626   0.199  54.613  1.00  0.00     0.009 A 
HETATM   17  C20 UNL     1      26.252   0.388  54.584  1.00  0.00     0.030 A 
ENDBRANCH   9  11
ENDBRANCH   6   7
BRANCH   1  18
HETATM   18  O1  UNL     1      22.614   1.921  50.191  1.00  0.00    -0.342 OA
HETATM   19  C1  UNL     1      22.102   1.750  48.863  1.00  0.00     0.211 C 
ENDBRANCH   1  18
BRANCH   3  20
HETATM   20  N2  UNL     1      18.865  -0.501  51.755  1.00  0.00    -0.218 N 
HETATM   21  H4  UNL     1      18.852  -1.136  50.903  1.00  0.00     0.178 HD
BRANCH  20  22
HETATM   22  C4  UNL     1      17.660  -0.420  52.551  1.00  0.00     0.176 C 
BRANCH  22  23
HETATM   23  C5  UNL     1      16.987  -1.714  52.727  1.00  0.00    -0.040 A 
HETATM   24  C6  UNL     1      15.746  -2.099  52.263  1.00  0.00     0.009 A 
HETATM   25  C7  UNL     1      15.252  -3.349  52.511  1.00  0.00     0.001 A 
HETATM   26  C8  UNL     1      15.995  -4.278  53.247  1.00  0.00     0.000 A 
HETATM   27  C9  UNL     1      17.253  -3.901  53.723  1.00  0.00     0.001 A 
HETATM   28  C10 UNL     1      17.715  -2.632  53.452  1.00  0.00     0.009 A 
ENDBRANCH  22  23
ENDBRANCH  20  22
ENDBRANCH   3  20
TORSDOF 6
ENDMDL
MODEL 4
REMARK VINA RESULT:      -7.7      3.042      4.042
REMARK  6 active torsions:
REMARK  status: ('A' for Active; 'I' for Inactive)
REMARK    1  A    between atoms: O1_2  and  C2_3 
REMARK    2  A    between atoms: C3_5  and  N2_6 
REMARK    3  A    between atoms: N2_6  and  C4_7 
REMARK    4  A    between atoms: C4_7  and  C5_8 
REMARK    5  A    between atoms: C12_16  and  C13_17 
REMARK       I    between atoms: C13_17  and  N4_19 
REMARK    6  A    between atoms: N4_19  and  C14_20 
ROOT
HETATM    1  C2  UNL     1      20.989   5.323  50.391  1.00  0.00     0.173 A 
HETATM    2  N1  UNL     1      20.187   4.300  50.562  1.00  0.00    -0.042 NA
HETATM    3  C3  UNL     1      20.315   3.447  51.669  1.00  0.00     0.720 A 
HETATM    4  N3  UNL     1      21.213   3.633  52.547  1.00  0.00    -0.104 NA
HETATM    5  C11 UNL     1      22.150   4.711  52.477  1.00  0.00     0.191 A 
HETATM    6  C12 UNL     1      22.059   5.641  51.330  1.00  0.00     0.176 A 
ENDROOT
BRANCH   6   7
HETATM    7  C13 UNL     1      23.401   5.681  50.676  1.00  0.00     0.235 C 
HETATM    8  O2  UNL     1      24.452   6.179  51.207  1.00  0.00    -0.272 OA
HETATM    9  N4  UNL     1      23.655   5.162  49.374  1.00  0.00    -0.326 N 
HETATM   10  H15 UNL     1      22.872   4.729  48.840  1.00  0.00     0.169 HD
BRANCH   9  11
HETATM   11  C14 UNL     1      25.043   5.359  49.047  1.00  0.00     0.034 A 
HETATM   12  C15 UNL     1      25.431   6.569  48.510  1.00  0.00     0.030 A 
HETATM   13  C16 UNL     1      26.792   6.682  48.220  1.00  0.00     0.009 A 
HETATM   14  C17 UNL     1      27.672   5.643  48.462  1.00  0.00    -0.062 A 
HETATM   15  C18 UNL     1      29.085   5.909  48.105  1.00  0.00     0.048 C 
HETATM   16  C19 UNL     1      27.236   4.452  49.001  1.00  0.00     0.009 A 
HETATM   17  C20 UNL     1      25.890   4.304  49.301  1.00  0.00     0.030 A 
ENDBRANCH   9  11
ENDBRANCH   6   7
BRANCH   1  18
HETATM   18  O1  UNL     1      20.755   6.078  49.266  1.00  0.00    -0.342 OA
HETATM   19  C1  UNL     1      20.405   7.465  49.360  1.00  0.00     0.211 C 
ENDBRANCH   1  18
BRANCH   3  20
HETATM   20  N2  UNL     1      19.441   2.339  51.848  1.00  0.00    -0.218 N 
HETATM   21  H4  UNL     1      18.524   2.494  52.361  1.00  0.00     0.178 HD
BRANCH  20  22
HETATM   22  C4  UNL     1      19.727   1.004  51.370  1.00  0.00     0.176 C 
BRANCH  22  23
HETATM   23  C5  UNL     1      20.631   0.249  52.249  1.00  0.00    -0.040 A 
HETATM   24  C6  UNL     1      22.002   0.127  52.157  1.00  0.00     0.009 A 
HETATM   25  C7  UNL     1      22.710  -0.618  53.059  1.00  0.00     0.001 A 
HETATM   26  C8  UNL     1      22.060  -1.279  54.106  1.00  0.00     0.000 A 
HETATM   27  C9  UNL     1      20.672  -1.163  54.211  1.00  0.00     0.001 A 
HETATM   28  C10 UNL     1      19.995  -0.404  53.282  1.00  0.00     0.009 A 
ENDBRANCH  22  23
ENDBRANCH  20  22
ENDBRANCH   3  20
TORSDOF 6
ENDMDL
MODEL 5
REMARK VINA RESULT:      -7.6      2.727      7.749
REMARK  6 active torsions:
REMARK  status: ('A' for Active; 'I' for Inactive)
REMARK    1  A    between atoms: O1_2  and  C2_3 
REMARK    2  A    between atoms: C3_5  and  N2_6 
REMARK    3  A    between atoms: N2_6  and  C4_7 
REMARK    4  A    between atoms: C4_7  and  C5_8 
REMARK    5  A    between atoms: C12_16  and  C13_17 
REMARK       I    between atoms: C13_17  and  N4_19 
REMARK    6  A    between atoms: N4_19  and  C14_20 
ROOT
HETATM    1  C2  UNL     1      24.046   1.555  52.810  1.00  0.00     0.173 A 
HETATM    2  N1  UNL     1      25.128   1.871  52.140  1.00  0.00    -0.042 NA
HETATM    3  C3  UNL     1      25.275   3.130  51.537  1.00  0.00     0.720 A 
HETATM    4  N3  UNL     1      24.365   4.011  51.618  1.00  0.00    -0.104 NA
HETATM    5  C11 UNL     1      23.138   3.793  52.319  1.00  0.00     0.191 A 
HETATM    6  C12 UNL     1      22.932   2.483  52.973  1.00  0.00     0.176 A 
ENDROOT
BRANCH   6   7
HETATM    7  C13 UNL     1      21.644   1.923  52.465  1.00  0.00     0.235 C 
HETATM    8  O2  UNL     1      20.499   2.460  52.647  1.00  0.00    -0.272 OA
HETATM    9  N4  UNL     1      21.554   0.716  51.714  1.00  0.00    -0.326 N 
HETATM   10  H15 UNL     1      22.427   0.186  51.501  1.00  0.00     0.169 HD
BRANCH   9  11
HETATM   11  C14 UNL     1      20.177   0.464  51.382  1.00  0.00     0.034 A 
HETATM   12  C15 UNL     1      19.418  -0.299  52.244  1.00  0.00     0.030 A 
HETATM   13  C16 UNL     1      18.092  -0.498  51.853  1.00  0.00     0.009 A 
HETATM   14  C17 UNL     1      17.596   0.041  50.680  1.00  0.00    -0.062 A 
HETATM   15  C18 UNL     1      16.171  -0.254  50.396  1.00  0.00     0.048 C 
HETATM   16  C19 UNL     1      18.394   0.799  49.850  1.00  0.00     0.009 A 
HETATM   17  C20 UNL     1      19.717   1.016  50.207  1.00  0.00     0.030 A 
ENDBRANCH   9  11
ENDBRANCH   6   7
BRANCH   1  18
HETATM   18  O1  UNL     1      24.031   0.292  53.351  1.00  0.00    -0.342 OA
HETATM   19  C1  UNL     1      25.238  -0.465  53.512  1.00  0.00     0.211 C 
ENDBRANCH   1  18
BRANCH   3  20
HETATM   20  N2  UNL     1      26.451   3.465  50.811  1.00  0.00    -0.218 N 
HETATM   21  H4  UNL     1      27.340   3.673  51.355  1.00  0.00     0.178 HD
BRANCH  20  22
HETATM   22  C4  UNL     1      26.512   3.539  49.369  1.00  0.00     0.176 C 
BRANCH  22  23
HETATM   23  C5  UNL     1      26.926   4.857  48.868  1.00  0.00    -0.040 A 
HETATM   24  C6  UNL     1      26.147   5.982  48.685  1.00  0.00     0.009 A 
HETATM   25  C7  UNL     1      26.682   7.145  48.207  1.00  0.00     0.001 A 
HETATM   26  C8  UNL     1      28.041   7.228  47.886  1.00  0.00     0.000 A 
HETATM   27  C9  UNL     1      28.841   6.097  48.066  1.00  0.00     0.001 A 
HETATM   28  C10 UNL     1      28.264   4.944  48.551  1.00  0.00     0.009 A 
ENDBRANCH  22  23
ENDBRANCH  20  22
ENDBRANCH   3  20
TORSDOF 6
ENDMDL
MODEL 6
REMARK VINA RESULT:      -7.6      2.293      2.940
REMARK  6 active torsions:
REMARK  status: ('A' for Active; 'I' for Inactive)
REMARK    1  A    between atoms: O1_2  and  C2_3 
REMARK    2  A    between atoms: C3_5  and  N2_6 
REMARK    3  A    between atoms: N2_6  and  C4_7 
REMARK    4  A    between atoms: C4_7  and  C5_8 
REMARK    5  A    between atoms: C12_16  and  C13_17 
REMARK       I    between atoms: C13_17  and  N4_19 
REMARK    6  A    between atoms: N4_19  and  C14_20 
ROOT
HETATM    1  C2  UNL     1      21.162   3.078  49.761  1.00  0.00     0.173 A 
HETATM    2  N1  UNL     1      20.762   2.178  50.626  1.00  0.00    -0.042 NA
HETATM    3  C3  UNL     1      20.661   2.472  51.995  1.00  0.00     0.720 A 
HETATM    4  N3  UNL     1      20.955   3.621  52.447  1.00  0.00    -0.104 NA
HETATM    5  C11 UNL     1      21.403   4.690  51.610  1.00  0.00     0.191 A 
HETATM    6  C12 UNL     1      21.528   4.434  50.158  1.00  0.00     0.176 A 
ENDROOT
BRANCH   6   7
HETATM    7  C13 UNL     1      22.920   4.792  49.755  1.00  0.00     0.235 C 
HETATM    8  O2  UNL     1      23.274   5.092  48.564  1.00  0.00    -0.272 OA
HETATM    9  N4  UNL     1      24.014   4.836  50.665  1.00  0.00    -0.326 N 
HETATM   10  H15 UNL     1      23.848   4.610  51.669  1.00  0.00     0.169 HD
BRANCH   9  11
HETATM   11  C14 UNL     1      25.208   5.214  49.954  1.00  0.00     0.034 A 
HETATM   12  C15 UNL     1      25.427   6.551  49.694  1.00  0.00     0.030 A 
HETATM   13  C16 UNL     1      26.605   6.836  49.001  1.00  0.00     0.009 A 
HETATM   14  C17 UNL     1      27.477   5.835  48.613  1.00  0.00    -0.062 A 
HETATM   15  C18 UNL     1      28.686   6.289  47.887  1.00  0.00     0.048 C 
HETATM   16  C19 UNL     1      27.214   4.512  48.897  1.00  0.00     0.009 A 
HETATM   17  C20 UNL     1      26.052   4.192  49.584  1.00  0.00     0.030 A 
ENDBRANCH   9  11
ENDBRANCH   6   7
BRANCH   1  18
HETATM   18  O1  UNL     1      21.216   2.661  48.452  1.00  0.00    -0.342 OA
HETATM   19  C1  UNL     1      22.043   1.559  48.054  1.00  0.00     0.211 C 
ENDBRANCH   1  18
BRANCH   3  20
HETATM   20  N2  UNL     1      20.226   1.490  52.927  1.00  0.00    -0.218 N 
HETATM   21  H4  UNL     1      19.604   1.796  53.732  1.00  0.00     0.178 HD
BRANCH  20  22
HETATM   22  C4  UNL     1      20.582   0.091  52.846  1.00  0.00     0.176 C 
BRANCH  22  23
HETATM   23  C5  UNL     1      21.897  -0.213  53.426  1.00  0.00    -0.040 A 
HETATM   24  C6  UNL     1      23.143   0.081  52.913  1.00  0.00     0.009 A 
HETATM   25  C7  UNL     1      24.286  -0.270  53.577  1.00  0.00     0.001 A 
HETATM   26  C8  UNL     1      24.222  -0.941  54.802  1.00  0.00     0.000 A 
HETATM   27  C9  UNL     1      22.967  -1.245  55.334  1.00  0.00     0.001 A 
HETATM   28  C10 UNL     1      21.840  -0.874  54.634  1.00  0.00     0.009 A 
ENDBRANCH  22  23
ENDBRANCH  20  22
ENDBRANCH   3  20
TORSDOF 6
ENDMDL
MODEL 7
REMARK VINA RESULT:      -7.6      2.386      7.836
REMARK  6 active torsions:
REMARK  status: ('A' for Active; 'I' for Inactive)
REMARK    1  A    between atoms: O1_2  and  C2_3 
REMARK    2  A    between atoms: C3_5  and  N2_6 
REMARK    3  A    between atoms: N2_6  and  C4_7 
REMARK    4  A    between atoms: C4_7  and  C5_8 
REMARK    5  A    between atoms: C12_16  and  C13_17 
REMARK       I    between atoms: C13_17  and  N4_19 
REMARK    6  A    between atoms: N4_19  and  C14_20 
ROOT
HETATM    1  C2  UNL     1      23.407   5.262  50.544  1.00  0.00     0.173 A 
HETATM    2  N1  UNL     1      24.484   6.006  50.471  1.00  0.00    -0.042 NA
HETATM    3  C3  UNL     1      25.602   5.603  49.724  1.00  0.00     0.720 A 
HETATM    4  N3  UNL     1      25.613   4.503  49.092  1.00  0.00    -0.104 NA
HETATM    5  C11 UNL     1      24.502   3.601  49.089  1.00  0.00     0.191 A 
HETATM    6  C12 UNL     1      23.298   3.978  49.861  1.00  0.00     0.176 A 
ENDROOT
BRANCH   6   7
HETATM    7  C13 UNL     1      22.994   2.856  50.799  1.00  0.00     0.235 C 
HETATM    8  O2  UNL     1      22.710   1.664  50.434  1.00  0.00    -0.272 OA
HETATM    9  N4  UNL     1      22.990   2.997  52.216  1.00  0.00    -0.326 N 
HETATM   10  H15 UNL     1      23.208   3.927  52.633  1.00  0.00     0.169 HD
BRANCH   9  11
HETATM   11  C14 UNL     1      22.661   1.731  52.818  1.00  0.00     0.034 A 
HETATM   12  C15 UNL     1      21.334   1.431  53.043  1.00  0.00     0.030 A 
HETATM   13  C16 UNL     1      21.098   0.186  53.630  1.00  0.00     0.009 A 
HETATM   14  C17 UNL     1      22.134  -0.670  53.954  1.00  0.00    -0.062 A 
HETATM   15  C18 UNL     1      21.730  -1.956  54.569  1.00  0.00     0.048 C 
HETATM   16  C19 UNL     1      23.446  -0.325  53.708  1.00  0.00     0.009 A 
HETATM   17  C20 UNL     1      23.718   0.905  53.127  1.00  0.00     0.030 A 
ENDBRANCH   9  11
ENDBRANCH   6   7
BRANCH   1  18
HETATM   18  O1  UNL     1      22.384   5.774  51.308  1.00  0.00    -0.342 OA
HETATM   19  C1  UNL     1      21.564   6.848  50.831  1.00  0.00     0.211 C 
ENDBRANCH   1  18
BRANCH   3  20
HETATM   20  N2  UNL     1      26.768   6.415  49.650  1.00  0.00    -0.218 N 
HETATM   21  H4  UNL     1      27.353   6.543  50.527  1.00  0.00     0.178 HD
BRANCH  20  22
HETATM   22  C4  UNL     1      27.208   7.081  48.445  1.00  0.00     0.176 C 
BRANCH  22  23
HETATM   23  C5  UNL     1      28.573   6.718  48.041  1.00  0.00    -0.040 A 
HETATM   24  C6  UNL     1      29.237   5.527  48.254  1.00  0.00     0.009 A 
HETATM   25  C7  UNL     1      30.517   5.339  47.814  1.00  0.00     0.001 A 
HETATM   26  C8  UNL     1      31.194   6.354  47.130  1.00  0.00     0.000 A 
HETATM   27  C9  UNL     1      30.534   7.564  46.906  1.00  0.00     0.001 A 
HETATM   28  C10 UNL     1      29.244   7.715  47.367  1.00  0.00     0.009 A 
ENDBRANCH  22  23
ENDBRANCH  20  22
ENDBRANCH   3  20
TORSDOF 6
ENDMDL
MODEL 8
REMARK VINA RESULT:      -7.5      3.420      4.549
REMARK  6 active torsions:
REMARK  status: ('A' for Active; 'I' for Inactive)
REMARK    1  A    between atoms: O1_2  and  C2_3 
REMARK    2  A    between atoms: C3_5  and  N2_6 
REMARK    3  A    between atoms: N2_6  and  C4_7 
REMARK    4  A    between atoms: C4_7  and  C5_8 
REMARK    5  A    between atoms: C12_16  and  C13_17 
REMARK       I    between atoms: C13_17  and  N4_19 
REMARK    6  A    between atoms: N4_19  and  C14_20 
ROOT
HETATM    1  C2  UNL     1      23.026   1.438  52.475  1.00  0.00     0.173 A 
HETATM    2  N1  UNL     1      24.234   1.327  52.971  1.00  0.00    -0.042 NA
HETATM    3  C3  UNL     1      24.974   2.457  53.353  1.00  0.00     0.720 A 
HETATM    4  N3  UNL     1      24.502   3.628  53.233  1.00  0.00    -0.104 NA
HETATM    5  C11 UNL     1      23.197   3.885  52.707  1.00  0.00     0.191 A 
HETATM    6  C12 UNL     1      22.374   2.730  52.288  1.00  0.00     0.176 A 
ENDROOT
BRANCH   6   7
HETATM    7  C13 UNL     1      21.959   2.961  50.872  1.00  0.00     0.235 C 
HETATM    8  O2  UNL     1      21.614   4.096  50.395  1.00  0.00    -0.272 OA
HETATM    9  N4  UNL     1      21.903   1.929  49.892  1.00  0.00    -0.326 N 
HETATM   10  H15 UNL     1      22.163   0.957  50.164  1.00  0.00     0.169 HD
BRANCH   9  11
HETATM   11  C14 UNL     1      21.468   2.488  48.639  1.00  0.00     0.034 A 
HETATM   12  C15 UNL     1      22.421   2.899  47.732  1.00  0.00     0.030 A 
HETATM   13  C16 UNL     1      21.920   3.430  46.541  1.00  0.00     0.009 A 
HETATM   14  C17 UNL     1      20.561   3.527  46.309  1.00  0.00    -0.062 A 
HETATM   15  C18 UNL     1      20.178   4.110  45.001  1.00  0.00     0.048 C 
HETATM   16  C19 UNL     1      19.645   3.102  47.247  1.00  0.00     0.009 A 
HETATM   17  C20 UNL     1      20.107   2.570  48.442  1.00  0.00     0.030 A 
ENDBRANCH   9  11
ENDBRANCH   6   7
BRANCH   1  18
HETATM   18  O1  UNL     1      22.411   0.254  52.142  1.00  0.00    -0.342 OA
HETATM   19  C1  UNL     1      22.305  -0.822  53.084  1.00  0.00     0.211 C 
ENDBRANCH   1  18
BRANCH   3  20
HETATM   20  N2  UNL     1      26.285   2.329  53.890  1.00  0.00    -0.218 N 
HETATM   21  H4  UNL     1      26.410   2.395  54.943  1.00  0.00     0.178 HD
BRANCH  20  22
HETATM   22  C4  UNL     1      27.467   2.113  53.085  1.00  0.00     0.176 C 
BRANCH  22  23
HETATM   23  C5  UNL     1      27.961   0.731  53.130  1.00  0.00    -0.040 A 
HETATM   24  C6  UNL     1      27.294  -0.425  52.782  1.00  0.00     0.009 A 
HETATM   25  C7  UNL     1      27.894  -1.649  52.880  1.00  0.00     0.001 A 
HETATM   26  C8  UNL     1      29.211  -1.764  53.338  1.00  0.00     0.000 A 
HETATM   27  C9  UNL     1      29.899  -0.602  53.693  1.00  0.00     0.001 A 
HETATM   28  C10 UNL     1      29.258   0.612  53.581  1.00  0.00     0.009 A 
ENDBRANCH  22  23
ENDBRANCH  20  22
ENDBRANCH   3  20
TORSDOF 6
ENDMDL
MODEL 9
REMARK VINA RESULT:      -7.5      2.307      7.612
REMARK  6 active torsions:
REMARK  status: ('A' for Active; 'I' for Inactive)
REMARK    1  A    between atoms: O1_2  and  C2_3 
REMARK    2  A    between atoms: C3_5  and  N2_6 
REMARK    3  A    between atoms: N2_6  and  C4_7 
REMARK    4  A    between atoms: C4_7  and  C5_8 
REMARK    5  A    between atoms: C12_16  and  C13_17 
REMARK       I    between atoms: C13_17  and  N4_19 
REMARK    6  A    between atoms: N4_19  and  C14_20 
ROOT
HETATM    1  C2  UNL     1      23.816   4.000  51.732  1.00  0.00     0.173 A 
HETATM    2  N1  UNL     1      23.659   5.295  51.867  1.00  0.00    -0.042 NA
HETATM    3  C3  UNL     1      24.368   6.205  51.067  1.00  0.00     0.720 A 
HETATM    4  N3  UNL     1      25.188   5.809  50.182  1.00  0.00    -0.104 NA
HETATM    5  C11 UNL     1      25.449   4.425  49.935  1.00  0.00     0.191 A 
HETATM    6  C12 UNL     1      24.729   3.423  50.751  1.00  0.00     0.176 A 
ENDROOT
BRANCH   6   7
HETATM    7  C13 UNL     1      25.752   2.532  51.377  1.00  0.00     0.235 C 
HETATM    8  O2  UNL     1      26.828   2.150  50.803  1.00  0.00    -0.272 OA
HETATM    9  N4  UNL     1      25.634   2.008  52.696  1.00  0.00    -0.326 N 
HETATM   10  H15 UNL     1      24.795   2.251  53.265  1.00  0.00     0.169 HD
BRANCH   9  11
HETATM   11  C14 UNL     1      26.784   1.193  52.987  1.00  0.00     0.034 A 
HETATM   12  C15 UNL     1      27.893   1.790  53.548  1.00  0.00     0.030 A 
HETATM   13  C16 UNL     1      28.966   0.934  53.800  1.00  0.00     0.009 A 
HETATM   14  C17 UNL     1      28.901  -0.414  53.501  1.00  0.00    -0.062 A 
HETATM   15  C18 UNL     1      30.117  -1.198  53.825  1.00  0.00     0.048 C 
HETATM   16  C19 UNL     1      27.769  -0.966  52.941  1.00  0.00     0.009 A 
HETATM   17  C20 UNL     1      26.684  -0.145  52.676  1.00  0.00     0.030 A 
ENDBRANCH   9  11
ENDBRANCH   6   7
BRANCH   1  18
HETATM   18  O1  UNL     1      23.062   3.221  52.577  1.00  0.00    -0.342 OA
HETATM   19  C1  UNL     1      21.981   2.419  52.084  1.00  0.00     0.211 C 
ENDBRANCH   1  18
BRANCH   3  20
HETATM   20  N2  UNL     1      24.193   7.608  51.219  1.00  0.00    -0.218 N 
HETATM   21  H4  UNL     1      24.198   8.016  52.199  1.00  0.00     0.178 HD
BRANCH  20  22
HETATM   22  C4  UNL     1      24.007   8.520  50.112  1.00  0.00     0.176 C 
BRANCH  22  23
HETATM   23  C5  UNL     1      25.244   8.803  49.372  1.00  0.00    -0.040 A 
HETATM   24  C6  UNL     1      25.466   8.701  48.014  1.00  0.00     0.009 A 
HETATM   25  C7  UNL     1      26.684   9.003  47.470  1.00  0.00     0.001 A 
HETATM   26  C8  UNL     1      27.744   9.425  48.279  1.00  0.00     0.000 A 
HETATM   27  C9  UNL     1      27.532   9.533  49.656  1.00  0.00     0.001 A 
HETATM   28  C10 UNL     1      26.291   9.220  50.165  1.00  0.00     0.009 A 
ENDBRANCH  22  23
ENDBRANCH  20  22
ENDBRANCH   3  20
TORSDOF 6
ENDMDL
