MODEL 1
REMARK VINA RESULT:      -7.3      0.000      0.000
REMARK  1 active torsions:
REMARK  status: ('A' for Active; 'I' for Inactive)
REMARK    1  A    between atoms: C5_5  and  O1_6 
ROOT
HETATM    1  C1  UNL     1      20.576   1.673  53.187  1.00  0.00     0.044 C 
HETATM    2  C2  UNL     1      21.446   1.203  52.100  1.00  0.00    -0.078 C 
HETATM    3  C3  UNL     1      21.681   1.202  50.780  1.00  0.00     0.005 C 
HETATM    4  C4  UNL     1      21.120   1.804  49.545  1.00  0.00     0.034 C 
HETATM    5  C5  UNL     1      21.044   1.953  48.187  1.00  0.00     0.061 C 
HETATM    6  C6  UNL     1      19.995   3.045  48.328  1.00  0.00     0.194 C 
HETATM    7  N1  UNL     1      20.537   3.902  49.432  1.00  0.00    -0.323 N 
HETATM    8  C7  UNL     1      20.565   4.840  50.488  1.00  0.00     0.093 C 
HETATM    9  C8  UNL     1      21.217   4.986  51.568  1.00  0.00     0.014 C 
HETATM   10  C9  UNL     1      22.191   4.640  52.571  1.00  0.00    -0.018 C 
HETATM   11  C10 UNL     1      23.063   3.506  52.604  1.00  0.00     0.041 C 
HETATM   12  C11 UNL     1      23.711   2.208  52.140  1.00  0.00     0.095 C 
HETATM   13  N2  UNL     1      24.462   2.375  51.033  1.00  0.00    -0.385 N 
HETATM   14  C12 UNL     1      24.264   2.964  49.833  1.00  0.00     0.332 C 
HETATM   15  C13 UNL     1      25.662   3.405  49.352  1.00  0.00     0.040 C 
HETATM   16  C14 UNL     1      26.133   4.626  49.214  1.00  0.00    -0.029 C 
HETATM   17  C15 UNL     1      25.287   5.636  49.328  1.00  0.00     0.014 C 
HETATM   18  C16 UNL     1      23.848   5.552  49.643  1.00  0.00     0.292 C 
HETATM   19  N3  UNL     1      23.406   4.149  49.618  1.00  0.00     0.071 N 
HETATM   20  C17 UNL     1      22.001   3.892  49.303  1.00  0.00     0.292 A 
HETATM   21  S1  UNL     1      22.701   3.565  47.813  1.00  0.00     0.150 SA
HETATM   22  C18 UNL     1      22.868   1.046  52.547  1.00  0.00     0.033 C 
HETATM   23  C19 UNL     1      23.305  -0.280  52.910  1.00  0.00     0.017 C 
HETATM   24  H14 UNL     1      25.472   2.038  51.122  1.00  0.00     0.156 HD
ENDROOT
BRANCH   5  25
HETATM   25  O1  UNL     1      22.008   0.950  48.069  1.00  0.00    -0.363 OA
HETATM   26  H6  UNL     1      22.880   1.017  48.581  1.00  0.00     0.217 HD
ENDBRANCH   5  25
TORSDOF 1
ENDMDL
MODEL 2
REMARK VINA RESULT:      -7.1      8.620     11.606
REMARK  1 active torsions:
REMARK  status: ('A' for Active; 'I' for Inactive)
REMARK    1  A    between atoms: C5_5  and  O1_6 
ROOT
HETATM    1  C1  UNL     1      30.560   9.354  48.300  1.00  0.00     0.044 C 
HETATM    2  C2  UNL     1      30.387   8.320  47.270  1.00  0.00    -0.078 C 
HETATM    3  C3  UNL     1      30.883   7.757  46.159  1.00  0.00     0.005 C 
HETATM    4  C4  UNL     1      32.071   7.883  45.277  1.00  0.00     0.034 C 
HETATM    5  C5  UNL     1      32.792   7.585  44.154  1.00  0.00     0.061 C 
HETATM    6  C6  UNL     1      33.951   8.451  44.623  1.00  0.00     0.194 C 
HETATM    7  N1  UNL     1      34.093   8.083  46.069  1.00  0.00    -0.323 N 
HETATM    8  C7  UNL     1      34.456   8.180  47.430  1.00  0.00     0.093 C 
HETATM    9  C8  UNL     1      33.962   7.811  48.541  1.00  0.00     0.014 C 
HETATM   10  C9  UNL     1      32.989   7.192  49.404  1.00  0.00    -0.018 C 
HETATM   11  C10 UNL     1      31.766   6.546  49.039  1.00  0.00     0.041 C 
HETATM   12  C11 UNL     1      30.666   6.011  48.130  1.00  0.00     0.095 C 
HETATM   13  N2  UNL     1      31.087   4.986  47.362  1.00  0.00    -0.385 N 
HETATM   14  C12 UNL     1      32.156   4.776  46.563  1.00  0.00     0.332 C 
HETATM   15  C13 UNL     1      32.385   3.250  46.569  1.00  0.00     0.040 C 
HETATM   16  C14 UNL     1      33.385   2.575  47.094  1.00  0.00    -0.029 C 
HETATM   17  C15 UNL     1      34.432   3.254  47.532  1.00  0.00     0.014 C 
HETATM   18  C16 UNL     1      34.594   4.720  47.542  1.00  0.00     0.292 C 
HETATM   19  N3  UNL     1      33.497   5.355  46.795  1.00  0.00     0.071 N 
HETATM   20  C17 UNL     1      33.765   6.654  46.182  1.00  0.00     0.292 A 
HETATM   21  S1  UNL     1      33.929   5.657  44.842  1.00  0.00     0.150 SA
HETATM   22  C18 UNL     1      29.700   7.102  47.809  1.00  0.00     0.033 C 
HETATM   23  C19 UNL     1      28.280   6.984  47.573  1.00  0.00     0.017 C 
HETATM   24  H14 UNL     1      30.498   4.098  47.440  1.00  0.00     0.156 HD
ENDROOT
BRANCH   5  25
HETATM   25  O1  UNL     1      31.723   6.792  43.733  1.00  0.00    -0.363 OA
HETATM   26  H6  UNL     1      30.876   7.221  43.381  1.00  0.00     0.217 HD
ENDBRANCH   5  25
TORSDOF 1
ENDMDL
MODEL 3
REMARK VINA RESULT:      -7.1      1.175      1.388
REMARK  1 active torsions:
REMARK  status: ('A' for Active; 'I' for Inactive)
REMARK    1  A    between atoms: C5_5  and  O1_6 
ROOT
HETATM    1  C1  UNL     1      22.329   1.343  53.152  1.00  0.00     0.044 C 
HETATM    2  C2  UNL     1      23.094   1.344  51.897  1.00  0.00    -0.078 C 
HETATM    3  C3  UNL     1      23.095   1.643  50.590  1.00  0.00     0.005 C 
HETATM    4  C4  UNL     1      22.195   2.261  49.585  1.00  0.00     0.034 C 
HETATM    5  C5  UNL     1      21.853   2.616  48.309  1.00  0.00     0.061 C 
HETATM    6  C6  UNL     1      20.594   3.313  48.799  1.00  0.00     0.194 C 
HETATM    7  N1  UNL     1      21.070   4.084  49.993  1.00  0.00    -0.323 N 
HETATM    8  C7  UNL     1      21.029   4.790  51.216  1.00  0.00     0.093 C 
HETATM    9  C8  UNL     1      21.793   4.929  52.222  1.00  0.00     0.014 C 
HETATM   10  C9  UNL     1      22.980   4.711  53.009  1.00  0.00    -0.018 C 
HETATM   11  C10 UNL     1      24.111   3.893  52.698  1.00  0.00     0.041 C 
HETATM   12  C11 UNL     1      24.989   2.942  51.895  1.00  0.00     0.095 C 
HETATM   13  N2  UNL     1      25.471   3.511  50.772  1.00  0.00    -0.385 N 
HETATM   14  C12 UNL     1      24.925   4.217  49.757  1.00  0.00     0.332 C 
HETATM   15  C13 UNL     1      26.056   5.123  49.227  1.00  0.00     0.040 C 
HETATM   16  C14 UNL     1      26.159   6.432  49.303  1.00  0.00    -0.029 C 
HETATM   17  C15 UNL     1      25.109   7.116  49.726  1.00  0.00     0.014 C 
HETATM   18  C16 UNL     1      23.818   6.564  50.177  1.00  0.00     0.292 C 
HETATM   19  N3  UNL     1      23.762   5.120  49.901  1.00  0.00     0.071 N 
HETATM   20  C17 UNL     1      22.442   4.524  49.700  1.00  0.00     0.292 A 
HETATM   21  S1  UNL     1      22.940   4.680  48.105  1.00  0.00     0.150 SA
HETATM   22  C18 UNL     1      24.562   1.533  52.136  1.00  0.00     0.033 C 
HETATM   23  C19 UNL     1      25.388   0.349  52.153  1.00  0.00     0.017 C 
HETATM   24  H14 UNL     1      26.534   3.473  50.671  1.00  0.00     0.156 HD
ENDROOT
BRANCH   5  25
HETATM   25  O1  UNL     1      23.012   1.974  47.869  1.00  0.00    -0.363 OA
HETATM   26  H6  UNL     1      22.949   1.143  47.293  1.00  0.00     0.217 HD
ENDBRANCH   5  25
TORSDOF 1
ENDMDL
MODEL 4
REMARK VINA RESULT:      -6.9      8.004     10.660
REMARK  1 active torsions:
REMARK  status: ('A' for Active; 'I' for Inactive)
REMARK    1  A    between atoms: C5_5  and  O1_6 
ROOT
HETATM    1  C1  UNL     1      32.208   7.985  46.320  1.00  0.00     0.044 C 
HETATM    2  C2  UNL     1      31.822   8.525  47.631  1.00  0.00    -0.078 C 
HETATM    3  C3  UNL     1      31.360   9.585  48.311  1.00  0.00     0.005 C 
HETATM    4  C4  UNL     1      30.888  10.966  48.040  1.00  0.00     0.034 C 
HETATM    5  C5  UNL     1      30.473  12.210  48.428  1.00  0.00     0.061 C 
HETATM    6  C6  UNL     1      30.232  12.621  46.984  1.00  0.00     0.194 C 
HETATM    7  N1  UNL     1      29.528  11.433  46.401  1.00  0.00    -0.323 N 
HETATM    8  C7  UNL     1      29.035  10.528  45.435  1.00  0.00     0.093 C 
HETATM    9  C8  UNL     1      28.825   9.276  45.372  1.00  0.00     0.014 C 
HETATM   10  C9  UNL     1      28.806   7.922  45.862  1.00  0.00    -0.018 C 
HETATM   11  C10 UNL     1      29.223   7.438  47.141  1.00  0.00     0.041 C 
HETATM   12  C11 UNL     1      29.771   7.489  48.562  1.00  0.00     0.095 C 
HETATM   13  N2  UNL     1      28.942   8.130  49.410  1.00  0.00    -0.385 N 
HETATM   14  C12 UNL     1      28.286   9.311  49.384  1.00  0.00     0.332 C 
HETATM   15  C13 UNL     1      27.037   9.112  50.265  1.00  0.00     0.040 C 
HETATM   16  C14 UNL     1      25.773   9.072  49.898  1.00  0.00    -0.029 C 
HETATM   17  C15 UNL     1      25.476   9.409  48.654  1.00  0.00     0.014 C 
HETATM   18  C16 UNL     1      26.425   9.791  47.591  1.00  0.00     0.292 C 
HETATM   19  N3  UNL     1      27.775   9.954  48.153  1.00  0.00     0.071 N 
HETATM   20  C17 UNL     1      28.685  10.869  47.466  1.00  0.00     0.292 A 
HETATM   21  S1  UNL     1      28.180  11.850  48.731  1.00  0.00     0.150 SA
HETATM   22  C18 UNL     1      31.262   7.464  48.531  1.00  0.00     0.033 C 
HETATM   23  C19 UNL     1      32.157   6.879  49.501  1.00  0.00     0.017 C 
HETATM   24  H14 UNL     1      28.666   7.569  50.277  1.00  0.00     0.156 HD
ENDROOT
BRANCH   5  25
HETATM   25  O1  UNL     1      30.698  11.823  49.750  1.00  0.00    -0.363 OA
HETATM   26  H6  UNL     1      31.053  10.897  49.958  1.00  0.00     0.217 HD
ENDBRANCH   5  25
TORSDOF 1
ENDMDL
MODEL 5
REMARK VINA RESULT:      -6.8      2.128      4.611
REMARK  1 active torsions:
REMARK  status: ('A' for Active; 'I' for Inactive)
REMARK    1  A    between atoms: C5_5  and  O1_6 
ROOT
HETATM    1  C1  UNL     1      23.401   0.152  52.049  1.00  0.00     0.044 C 
HETATM    2  C2  UNL     1      22.654   1.266  52.646  1.00  0.00    -0.078 C 
HETATM    3  C3  UNL     1      22.468   2.594  52.682  1.00  0.00     0.005 C 
HETATM    4  C4  UNL     1      22.973   3.812  52.000  1.00  0.00     0.034 C 
HETATM    5  C5  UNL     1      23.073   5.167  51.840  1.00  0.00     0.061 C 
HETATM    6  C6  UNL     1      23.936   4.994  50.600  1.00  0.00     0.194 C 
HETATM    7  N1  UNL     1      23.230   3.914  49.837  1.00  0.00    -0.323 N 
HETATM    8  C7  UNL     1      23.021   2.863  48.915  1.00  0.00     0.093 C 
HETATM    9  C8  UNL     1      22.316   1.808  48.872  1.00  0.00     0.014 C 
HETATM   10  C9  UNL     1      21.372   0.838  49.365  1.00  0.00    -0.018 C 
HETATM   11  C10 UNL     1      20.685   0.830  50.620  1.00  0.00     0.041 C 
HETATM   12  C11 UNL     1      20.260   1.311  52.002  1.00  0.00     0.095 C 
HETATM   13  N2  UNL     1      19.533   2.445  51.951  1.00  0.00    -0.385 N 
HETATM   14  C12 UNL     1      19.680   3.640  51.338  1.00  0.00     0.332 C 
HETATM   15  C13 UNL     1      18.249   4.171  51.118  1.00  0.00     0.040 C 
HETATM   16  C14 UNL     1      17.600   4.331  49.983  1.00  0.00    -0.029 C 
HETATM   17  C15 UNL     1      18.276   4.193  48.855  1.00  0.00     0.014 C 
HETATM   18  C16 UNL     1      19.699   3.827  48.716  1.00  0.00     0.292 C 
HETATM   19  N3  UNL     1      20.353   3.830  50.034  1.00  0.00     0.071 N 
HETATM   20  C17 UNL     1      21.790   4.094  50.072  1.00  0.00     0.292 A 
HETATM   21  S1  UNL     1      21.202   5.606  50.502  1.00  0.00     0.150 SA
HETATM   22  C18 UNL     1      21.257   0.869  53.020  1.00  0.00     0.033 C 
HETATM   23  C19 UNL     1      21.016   0.515  54.398  1.00  0.00     0.017 C 
HETATM   24  H14 UNL     1      18.584   2.390  52.440  1.00  0.00     0.156 HD
ENDROOT
BRANCH   5  25
HETATM   25  O1  UNL     1      22.280   5.313  52.979  1.00  0.00    -0.363 OA
HETATM   26  H6  UNL     1      21.514   4.674  53.155  1.00  0.00     0.217 HD
ENDBRANCH   5  25
TORSDOF 1
ENDMDL
MODEL 6
REMARK VINA RESULT:      -6.8      2.277      4.417
REMARK  1 active torsions:
REMARK  status: ('A' for Active; 'I' for Inactive)
REMARK    1  A    between atoms: C5_5  and  O1_6 
ROOT
HETATM    1  C1  UNL     1      20.985   5.676  48.122  1.00  0.00     0.044 C 
HETATM    2  C2  UNL     1      20.910   5.540  49.584  1.00  0.00    -0.078 C 
HETATM    3  C3  UNL     1      20.588   4.748  50.616  1.00  0.00     0.005 C 
HETATM    4  C4  UNL     1      20.103   3.365  50.855  1.00  0.00     0.034 C 
HETATM    5  C5  UNL     1      19.639   2.357  51.655  1.00  0.00     0.061 C 
HETATM    6  C6  UNL     1      19.617   1.387  50.483  1.00  0.00     0.194 C 
HETATM    7  N1  UNL     1      20.926   1.643  49.800  1.00  0.00    -0.323 N 
HETATM    8  C7  UNL     1      21.906   1.672  48.783  1.00  0.00     0.093 C 
HETATM    9  C8  UNL     1      22.852   2.447  48.441  1.00  0.00     0.014 C 
HETATM   10  C9  UNL     1      23.697   3.610  48.537  1.00  0.00    -0.018 C 
HETATM   11  C10 UNL     1      23.632   4.673  49.491  1.00  0.00     0.041 C 
HETATM   12  C11 UNL     1      23.128   5.471  50.688  1.00  0.00     0.095 C 
HETATM   13  N2  UNL     1      23.348   4.837  51.857  1.00  0.00    -0.385 N 
HETATM   14  C12 UNL     1      23.125   3.586  52.315  1.00  0.00     0.332 C 
HETATM   15  C13 UNL     1      24.197   3.342  53.397  1.00  0.00     0.040 C 
HETATM   16  C14 UNL     1      25.220   2.514  53.363  1.00  0.00    -0.029 C 
HETATM   17  C15 UNL     1      25.281   1.641  52.372  1.00  0.00     0.014 C 
HETATM   18  C16 UNL     1      24.335   1.512  51.247  1.00  0.00     0.292 C 
HETATM   19  N3  UNL     1      23.162   2.371  51.473  1.00  0.00     0.071 N 
HETATM   20  C17 UNL     1      21.902   1.966  50.851  1.00  0.00     0.292 A 
HETATM   21  S1  UNL     1      21.645   1.422  52.418  1.00  0.00     0.150 SA
HETATM   22  C18 UNL     1      21.979   6.329  50.277  1.00  0.00     0.033 C 
HETATM   23  C19 UNL     1      21.615   7.626  50.794  1.00  0.00     0.017 C 
HETATM   24  H14 UNL     1      23.887   5.410  52.582  1.00  0.00     0.156 HD
ENDROOT
BRANCH   5  25
HETATM   25  O1  UNL     1      19.663   3.256  52.723  1.00  0.00    -0.363 OA
HETATM   26  H6  UNL     1      20.507   3.375  53.271  1.00  0.00     0.217 HD
ENDBRANCH   5  25
TORSDOF 1
ENDMDL
MODEL 7
REMARK VINA RESULT:      -6.7      1.887      3.248
REMARK  1 active torsions:
REMARK  status: ('A' for Active; 'I' for Inactive)
REMARK    1  A    between atoms: C5_5  and  O1_6 
ROOT
HETATM    1  C1  UNL     1      24.138   1.929  51.544  1.00  0.00     0.044 C 
HETATM    2  C2  UNL     1      24.181   2.558  50.217  1.00  0.00    -0.078 C 
HETATM    3  C3  UNL     1      23.488   2.907  49.123  1.00  0.00     0.005 C 
HETATM    4  C4  UNL     1      22.089   2.868  48.628  1.00  0.00     0.034 C 
HETATM    5  C5  UNL     1      21.133   3.028  47.663  1.00  0.00     0.061 C 
HETATM    6  C6  UNL     1      20.029   2.664  48.644  1.00  0.00     0.194 C 
HETATM    7  N1  UNL     1      20.394   3.437  49.875  1.00  0.00    -0.323 N 
HETATM    8  C7  UNL     1      20.442   3.816  51.235  1.00  0.00     0.093 C 
HETATM    9  C8  UNL     1      21.304   4.328  52.016  1.00  0.00     0.014 C 
HETATM   10  C9  UNL     1      22.586   4.876  52.378  1.00  0.00    -0.018 C 
HETATM   11  C10 UNL     1      23.740   5.048  51.552  1.00  0.00     0.041 C 
HETATM   12  C11 UNL     1      24.597   5.001  50.293  1.00  0.00     0.095 C 
HETATM   13  N2  UNL     1      24.161   5.851  49.342  1.00  0.00    -0.385 N 
HETATM   14  C12 UNL     1      22.959   6.113  48.781  1.00  0.00     0.332 C 
HETATM   15  C13 UNL     1      23.025   7.586  48.328  1.00  0.00     0.040 C 
HETATM   16  C14 UNL     1      22.367   8.620  48.808  1.00  0.00    -0.029 C 
HETATM   17  C15 UNL     1      21.393   8.391  49.673  1.00  0.00     0.014 C 
HETATM   18  C16 UNL     1      20.977   7.082  50.210  1.00  0.00     0.292 C 
HETATM   19  N3  UNL     1      21.666   5.999  49.491  1.00  0.00     0.071 N 
HETATM   20  C17 UNL     1      20.996   4.701  49.426  1.00  0.00     0.292 A 
HETATM   21  S1  UNL     1      20.624   5.301  47.903  1.00  0.00     0.150 SA
HETATM   22  C18 UNL     1      25.208   3.648  50.146  1.00  0.00     0.033 C 
HETATM   23  C19 UNL     1      26.489   3.314  49.571  1.00  0.00     0.017 C 
HETATM   24  H14 UNL     1      24.898   6.537  48.983  1.00  0.00     0.156 HD
ENDROOT
BRANCH   5  25
HETATM   25  O1  UNL     1      22.154   3.362  46.771  1.00  0.00    -0.363 OA
HETATM   26  H6  UNL     1      23.099   3.506  47.107  1.00  0.00     0.217 HD
ENDBRANCH   5  25
TORSDOF 1
ENDMDL
MODEL 8
REMARK VINA RESULT:      -6.6      2.415      4.772
REMARK  1 active torsions:
REMARK  status: ('A' for Active; 'I' for Inactive)
REMARK    1  A    between atoms: C5_5  and  O1_6 
ROOT
HETATM    1  C1  UNL     1      25.414   3.284  49.882  1.00  0.00     0.044 C 
HETATM    2  C2  UNL     1      24.464   3.884  50.829  1.00  0.00    -0.078 C 
HETATM    3  C3  UNL     1      23.555   4.848  51.039  1.00  0.00     0.005 C 
HETATM    4  C4  UNL     1      22.909   5.956  50.292  1.00  0.00     0.034 C 
HETATM    5  C5  UNL     1      22.106   7.060  50.201  1.00  0.00     0.061 C 
HETATM    6  C6  UNL     1      22.318   7.137  48.698  1.00  0.00     0.194 C 
HETATM    7  N1  UNL     1      22.169   5.712  48.255  1.00  0.00    -0.323 N 
HETATM    8  C7  UNL     1      22.285   4.556  47.452  1.00  0.00     0.093 C 
HETATM    9  C8  UNL     1      22.408   3.308  47.653  1.00  0.00     0.014 C 
HETATM   10  C9  UNL     1      22.525   2.110  48.445  1.00  0.00    -0.018 C 
HETATM   11  C10 UNL     1      22.548   1.991  49.870  1.00  0.00     0.041 C 
HETATM   12  C11 UNL     1      22.514   2.436  51.326  1.00  0.00     0.095 C 
HETATM   13  N2  UNL     1      21.310   2.923  51.687  1.00  0.00    -0.385 N 
HETATM   14  C12 UNL     1      20.454   3.826  51.160  1.00  0.00     0.332 C 
HETATM   15  C13 UNL     1      19.052   3.400  51.641  1.00  0.00     0.040 C 
HETATM   16  C14 UNL     1      18.055   2.918  50.930  1.00  0.00    -0.029 C 
HETATM   17  C15 UNL     1      18.161   2.942  49.612  1.00  0.00     0.014 C 
HETATM   18  C16 UNL     1      19.316   3.418  48.827  1.00  0.00     0.292 C 
HETATM   19  N3  UNL     1      20.292   4.073  49.710  1.00  0.00     0.071 N 
HETATM   20  C17 UNL     1      21.151   5.099  49.121  1.00  0.00     0.292 A 
HETATM   21  S1  UNL     1      20.009   6.070  49.875  1.00  0.00     0.150 SA
HETATM   22  C18 UNL     1      23.877   2.864  51.757  1.00  0.00     0.033 C 
HETATM   23  C19 UNL     1      24.467   2.745  53.069  1.00  0.00     0.017 C 
HETATM   24  H14 UNL     1      20.875   2.452  52.543  1.00  0.00     0.156 HD
ENDROOT
BRANCH   5  25
HETATM   25  O1  UNL     1      21.917   6.979  51.582  1.00  0.00    -0.363 OA
HETATM   26  H6  UNL     1      21.153   6.434  51.963  1.00  0.00     0.217 HD
ENDBRANCH   5  25
TORSDOF 1
ENDMDL
MODEL 9
REMARK VINA RESULT:      -6.5      1.680      2.171
REMARK  1 active torsions:
REMARK  status: ('A' for Active; 'I' for Inactive)
REMARK    1  A    between atoms: C5_5  and  O1_6 
ROOT
HETATM    1  C1  UNL     1      19.539   0.234  51.365  1.00  0.00     0.044 C 
HETATM    2  C2  UNL     1      20.870   0.617  50.873  1.00  0.00    -0.078 C 
HETATM    3  C3  UNL     1      21.573   1.194  49.887  1.00  0.00     0.005 C 
HETATM    4  C4  UNL     1      21.327   1.889  48.599  1.00  0.00     0.034 C 
HETATM    5  C5  UNL     1      21.735   2.466  47.428  1.00  0.00     0.061 C 
HETATM    6  C6  UNL     1      20.308   2.857  47.080  1.00  0.00     0.194 C 
HETATM    7  N1  UNL     1      19.776   3.404  48.370  1.00  0.00    -0.323 N 
HETATM    8  C7  UNL     1      18.847   3.810  49.354  1.00  0.00     0.093 C 
HETATM    9  C8  UNL     1      18.803   3.828  50.623  1.00  0.00     0.014 C 
HETATM   10  C9  UNL     1      19.298   3.608  51.957  1.00  0.00    -0.018 C 
HETATM   11  C10 UNL     1      20.550   3.042  52.354  1.00  0.00     0.041 C 
HETATM   12  C11 UNL     1      21.934   2.421  52.200  1.00  0.00     0.095 C 
HETATM   13  N2  UNL     1      22.830   3.285  51.681  1.00  0.00    -0.385 N 
HETATM   14  C12 UNL     1      22.840   4.116  50.615  1.00  0.00     0.332 C 
HETATM   15  C13 UNL     1      23.800   5.262  50.993  1.00  0.00     0.040 C 
HETATM   16  C14 UNL     1      23.514   6.524  51.231  1.00  0.00    -0.029 C 
HETATM   17  C15 UNL     1      22.290   6.947  50.961  1.00  0.00     0.014 C 
HETATM   18  C16 UNL     1      21.168   6.136  50.452  1.00  0.00     0.292 C 
HETATM   19  N3  UNL     1      21.642   4.795  50.077  1.00  0.00     0.071 N 
HETATM   20  C17 UNL     1      20.895   4.082  49.042  1.00  0.00     0.292 A 
HETATM   21  S1  UNL     1      22.185   4.653  48.133  1.00  0.00     0.150 SA
HETATM   22  C18 UNL     1      21.808   0.949  51.994  1.00  0.00     0.033 C 
HETATM   23  C19 UNL     1      22.721  -0.085  52.422  1.00  0.00     0.017 C 
HETATM   24  H14 UNL     1      23.714   3.416  52.266  1.00  0.00     0.156 HD
ENDROOT
BRANCH   5  25
HETATM   25  O1  UNL     1      23.042   2.102  47.758  1.00  0.00    -0.363 OA
HETATM   26  H6  UNL     1      23.826   2.648  47.420  1.00  0.00     0.217 HD
ENDBRANCH   5  25
TORSDOF 1
ENDMDL
