MODEL 1
REMARK VINA RESULT:      -8.3      0.000      0.000
REMARK  2 active torsions:
REMARK  status: ('A' for Active; 'I' for Inactive)
REMARK    1  A    between atoms: N1_7  and  N2_8 
REMARK    2  A    between atoms: N2_8  and  C6_9 
ROOT
HETATM    1  C6  UNL     1      24.071  -0.392  53.809  1.00  0.00     0.155 A 
HETATM    2  N3  UNL     1      24.320  -1.036  54.970  1.00  0.00    -0.222 NA
HETATM    3  C7  UNL     1      23.354  -1.606  55.712  1.00  0.00     0.236 A 
HETATM    4  N4  UNL     1      22.042  -1.569  55.337  1.00  0.00    -0.241 NA
HETATM    5  C8  UNL     1      21.723  -0.949  54.201  1.00  0.00     0.072 A 
HETATM    6  C9  UNL     1      20.505  -0.764  53.610  1.00  0.00     0.034 A 
HETATM    7  C10 UNL     1      20.070  -0.163  52.479  1.00  0.00     0.026 A 
HETATM    8  C11 UNL     1      21.120   0.403  51.749  1.00  0.00     0.035 A 
HETATM    9 CL2  UNL     1      20.768   1.206  50.241  1.00  0.00    -0.084 Cl
HETATM   10  C12 UNL     1      22.440   0.316  52.208  1.00  0.00     0.041 A 
HETATM   11  C13 UNL     1      22.722  -0.348  53.411  1.00  0.00     0.042 A 
ENDROOT
BRANCH   1  12
HETATM   12  N2  UNL     1      25.013   0.253  52.981  1.00  0.00    -0.285 N 
HETATM   13  H6  UNL     1      24.462   1.110  52.886  1.00  0.00     0.188 HD
BRANCH  12  14
HETATM   14  N1  UNL     1      26.222   0.042  52.396  1.00  0.00    -0.317 N 
HETATM   15  C5  UNL     1      27.016   1.149  52.067  1.00  0.00     0.194 C 
HETATM   16  C4  UNL     1      28.148   1.248  53.052  1.00  0.00     0.031 C 
HETATM   17  C3  UNL     1      28.582   0.055  53.427  1.00  0.00     0.029 C 
HETATM   18 CL1  UNL     1      28.978   2.611  53.782  1.00  0.00    -0.087 Cl
HETATM   19  C2  UNL     1      28.167  -1.320  53.059  1.00  0.00    -0.047 C 
HETATM   20  C1  UNL     1      28.862  -2.466  53.156  1.00  0.00     0.020 C 
HETATM   21  C14 UNL     1      26.762  -1.233  52.532  1.00  0.00     0.180 C 
ENDBRANCH  12  14
ENDBRANCH   1  12
TORSDOF 2
ENDMDL
MODEL 2
REMARK VINA RESULT:      -7.9      1.865      2.515
REMARK  2 active torsions:
REMARK  status: ('A' for Active; 'I' for Inactive)
REMARK    1  A    between atoms: N1_7  and  N2_8 
REMARK    2  A    between atoms: N2_8  and  C6_9 
ROOT
HETATM    1  C6  UNL     1      23.467  -0.199  53.504  1.00  0.00     0.155 A 
HETATM    2  N3  UNL     1      23.949  -0.836  54.594  1.00  0.00    -0.222 NA
HETATM    3  C7  UNL     1      23.171  -1.547  55.429  1.00  0.00     0.236 A 
HETATM    4  N4  UNL     1      21.827  -1.672  55.230  1.00  0.00    -0.241 NA
HETATM    5  C8  UNL     1      21.283  -1.068  54.173  1.00  0.00     0.072 A 
HETATM    6  C9  UNL     1      19.982  -1.029  53.754  1.00  0.00     0.034 A 
HETATM    7  C10 UNL     1      19.327  -0.460  52.717  1.00  0.00     0.026 A 
HETATM    8  C11 UNL     1      20.189   0.258  51.882  1.00  0.00     0.035 A 
HETATM    9 CL2  UNL     1      19.540   1.047  50.469  1.00  0.00    -0.084 Cl
HETATM   10  C12 UNL     1      21.560   0.332  52.161  1.00  0.00     0.041 A 
HETATM   11  C13 UNL     1      22.082  -0.321  53.287  1.00  0.00     0.042 A 
ENDROOT
BRANCH   1  12
HETATM   12  N2  UNL     1      24.200   0.585  52.590  1.00  0.00    -0.285 N 
HETATM   13  H6  UNL     1      24.169  -0.114  51.843  1.00  0.00     0.188 HD
BRANCH  12  14
HETATM   14  N1  UNL     1      24.817   1.793  52.493  1.00  0.00    -0.317 N 
HETATM   15  C5  UNL     1      25.660   2.206  53.534  1.00  0.00     0.194 C 
HETATM   16  C4  UNL     1      27.090   2.079  53.085  1.00  0.00     0.031 C 
HETATM   17  C3  UNL     1      27.231   2.366  51.801  1.00  0.00     0.029 C 
HETATM   18 CL1  UNL     1      28.567   1.631  53.919  1.00  0.00    -0.087 Cl
HETATM   19  C2  UNL     1      26.262   2.781  50.757  1.00  0.00    -0.047 C 
HETATM   20  C1  UNL     1      26.492   3.420  49.597  1.00  0.00     0.020 C 
HETATM   21  C14 UNL     1      24.899   2.347  51.220  1.00  0.00     0.180 C 
ENDBRANCH  12  14
ENDBRANCH   1  12
TORSDOF 2
ENDMDL
MODEL 3
REMARK VINA RESULT:      -7.7      3.187      4.805
REMARK  2 active torsions:
REMARK  status: ('A' for Active; 'I' for Inactive)
REMARK    1  A    between atoms: N1_7  and  N2_8 
REMARK    2  A    between atoms: N2_8  and  C6_9 
ROOT
HETATM    1  C6  UNL     1      25.657   1.307  52.382  1.00  0.00     0.155 A 
HETATM    2  N3  UNL     1      26.868   0.746  52.596  1.00  0.00    -0.222 NA
HETATM    3  C7  UNL     1      27.042  -0.345  53.362  1.00  0.00     0.236 A 
HETATM    4  N4  UNL     1      25.996  -0.964  53.983  1.00  0.00    -0.241 NA
HETATM    5  C8  UNL     1      24.772  -0.463  53.816  1.00  0.00     0.072 A 
HETATM    6  C9  UNL     1      23.573  -0.879  54.323  1.00  0.00     0.034 A 
HETATM    7  C10 UNL     1      22.292  -0.457  54.223  1.00  0.00     0.026 A 
HETATM    8  C11 UNL     1      22.175   0.674  53.409  1.00  0.00     0.035 A 
HETATM    9 CL2  UNL     1      20.595   1.359  53.130  1.00  0.00    -0.084 Cl
HETATM   10  C12 UNL     1      23.304   1.244  52.807  1.00  0.00     0.041 A 
HETATM   11  C13 UNL     1      24.571   0.678  53.016  1.00  0.00     0.042 A 
ENDROOT
BRANCH   1  12
HETATM   12  N2  UNL     1      25.384   2.459  51.616  1.00  0.00    -0.285 N 
HETATM   13  H6  UNL     1      25.109   3.027  52.421  1.00  0.00     0.188 HD
BRANCH  12  14
HETATM   14  N1  UNL     1      25.390   2.896  50.328  1.00  0.00    -0.317 N 
HETATM   15  C5  UNL     1      24.189   3.344  49.761  1.00  0.00     0.194 C 
HETATM   16  C4  UNL     1      24.221   4.845  49.670  1.00  0.00     0.031 C 
HETATM   17  C3  UNL     1      25.434   5.296  49.396  1.00  0.00     0.029 C 
HETATM   18 CL1  UNL     1      22.987   6.078  49.858  1.00  0.00    -0.087 Cl
HETATM   19  C2  UNL     1      26.728   4.609  49.166  1.00  0.00    -0.047 C 
HETATM   20  C1  UNL     1      27.822   5.059  48.527  1.00  0.00     0.020 C 
HETATM   21  C14 UNL     1      26.627   3.249  49.799  1.00  0.00     0.180 C 
ENDBRANCH  12  14
ENDBRANCH   1  12
TORSDOF 2
ENDMDL
MODEL 4
REMARK VINA RESULT:      -7.7      3.492      5.896
REMARK  2 active torsions:
REMARK  status: ('A' for Active; 'I' for Inactive)
REMARK    1  A    between atoms: N1_7  and  N2_8 
REMARK    2  A    between atoms: N2_8  and  C6_9 
ROOT
HETATM    1  C6  UNL     1      26.692   2.029  52.167  1.00  0.00     0.155 A 
HETATM    2  N3  UNL     1      27.918   2.501  52.485  1.00  0.00    -0.222 NA
HETATM    3  C7  UNL     1      28.591   2.105  53.580  1.00  0.00     0.236 A 
HETATM    4  N4  UNL     1      28.075   1.190  54.451  1.00  0.00    -0.241 NA
HETATM    5  C8  UNL     1      26.869   0.682  54.199  1.00  0.00     0.072 A 
HETATM    6  C9  UNL     1      26.132  -0.229  54.902  1.00  0.00     0.034 A 
HETATM    7  C10 UNL     1      24.920  -0.807  54.743  1.00  0.00     0.026 A 
HETATM    8  C11 UNL     1      24.273  -0.361  53.586  1.00  0.00     0.035 A 
HETATM    9 CL2  UNL     1      22.704  -1.010  53.188  1.00  0.00    -0.084 Cl
HETATM   10  C12 UNL     1      24.878   0.580  52.745  1.00  0.00     0.041 A 
HETATM   11  C13 UNL     1      26.151   1.084  53.057  1.00  0.00     0.042 A 
ENDROOT
BRANCH   1  12
HETATM   12  N2  UNL     1      25.905   2.402  51.058  1.00  0.00    -0.285 N 
HETATM   13  H6  UNL     1      26.173   1.592  50.494  1.00  0.00     0.188 HD
BRANCH  12  14
HETATM   14  N1  UNL     1      25.060   3.385  50.647  1.00  0.00    -0.317 N 
HETATM   15  C5  UNL     1      24.754   3.487  49.282  1.00  0.00     0.194 C 
HETATM   16  C4  UNL     1      23.359   2.976  49.054  1.00  0.00     0.031 C 
HETATM   17  C3  UNL     1      22.554   3.273  50.062  1.00  0.00     0.029 C 
HETATM   18 CL1  UNL     1      22.616   2.082  47.740  1.00  0.00    -0.087 Cl
HETATM   19  C2  UNL     1      22.774   3.999  51.337  1.00  0.00    -0.047 C 
HETATM   20  C1  UNL     1      21.873   4.600  52.132  1.00  0.00     0.020 C 
HETATM   21  C14 UNL     1      24.249   3.953  51.624  1.00  0.00     0.180 C 
ENDBRANCH  12  14
ENDBRANCH   1  12
TORSDOF 2
ENDMDL
MODEL 5
REMARK VINA RESULT:      -7.6      2.947      4.873
REMARK  2 active torsions:
REMARK  status: ('A' for Active; 'I' for Inactive)
REMARK    1  A    between atoms: N1_7  and  N2_8 
REMARK    2  A    between atoms: N2_8  and  C6_9 
ROOT
HETATM    1  C6  UNL     1      25.296   0.681  52.723  1.00  0.00     0.155 A 
HETATM    2  N3  UNL     1      26.621   0.833  52.945  1.00  0.00    -0.222 NA
HETATM    3  C7  UNL     1      27.247   0.307  54.013  1.00  0.00     0.236 A 
HETATM    4  N4  UNL     1      26.579  -0.421  54.954  1.00  0.00    -0.241 NA
HETATM    5  C8  UNL     1      25.268  -0.611  54.798  1.00  0.00     0.072 A 
HETATM    6  C9  UNL     1      24.376  -1.284  55.584  1.00  0.00     0.034 A 
HETATM    7  C10 UNL     1      23.049  -1.537  55.526  1.00  0.00     0.026 A 
HETATM    8  C11 UNL     1      22.457  -0.972  54.392  1.00  0.00     0.035 A 
HETATM    9 CL2  UNL     1      20.750  -1.208  54.119  1.00  0.00    -0.084 Cl
HETATM   10  C12 UNL     1      23.220  -0.240  53.474  1.00  0.00     0.041 A 
HETATM   11  C13 UNL     1      24.597  -0.069  53.685  1.00  0.00     0.042 A 
ENDROOT
BRANCH   1  12
HETATM   12  N2  UNL     1      24.554   1.213  51.649  1.00  0.00    -0.285 N 
HETATM   13  H6  UNL     1      24.412   0.307  51.194  1.00  0.00     0.188 HD
BRANCH  12  14
HETATM   14  N1  UNL     1      24.088   2.399  51.172  1.00  0.00    -0.317 N 
HETATM   15  C5  UNL     1      24.940   3.512  51.184  1.00  0.00     0.194 C 
HETATM   16  C4  UNL     1      25.409   3.784  49.782  1.00  0.00     0.031 C 
HETATM   17  C3  UNL     1      24.468   3.526  48.888  1.00  0.00     0.029 C 
HETATM   18 CL1  UNL     1      26.930   4.359  49.123  1.00  0.00    -0.087 Cl
HETATM   19  C2  UNL     1      23.074   3.035  49.018  1.00  0.00    -0.047 C 
HETATM   20  C1  UNL     1      22.054   3.152  48.151  1.00  0.00     0.020 C 
HETATM   21  C14 UNL     1      22.971   2.340  50.346  1.00  0.00     0.180 C 
ENDBRANCH  12  14
ENDBRANCH   1  12
TORSDOF 2
ENDMDL
MODEL 6
REMARK VINA RESULT:      -7.6      2.341      3.152
REMARK  2 active torsions:
REMARK  status: ('A' for Active; 'I' for Inactive)
REMARK    1  A    between atoms: N1_7  and  N2_8 
REMARK    2  A    between atoms: N2_8  and  C6_9 
ROOT
HETATM    1  C6  UNL     1      23.840   2.416  52.588  1.00  0.00     0.155 A 
HETATM    2  N3  UNL     1      23.745   3.641  52.027  1.00  0.00    -0.222 NA
HETATM    3  C7  UNL     1      22.570   4.202  51.691  1.00  0.00     0.236 A 
HETATM    4  N4  UNL     1      21.382   3.563  51.896  1.00  0.00    -0.241 NA
HETATM    5  C8  UNL     1      21.401   2.349  52.447  1.00  0.00     0.072 A 
HETATM    6  C9  UNL     1      20.371   1.502  52.749  1.00  0.00     0.034 A 
HETATM    7  C10 UNL     1      20.273   0.271  53.298  1.00  0.00     0.026 A 
HETATM    8  C11 UNL     1      21.525  -0.255  53.632  1.00  0.00     0.035 A 
HETATM    9 CL2  UNL     1      21.612  -1.829  54.379  1.00  0.00    -0.084 Cl
HETATM   10  C12 UNL     1      22.696   0.472  53.388  1.00  0.00     0.041 A 
HETATM   11  C13 UNL     1      22.622   1.747  52.806  1.00  0.00     0.042 A 
ENDROOT
BRANCH   1  12
HETATM   12  N2  UNL     1      25.024   1.741  52.950  1.00  0.00    -0.285 N 
HETATM   13  H6  UNL     1      24.842   1.794  53.955  1.00  0.00     0.188 HD
BRANCH  12  14
HETATM   14  N1  UNL     1      26.124   1.167  52.392  1.00  0.00    -0.317 N 
HETATM   15  C5  UNL     1      27.334   1.875  52.401  1.00  0.00     0.194 C 
HETATM   16  C4  UNL     1      28.245   1.273  53.434  1.00  0.00     0.031 C 
HETATM   17  C3  UNL     1      28.105  -0.041  53.510  1.00  0.00     0.029 C 
HETATM   18 CL1  UNL     1      29.426   1.965  54.532  1.00  0.00    -0.087 Cl
HETATM   19  C2  UNL     1      27.238  -0.997  52.780  1.00  0.00    -0.047 C 
HETATM   20  C1  UNL     1      27.396  -2.322  52.613  1.00  0.00     0.020 C 
HETATM   21  C14 UNL     1      26.084  -0.213  52.222  1.00  0.00     0.180 C 
ENDBRANCH  12  14
ENDBRANCH   1  12
TORSDOF 2
ENDMDL
MODEL 7
REMARK VINA RESULT:      -7.5      3.576      5.747
REMARK  2 active torsions:
REMARK  status: ('A' for Active; 'I' for Inactive)
REMARK    1  A    between atoms: N1_7  and  N2_8 
REMARK    2  A    between atoms: N2_8  and  C6_9 
ROOT
HETATM    1  C6  UNL     1      23.823   1.920  52.494  1.00  0.00     0.155 A 
HETATM    2  N3  UNL     1      22.702   1.166  52.512  1.00  0.00    -0.222 NA
HETATM    3  C7  UNL     1      22.647  -0.050  53.082  1.00  0.00     0.236 A 
HETATM    4  N4  UNL     1      23.735  -0.611  53.687  1.00  0.00    -0.241 NA
HETATM    5  C8  UNL     1      24.876   0.077  53.707  1.00  0.00     0.072 A 
HETATM    6  C9  UNL     1      26.094  -0.251  54.233  1.00  0.00     0.034 A 
HETATM    7  C10 UNL     1      27.299   0.357  54.311  1.00  0.00     0.026 A 
HETATM    8  C11 UNL     1      27.290   1.618  53.707  1.00  0.00     0.035 A 
HETATM    9 CL2  UNL     1      28.747   2.578  53.725  1.00  0.00    -0.084 Cl
HETATM   10  C12 UNL     1      26.126   2.119  53.110  1.00  0.00     0.041 A 
HETATM   11  C13 UNL     1      24.950   1.353  53.116  1.00  0.00     0.042 A 
ENDROOT
BRANCH   1  12
HETATM   12  N2  UNL     1      23.979   3.190  51.902  1.00  0.00    -0.285 N 
HETATM   13  H6  UNL     1      23.906   3.699  52.786  1.00  0.00     0.188 HD
BRANCH  12  14
HETATM   14  N1  UNL     1      24.155   3.773  50.686  1.00  0.00    -0.317 N 
HETATM   15  C5  UNL     1      23.371   4.885  50.350  1.00  0.00     0.194 C 
HETATM   16  C4  UNL     1      24.219   6.124  50.432  1.00  0.00     0.031 C 
HETATM   17  C3  UNL     1      25.463   5.896  50.045  1.00  0.00     0.029 C 
HETATM   18 CL1  UNL     1      23.879   7.771  50.934  1.00  0.00    -0.087 Cl
HETATM   19  C2  UNL     1      26.151   4.676  49.557  1.00  0.00    -0.047 C 
HETATM   20  C1  UNL     1      27.276   4.575  48.828  1.00  0.00     0.020 C 
HETATM   21  C14 UNL     1      25.352   3.496  50.034  1.00  0.00     0.180 C 
ENDBRANCH  12  14
ENDBRANCH   1  12
TORSDOF 2
ENDMDL
MODEL 8
REMARK VINA RESULT:      -7.2      8.383     10.007
REMARK  2 active torsions:
REMARK  status: ('A' for Active; 'I' for Inactive)
REMARK    1  A    between atoms: N1_7  and  N2_8 
REMARK    2  A    between atoms: N2_8  and  C6_9 
ROOT
HETATM    1  C6  UNL     1      29.890   6.598  47.703  1.00  0.00     0.155 A 
HETATM    2  N3  UNL     1      30.145   7.851  47.264  1.00  0.00    -0.222 NA
HETATM    3  C7  UNL     1      29.200   8.804  47.183  1.00  0.00     0.236 A 
HETATM    4  N4  UNL     1      27.905   8.566  47.543  1.00  0.00    -0.241 NA
HETATM    5  C8  UNL     1      27.581   7.351  47.986  1.00  0.00     0.072 A 
HETATM    6  C9  UNL     1      26.376   6.855  48.396  1.00  0.00     0.034 A 
HETATM    7  C10 UNL     1      25.938   5.662  48.858  1.00  0.00     0.026 A 
HETATM    8  C11 UNL     1      26.966   4.717  48.925  1.00  0.00     0.035 A 
HETATM    9 CL2  UNL     1      26.610   3.117  49.522  1.00  0.00    -0.084 Cl
HETATM   10  C12 UNL     1      28.271   5.047  48.538  1.00  0.00     0.041 A 
HETATM   11  C13 UNL     1      28.558   6.342  48.078  1.00  0.00     0.042 A 
ENDROOT
BRANCH   1  12
HETATM   12  N2  UNL     1      30.808   5.533  47.799  1.00  0.00    -0.285 N 
HETATM   13  H6  UNL     1      30.562   5.302  48.765  1.00  0.00     0.188 HD
BRANCH  12  14
HETATM   14  N1  UNL     1      31.752   4.884  47.066  1.00  0.00    -0.317 N 
HETATM   15  C5  UNL     1      33.040   5.431  46.987  1.00  0.00     0.194 C 
HETATM   16  C4  UNL     1      33.970   4.621  47.847  1.00  0.00     0.031 C 
HETATM   17  C3  UNL     1      33.662   3.334  47.829  1.00  0.00     0.029 C 
HETATM   18 CL1  UNL     1      35.346   5.048  48.847  1.00  0.00    -0.087 Cl
HETATM   19  C2  UNL     1      32.599   2.570  47.131  1.00  0.00    -0.047 C 
HETATM   20  C1  UNL     1      32.557   1.259  46.836  1.00  0.00     0.020 C 
HETATM   21  C14 UNL     1      31.507   3.544  46.786  1.00  0.00     0.180 C 
ENDBRANCH  12  14
ENDBRANCH   1  12
TORSDOF 2
ENDMDL
MODEL 9
REMARK VINA RESULT:      -7.2      3.180      5.287
REMARK  2 active torsions:
REMARK  status: ('A' for Active; 'I' for Inactive)
REMARK    1  A    between atoms: N1_7  and  N2_8 
REMARK    2  A    between atoms: N2_8  and  C6_9 
ROOT
HETATM    1  C6  UNL     1      22.162   1.415  52.898  1.00  0.00     0.155 A 
HETATM    2  N3  UNL     1      21.125   0.693  53.376  1.00  0.00    -0.222 NA
HETATM    3  C7  UNL     1      21.272  -0.535  53.905  1.00  0.00     0.236 A 
HETATM    4  N4  UNL     1      22.492  -1.139  53.995  1.00  0.00    -0.241 NA
HETATM    5  C8  UNL     1      23.560  -0.483  53.541  1.00  0.00     0.072 A 
HETATM    6  C9  UNL     1      24.874  -0.858  53.505  1.00  0.00     0.034 A 
HETATM    7  C10 UNL     1      26.022  -0.285  53.077  1.00  0.00     0.026 A 
HETATM    8  C11 UNL     1      25.805   0.989  52.544  1.00  0.00     0.035 A 
HETATM    9 CL2  UNL     1      27.168   1.907  51.959  1.00  0.00    -0.084 Cl
HETATM   10  C12 UNL     1      24.517   1.535  52.494  1.00  0.00     0.041 A 
HETATM   11  C13 UNL     1      23.425   0.803  52.985  1.00  0.00     0.042 A 
ENDROOT
BRANCH   1  12
HETATM   12  N2  UNL     1      22.099   2.694  52.307  1.00  0.00    -0.285 N 
HETATM   13  H6  UNL     1      22.066   3.192  53.199  1.00  0.00     0.188 HD
BRANCH  12  14
HETATM   14  N1  UNL     1      22.070   3.291  51.085  1.00  0.00    -0.317 N 
HETATM   15  C5  UNL     1      22.798   4.474  50.894  1.00  0.00     0.194 C 
HETATM   16  C4  UNL     1      24.026   4.168  50.084  1.00  0.00     0.031 C 
HETATM   17  C3  UNL     1      23.797   3.234  49.175  1.00  0.00     0.029 C 
HETATM   18 CL1  UNL     1      25.664   4.796  50.115  1.00  0.00    -0.087 Cl
HETATM   19  C2  UNL     1      22.582   2.459  48.822  1.00  0.00    -0.047 C 
HETATM   20  C1  UNL     1      22.291   1.820  47.676  1.00  0.00     0.020 C 
HETATM   21  C14 UNL     1      21.670   2.497  50.016  1.00  0.00     0.180 C 
ENDBRANCH  12  14
ENDBRANCH   1  12
TORSDOF 2
ENDMDL
