MODEL 1
REMARK VINA RESULT:      -8.5      0.000      0.000
REMARK  5 active torsions:
REMARK  status: ('A' for Active; 'I' for Inactive)
REMARK    1  A    between atoms: O1_2  and  C2_3 
REMARK    2  A    between atoms: C16_19  and  C17_20 
REMARK    3  A    between atoms: C17_20  and  C18_21 
REMARK    4  A    between atoms: C18_21  and  C19_22 
REMARK    5  A    between atoms: C19_22  and  O3_24 
ROOT
HETATM    1  C2  UNL     1      21.186   0.087  53.190  1.00  0.00     0.082 C 
HETATM    2  C3  UNL     1      21.743  -0.969  53.721  1.00  0.00     0.021 C 
HETATM    3  C4  UNL     1      23.206  -0.782  53.897  1.00  0.00     0.045 C 
HETATM    4  C5  UNL     1      24.508  -0.388  53.950  1.00  0.00    -0.008 C 
HETATM    5  C6  UNL     1      25.243   0.798  53.530  1.00  0.00    -0.040 C 
HETATM    6  C7  UNL     1      24.419   1.797  53.795  1.00  0.00     0.010 C 
HETATM    7  C8  UNL     1      23.837   2.697  52.771  1.00  0.00     0.141 C 
HETATM    8  N1  UNL     1      22.457   2.363  52.542  1.00  0.00    -0.289 NA
HETATM    9  C9  UNL     1      21.839   1.314  52.833  1.00  0.00     0.147 C 
HETATM   10  C10 UNL     1      24.625   3.027  51.609  1.00  0.00     0.063 C 
HETATM   11  C11 UNL     1      23.955   2.532  50.345  1.00  0.00     0.013 C 
HETATM   12  C12 UNL     1      24.481   3.285  49.135  1.00  0.00     0.005 C 
HETATM   13  C13 UNL     1      25.791   3.978  49.443  1.00  0.00     0.029 C 
HETATM   14  C14 UNL     1      26.619   3.160  50.396  1.00  0.00    -0.002 C 
HETATM   15  C15 UNL     1      26.038   2.659  51.518  1.00  0.00     0.008 C 
HETATM   16  N2  UNL     1      26.968   1.893  52.292  1.00  0.00    -0.384 N 
HETATM   17  C16 UNL     1      26.540   0.619  52.953  1.00  0.00     0.114 C 
HETATM   18  H18 UNL     1      27.901   2.323  52.316  1.00  0.00     0.160 HD
ENDROOT
BRANCH  17  19
HETATM   19  C17 UNL     1      26.776  -0.461  51.949  1.00  0.00     0.040 C 
BRANCH  19  20
HETATM   20  C18 UNL     1      26.780  -1.867  52.415  1.00  0.00     0.112 C 
BRANCH  20  21
HETATM   21  C19 UNL     1      28.152  -2.247  52.959  1.00  0.00     0.139 C 
HETATM   22  O2  UNL     1      29.078  -1.416  53.097  1.00  0.00    -0.650 OA
BRANCH  21  23
HETATM   23  O3  UNL     1      28.681  -3.457  53.391  1.00  0.00    -0.776 OA
HETATM   24  H24 UNL     1      28.238  -4.338  53.092  1.00  0.00     0.167 HD
ENDBRANCH  21  23
ENDBRANCH  20  21
ENDBRANCH  19  20
ENDBRANCH  17  19
BRANCH   1  25
HETATM   25  O1  UNL     1      20.071  -0.650  53.275  1.00  0.00    -0.355 OA
HETATM   26  C1  UNL     1      18.817  -0.437  52.673  1.00  0.00     0.210 C 
ENDBRANCH   1  25
TORSDOF 5
ENDMDL
MODEL 2
REMARK VINA RESULT:      -8.2      2.683      5.617
REMARK  5 active torsions:
REMARK  status: ('A' for Active; 'I' for Inactive)
REMARK    1  A    between atoms: O1_2  and  C2_3 
REMARK    2  A    between atoms: C16_19  and  C17_20 
REMARK    3  A    between atoms: C17_20  and  C18_21 
REMARK    4  A    between atoms: C18_21  and  C19_22 
REMARK    5  A    between atoms: C19_22  and  O3_24 
ROOT
HETATM    1  C2  UNL     1      26.244  -1.190  52.888  1.00  0.00     0.082 C 
HETATM    2  C3  UNL     1      27.236  -0.530  52.353  1.00  0.00     0.021 C 
HETATM    3  C4  UNL     1      26.874   0.889  52.105  1.00  0.00     0.045 C 
HETATM    4  C5  UNL     1      26.317   2.124  51.967  1.00  0.00    -0.008 C 
HETATM    5  C6  UNL     1      25.004   2.696  52.230  1.00  0.00    -0.040 C 
HETATM    6  C7  UNL     1      24.615   2.107  53.349  1.00  0.00     0.010 C 
HETATM    7  C8  UNL     1      23.435   1.217  53.460  1.00  0.00     0.141 C 
HETATM    8  N1  UNL     1      23.854  -0.156  53.547  1.00  0.00    -0.289 NA
HETATM    9  C9  UNL     1      24.958  -0.666  53.248  1.00  0.00     0.147 C 
HETATM   10  C10 UNL     1      22.279   1.491  52.641  1.00  0.00     0.063 C 
HETATM   11  C11 UNL     1      22.006   0.343  51.692  1.00  0.00     0.013 C 
HETATM   12  C12 UNL     1      20.566   0.382  51.212  1.00  0.00     0.005 C 
HETATM   13  C13 UNL     1      19.945   1.744  51.439  1.00  0.00     0.029 C 
HETATM   14  C14 UNL     1      20.964   2.836  51.253  1.00  0.00    -0.002 C 
HETATM   15  C15 UNL     1      22.173   2.725  51.862  1.00  0.00     0.008 C 
HETATM   16  N2  UNL     1      23.018   3.841  51.557  1.00  0.00    -0.384 N 
HETATM   17  C16 UNL     1      24.478   3.640  51.292  1.00  0.00     0.114 C 
HETATM   18  H18 UNL     1      22.501   4.728  51.547  1.00  0.00     0.160 HD
ENDROOT
BRANCH  17  19
HETATM   19  C17 UNL     1      24.596   3.390  49.825  1.00  0.00     0.040 C 
BRANCH  19  20
HETATM   20  C18 UNL     1      24.967   4.524  48.945  1.00  0.00     0.112 C 
BRANCH  20  21
HETATM   21  C19 UNL     1      26.403   4.960  49.211  1.00  0.00     0.139 C 
HETATM   22  O2  UNL     1      27.373   4.173  49.135  1.00  0.00    -0.650 OA
BRANCH  21  23
HETATM   23  O3  UNL     1      26.954   6.186  49.563  1.00  0.00    -0.776 OA
HETATM   24  H24 UNL     1      26.330   6.979  49.771  1.00  0.00     0.167 HD
ENDBRANCH  21  23
ENDBRANCH  20  21
ENDBRANCH  19  20
ENDBRANCH  17  19
BRANCH   1  25
HETATM   25  O1  UNL     1      27.101  -2.219  52.828  1.00  0.00    -0.355 OA
HETATM   26  C1  UNL     1      28.479  -2.244  53.112  1.00  0.00     0.210 C 
ENDBRANCH   1  25
TORSDOF 5
ENDMDL
MODEL 3
REMARK VINA RESULT:      -8.1      2.615      4.972
REMARK  5 active torsions:
REMARK  status: ('A' for Active; 'I' for Inactive)
REMARK    1  A    between atoms: O1_2  and  C2_3 
REMARK    2  A    between atoms: C16_19  and  C17_20 
REMARK    3  A    between atoms: C17_20  and  C18_21 
REMARK    4  A    between atoms: C18_21  and  C19_22 
REMARK    5  A    between atoms: C19_22  and  O3_24 
ROOT
HETATM    1  C2  UNL     1      21.666   5.091  51.233  1.00  0.00     0.082 C 
HETATM    2  C3  UNL     1      22.868   5.596  51.161  1.00  0.00     0.021 C 
HETATM    3  C4  UNL     1      23.909   4.538  51.226  1.00  0.00     0.045 C 
HETATM    4  C5  UNL     1      24.668   3.411  51.313  1.00  0.00    -0.008 C 
HETATM    5  C6  UNL     1      24.389   1.993  51.495  1.00  0.00    -0.040 C 
HETATM    6  C7  UNL     1      23.290   1.789  50.787  1.00  0.00     0.010 C 
HETATM    7  C8  UNL     1      21.992   1.364  51.361  1.00  0.00     0.141 C 
HETATM    8  N1  UNL     1      21.080   2.475  51.405  1.00  0.00    -0.289 NA
HETATM    9  C9  UNL     1      21.323   3.700  51.327  1.00  0.00     0.147 C 
HETATM   10  C10 UNL     1      21.993   0.481  52.502  1.00  0.00     0.063 C 
HETATM   11  C11 UNL     1      21.350   1.147  53.700  1.00  0.00     0.013 C 
HETATM   12  C12 UNL     1      20.896   0.105  54.707  1.00  0.00     0.005 C 
HETATM   13  C13 UNL     1      21.576  -1.227  54.469  1.00  0.00     0.029 C 
HETATM   14  C14 UNL     1      22.987  -1.029  53.985  1.00  0.00    -0.002 C 
HETATM   15  C15 UNL     1      23.225  -0.153  52.973  1.00  0.00     0.008 C 
HETATM   16  N2  UNL     1      24.620  -0.079  52.661  1.00  0.00    -0.384 N 
HETATM   17  C16 UNL     1      25.260   1.237  52.341  1.00  0.00     0.114 C 
HETATM   18  H18 UNL     1      25.075  -1.000  52.692  1.00  0.00     0.160 HD
ENDROOT
BRANCH  17  19
HETATM   19  C17 UNL     1      25.716   1.797  53.648  1.00  0.00     0.040 C 
BRANCH  19  20
HETATM   20  C18 UNL     1      27.141   1.639  54.023  1.00  0.00     0.112 C 
BRANCH  20  21
HETATM   21  C19 UNL     1      27.376   0.281  54.673  1.00  0.00     0.139 C 
HETATM   22  O2  UNL     1      26.471  -0.351  55.263  1.00  0.00    -0.650 OA
BRANCH  21  23
HETATM   23  O3  UNL     1      28.508  -0.518  54.777  1.00  0.00    -0.776 OA
HETATM   24  H24 UNL     1      28.960  -0.638  55.695  1.00  0.00     0.167 HD
ENDBRANCH  21  23
ENDBRANCH  20  21
ENDBRANCH  19  20
ENDBRANCH  17  19
BRANCH   1  25
HETATM   25  O1  UNL     1      21.290   6.374  51.156  1.00  0.00    -0.355 OA
HETATM   26  C1  UNL     1      21.869   7.427  50.422  1.00  0.00     0.210 C 
ENDBRANCH   1  25
TORSDOF 5
ENDMDL
MODEL 4
REMARK VINA RESULT:      -7.8      2.165      3.402
REMARK  5 active torsions:
REMARK  status: ('A' for Active; 'I' for Inactive)
REMARK    1  A    between atoms: O1_2  and  C2_3 
REMARK    2  A    between atoms: C16_19  and  C17_20 
REMARK    3  A    between atoms: C17_20  and  C18_21 
REMARK    4  A    between atoms: C18_21  and  C19_22 
REMARK    5  A    between atoms: C19_22  and  O3_24 
ROOT
HETATM    1  C2  UNL     1      18.196  -0.858  52.459  1.00  0.00     0.082 C 
HETATM    2  C3  UNL     1      18.765  -1.365  53.520  1.00  0.00     0.021 C 
HETATM    3  C4  UNL     1      20.005  -0.629  53.877  1.00  0.00     0.045 C 
HETATM    4  C5  UNL     1      21.092   0.182  53.999  1.00  0.00    -0.008 C 
HETATM    5  C6  UNL     1      21.641   1.291  53.231  1.00  0.00    -0.040 C 
HETATM    6  C7  UNL     1      20.574   1.962  52.829  1.00  0.00     0.010 C 
HETATM    7  C8  UNL     1      20.181   2.138  51.412  1.00  0.00     0.141 C 
HETATM    8  N1  UNL     1      19.067   1.285  51.094  1.00  0.00    -0.289 NA
HETATM    9  C9  UNL     1      18.639   0.283  51.710  1.00  0.00     0.147 C 
HETATM   10  C10 UNL     1      21.216   2.251  50.413  1.00  0.00     0.063 C 
HETATM   11  C11 UNL     1      21.134   1.110  49.420  1.00  0.00     0.013 C 
HETATM   12  C12 UNL     1      21.850   1.476  48.131  1.00  0.00     0.005 C 
HETATM   13  C13 UNL     1      22.793   2.642  48.335  1.00  0.00     0.029 C 
HETATM   14  C14 UNL     1      23.417   2.594  49.704  1.00  0.00    -0.002 C 
HETATM   15  C15 UNL     1      22.623   2.392  50.788  1.00  0.00     0.008 C 
HETATM   16  N2  UNL     1      23.388   2.355  51.998  1.00  0.00    -0.384 N 
HETATM   17  C16 UNL     1      23.061   1.368  53.076  1.00  0.00     0.114 C 
HETATM   18  H18 UNL     1      24.139   3.057  52.005  1.00  0.00     0.160 HD
ENDROOT
BRANCH  17  19
HETATM   19  C17 UNL     1      23.852   0.142  52.760  1.00  0.00     0.040 C 
BRANCH  19  20
HETATM   20  C18 UNL     1      25.331   0.245  52.739  1.00  0.00     0.112 C 
BRANCH  20  21
HETATM   21  C19 UNL     1      25.941  -0.581  53.865  1.00  0.00     0.139 C 
HETATM   22  O2  UNL     1      27.095  -1.062  53.802  1.00  0.00    -0.650 OA
BRANCH  21  23
HETATM   23  O3  UNL     1      25.449  -0.974  55.104  1.00  0.00    -0.776 OA
HETATM   24  H24 UNL     1      24.556  -1.485  55.154  1.00  0.00     0.167 HD
ENDBRANCH  21  23
ENDBRANCH  20  21
ENDBRANCH  19  20
ENDBRANCH  17  19
BRANCH   1  25
HETATM   25  O1  UNL     1      17.311  -1.844  52.653  1.00  0.00    -0.355 OA
HETATM   26  C1  UNL     1      17.408  -2.973  53.489  1.00  0.00     0.210 C 
ENDBRANCH   1  25
TORSDOF 5
ENDMDL
MODEL 5
REMARK VINA RESULT:      -7.8      2.506      5.912
REMARK  5 active torsions:
REMARK  status: ('A' for Active; 'I' for Inactive)
REMARK    1  A    between atoms: O1_2  and  C2_3 
REMARK    2  A    between atoms: C16_19  and  C17_20 
REMARK    3  A    between atoms: C17_20  and  C18_21 
REMARK    4  A    between atoms: C18_21  and  C19_22 
REMARK    5  A    between atoms: C19_22  and  O3_24 
ROOT
HETATM    1  C2  UNL     1      26.122  -0.995  52.904  1.00  0.00     0.082 C 
HETATM    2  C3  UNL     1      27.065  -0.373  52.249  1.00  0.00     0.021 C 
HETATM    3  C4  UNL     1      26.651   1.004  51.874  1.00  0.00     0.045 C 
HETATM    4  C5  UNL     1      26.052   2.204  51.639  1.00  0.00    -0.008 C 
HETATM    5  C6  UNL     1      24.738   2.771  51.913  1.00  0.00    -0.040 C 
HETATM    6  C7  UNL     1      24.426   2.295  53.107  1.00  0.00     0.010 C 
HETATM    7  C8  UNL     1      23.280   1.395  53.375  1.00  0.00     0.141 C 
HETATM    8  N1  UNL     1      23.741   0.049  53.583  1.00  0.00    -0.289 NA
HETATM    9  C9  UNL     1      24.842  -0.464  53.278  1.00  0.00     0.147 C 
HETATM   10  C10 UNL     1      22.075   1.554  52.598  1.00  0.00     0.063 C 
HETATM   11  C11 UNL     1      21.785   0.306  51.791  1.00  0.00     0.013 C 
HETATM   12  C12 UNL     1      20.321   0.262  51.389  1.00  0.00     0.005 C 
HETATM   13  C13 UNL     1      19.674   1.626  51.507  1.00  0.00     0.029 C 
HETATM   14  C14 UNL     1      20.650   2.714  51.152  1.00  0.00    -0.002 C 
HETATM   15  C15 UNL     1      21.893   2.696  51.701  1.00  0.00     0.008 C 
HETATM   16  N2  UNL     1      22.688   3.792  51.234  1.00  0.00    -0.384 N 
HETATM   17  C16 UNL     1      24.138   3.598  50.912  1.00  0.00     0.114 C 
HETATM   18  H18 UNL     1      22.146   4.662  51.160  1.00  0.00     0.160 HD
ENDROOT
BRANCH  17  19
HETATM   19  C17 UNL     1      24.186   3.197  49.475  1.00  0.00     0.040 C 
BRANCH  19  20
HETATM   20  C18 UNL     1      23.236   3.835  48.533  1.00  0.00     0.112 C 
BRANCH  20  21
HETATM   21  C19 UNL     1      22.439   2.778  47.777  1.00  0.00     0.139 C 
HETATM   22  O2  UNL     1      21.950   2.983  46.643  1.00  0.00    -0.650 OA
BRANCH  21  23
HETATM   23  O3  UNL     1      22.084   1.473  48.098  1.00  0.00    -0.776 OA
HETATM   24  H24 UNL     1      21.272   1.042  47.633  1.00  0.00     0.167 HD
ENDBRANCH  21  23
ENDBRANCH  20  21
ENDBRANCH  19  20
ENDBRANCH  17  19
BRANCH   1  25
HETATM   25  O1  UNL     1      27.003  -2.004  52.905  1.00  0.00    -0.355 OA
HETATM   26  C1  UNL     1      28.391  -1.971  53.137  1.00  0.00     0.210 C 
ENDBRANCH   1  25
TORSDOF 5
ENDMDL
MODEL 6
REMARK VINA RESULT:      -7.7      2.905      5.031
REMARK  5 active torsions:
REMARK  status: ('A' for Active; 'I' for Inactive)
REMARK    1  A    between atoms: O1_2  and  C2_3 
REMARK    2  A    between atoms: C16_19  and  C17_20 
REMARK    3  A    between atoms: C17_20  and  C18_21 
REMARK    4  A    between atoms: C18_21  and  C19_22 
REMARK    5  A    between atoms: C19_22  and  O3_24 
ROOT
HETATM    1  C2  UNL     1      19.219   3.423  51.198  1.00  0.00     0.082 C 
HETATM    2  C3  UNL     1      20.008   4.377  50.782  1.00  0.00     0.021 C 
HETATM    3  C4  UNL     1      21.415   3.912  50.676  1.00  0.00     0.045 C 
HETATM    4  C5  UNL     1      22.615   3.268  50.667  1.00  0.00    -0.008 C 
HETATM    5  C6  UNL     1      23.071   1.935  51.037  1.00  0.00    -0.040 C 
HETATM    6  C7  UNL     1      22.088   1.140  50.649  1.00  0.00     0.010 C 
HETATM    7  C8  UNL     1      21.270   0.313  51.567  1.00  0.00     0.141 C 
HETATM    8  N1  UNL     1      19.969   0.901  51.741  1.00  0.00    -0.289 NA
HETATM    9  C9  UNL     1      19.591   2.070  51.497  1.00  0.00     0.147 C 
HETATM   10  C10 UNL     1      21.892  -0.243  52.743  1.00  0.00     0.063 C 
HETATM   11  C11 UNL     1      21.245   0.296  54.002  1.00  0.00     0.013 C 
HETATM   12  C12 UNL     1      21.525  -0.623  55.178  1.00  0.00     0.005 C 
HETATM   13  C13 UNL     1      22.692  -1.544  54.894  1.00  0.00     0.029 C 
HETATM   14  C14 UNL     1      23.730  -0.850  54.054  1.00  0.00    -0.002 C 
HETATM   15  C15 UNL     1      23.340  -0.172  52.943  1.00  0.00     0.008 C 
HETATM   16  N2  UNL     1      24.455   0.439  52.284  1.00  0.00    -0.384 N 
HETATM   17  C16 UNL     1      24.333   1.813  51.699  1.00  0.00     0.114 C 
HETATM   18  H18 UNL     1      25.285  -0.166  52.280  1.00  0.00     0.160 HD
ENDROOT
BRANCH  17  19
HETATM   19  C17 UNL     1      24.704   2.757  52.795  1.00  0.00     0.040 C 
BRANCH  19  20
HETATM   20  C18 UNL     1      25.659   2.294  53.830  1.00  0.00     0.112 C 
BRANCH  20  21
HETATM   21  C19 UNL     1      27.095   2.481  53.356  1.00  0.00     0.139 C 
HETATM   22  O2  UNL     1      28.079   2.366  54.121  1.00  0.00    -0.650 OA
BRANCH  21  23
HETATM   23  O3  UNL     1      27.633   2.789  52.112  1.00  0.00    -0.776 OA
HETATM   24  H24 UNL     1      27.518   3.741  51.734  1.00  0.00     0.167 HD
ENDBRANCH  21  23
ENDBRANCH  20  21
ENDBRANCH  19  20
ENDBRANCH  17  19
BRANCH   1  25
HETATM   25  O1  UNL     1      18.279   4.373  51.106  1.00  0.00    -0.355 OA
HETATM   26  C1  UNL     1      16.909   4.241  50.807  1.00  0.00     0.210 C 
ENDBRANCH   1  25
TORSDOF 5
ENDMDL
MODEL 7
REMARK VINA RESULT:      -7.5      3.021      5.107
REMARK  5 active torsions:
REMARK  status: ('A' for Active; 'I' for Inactive)
REMARK    1  A    between atoms: O1_2  and  C2_3 
REMARK    2  A    between atoms: C16_19  and  C17_20 
REMARK    3  A    between atoms: C17_20  and  C18_21 
REMARK    4  A    between atoms: C18_21  and  C19_22 
REMARK    5  A    between atoms: C19_22  and  O3_24 
ROOT
HETATM    1  C2  UNL     1      23.961   0.520  52.713  1.00  0.00     0.082 C 
HETATM    2  C3  UNL     1      24.780   1.279  53.392  1.00  0.00     0.021 C 
HETATM    3  C4  UNL     1      24.530   2.720  53.131  1.00  0.00     0.045 C 
HETATM    4  C5  UNL     1      24.125   3.957  52.731  1.00  0.00    -0.008 C 
HETATM    5  C6  UNL     1      23.133   4.463  51.792  1.00  0.00    -0.040 C 
HETATM    6  C7  UNL     1      22.111   3.635  51.928  1.00  0.00     0.010 C 
HETATM    7  C8  UNL     1      21.600   2.752  50.853  1.00  0.00     0.141 C 
HETATM    8  N1  UNL     1      22.006   1.392  51.091  1.00  0.00    -0.289 NA
HETATM    9  C9  UNL     1      22.910   0.957  51.839  1.00  0.00     0.147 C 
HETATM   10  C10 UNL     1      21.658   3.215  49.488  1.00  0.00     0.063 C 
HETATM   11  C11 UNL     1      22.545   2.319  48.651  1.00  0.00     0.013 C 
HETATM   12  C12 UNL     1      22.221   2.478  47.176  1.00  0.00     0.005 C 
HETATM   13  C13 UNL     1      21.451   3.755  46.915  1.00  0.00     0.029 C 
HETATM   14  C14 UNL     1      21.905   4.853  47.838  1.00  0.00    -0.002 C 
HETATM   15  C15 UNL     1      22.019   4.596  49.168  1.00  0.00     0.008 C 
HETATM   16  N2  UNL     1      22.481   5.746  49.885  1.00  0.00    -0.384 N 
HETATM   17  C16 UNL     1      23.475   5.601  50.996  1.00  0.00     0.114 C 
HETATM   18  H18 UNL     1      22.057   6.616  49.541  1.00  0.00     0.160 HD
ENDROOT
BRANCH  17  19
HETATM   19  C17 UNL     1      24.820   5.695  50.355  1.00  0.00     0.040 C 
BRANCH  19  20
HETATM   20  C18 UNL     1      25.218   4.640  49.393  1.00  0.00     0.112 C 
BRANCH  20  21
HETATM   21  C19 UNL     1      26.608   4.111  49.723  1.00  0.00     0.139 C 
HETATM   22  O2  UNL     1      27.577   4.223  48.939  1.00  0.00    -0.650 OA
BRANCH  21  23
HETATM   23  O3  UNL     1      27.113   3.448  50.835  1.00  0.00    -0.776 OA
HETATM   24  H24 UNL     1      27.810   3.918  51.431  1.00  0.00     0.167 HD
ENDBRANCH  21  23
ENDBRANCH  20  21
ENDBRANCH  19  20
ENDBRANCH  17  19
BRANCH   1  25
HETATM   25  O1  UNL     1      24.643  -0.473  53.300  1.00  0.00    -0.355 OA
HETATM   26  C1  UNL     1      25.974  -0.882  53.090  1.00  0.00     0.210 C 
ENDBRANCH   1  25
TORSDOF 5
ENDMDL
MODEL 8
REMARK VINA RESULT:      -7.3      2.677      3.660
REMARK  5 active torsions:
REMARK  status: ('A' for Active; 'I' for Inactive)
REMARK    1  A    between atoms: O1_2  and  C2_3 
REMARK    2  A    between atoms: C16_19  and  C17_20 
REMARK    3  A    between atoms: C17_20  and  C18_21 
REMARK    4  A    between atoms: C18_21  and  C19_22 
REMARK    5  A    between atoms: C19_22  and  O3_24 
ROOT
HETATM    1  C2  UNL     1      19.090   1.227  50.485  1.00  0.00     0.082 C 
HETATM    2  C3  UNL     1      19.560   0.270  51.239  1.00  0.00     0.021 C 
HETATM    3  C4  UNL     1      20.765   0.708  51.988  1.00  0.00     0.045 C 
HETATM    4  C5  UNL     1      21.840   1.328  52.550  1.00  0.00    -0.008 C 
HETATM    5  C6  UNL     1      22.459   2.640  52.417  1.00  0.00    -0.040 C 
HETATM    6  C7  UNL     1      21.434   3.465  52.283  1.00  0.00     0.010 C 
HETATM    7  C8  UNL     1      21.171   4.282  51.076  1.00  0.00     0.141 C 
HETATM    8  N1  UNL     1      20.087   3.716  50.318  1.00  0.00    -0.289 NA
HETATM    9  C9  UNL     1      19.602   2.563  50.375  1.00  0.00     0.147 C 
HETATM   10  C10 UNL     1      22.291   4.790  50.322  1.00  0.00     0.063 C 
HETATM   11  C11 UNL     1      22.295   4.228  48.916  1.00  0.00     0.013 C 
HETATM   12  C12 UNL     1      23.124   5.106  47.995  1.00  0.00     0.005 C 
HETATM   13  C13 UNL     1      24.050   6.011  48.781  1.00  0.00     0.029 C 
HETATM   14  C14 UNL     1      24.548   5.321  50.022  1.00  0.00    -0.002 C 
HETATM   15  C15 UNL     1      23.660   4.684  50.829  1.00  0.00     0.008 C 
HETATM   16  N2  UNL     1      24.313   4.069  51.945  1.00  0.00    -0.384 N 
HETATM   17  C16 UNL     1      23.887   2.717  52.426  1.00  0.00     0.114 C 
HETATM   18  H18 UNL     1      25.062   4.658  52.330  1.00  0.00     0.160 HD
ENDROOT
BRANCH  17  19
HETATM   19  C17 UNL     1      24.700   1.733  51.650  1.00  0.00     0.040 C 
BRANCH  19  20
HETATM   20  C18 UNL     1      25.956   1.227  52.252  1.00  0.00     0.112 C 
BRANCH  20  21
HETATM   21  C19 UNL     1      27.098   2.207  52.011  1.00  0.00     0.139 C 
HETATM   22  O2  UNL     1      28.167   2.170  52.661  1.00  0.00    -0.650 OA
BRANCH  21  23
HETATM   23  O3  UNL     1      27.244   3.268  51.126  1.00  0.00    -0.776 OA
HETATM   24  H24 UNL     1      27.601   4.170  51.473  1.00  0.00     0.167 HD
ENDBRANCH  21  23
ENDBRANCH  20  21
ENDBRANCH  19  20
ENDBRANCH  17  19
BRANCH   1  25
HETATM   25  O1  UNL     1      18.187   0.300  50.139  1.00  0.00    -0.355 OA
HETATM   26  C1  UNL     1      16.784   0.401  50.091  1.00  0.00     0.210 C 
ENDBRANCH   1  25
TORSDOF 5
ENDMDL
MODEL 9
REMARK VINA RESULT:      -7.2      4.045      6.364
REMARK  5 active torsions:
REMARK  status: ('A' for Active; 'I' for Inactive)
REMARK    1  A    between atoms: O1_2  and  C2_3 
REMARK    2  A    between atoms: C16_19  and  C17_20 
REMARK    3  A    between atoms: C17_20  and  C18_21 
REMARK    4  A    between atoms: C18_21  and  C19_22 
REMARK    5  A    between atoms: C19_22  and  O3_24 
ROOT
HETATM    1  C2  UNL     1      17.638   3.094  51.294  1.00  0.00     0.082 C 
HETATM    2  C3  UNL     1      18.154   4.111  50.657  1.00  0.00     0.021 C 
HETATM    3  C4  UNL     1      19.562   3.850  50.263  1.00  0.00     0.045 C 
HETATM    4  C5  UNL     1      20.821   3.391  50.022  1.00  0.00    -0.008 C 
HETATM    5  C6  UNL     1      21.557   2.179  50.356  1.00  0.00    -0.040 C 
HETATM    6  C7  UNL     1      20.657   1.216  50.245  1.00  0.00     0.010 C 
HETATM    7  C8  UNL     1      20.200   0.365  51.369  1.00  0.00     0.141 C 
HETATM    8  N1  UNL     1      18.888   0.770  51.798  1.00  0.00    -0.289 NA
HETATM    9  C9  UNL     1      18.281   1.843  51.579  1.00  0.00     0.147 C 
HETATM   10  C10 UNL     1      21.142   0.018  52.405  1.00  0.00     0.063 C 
HETATM   11  C11 UNL     1      20.698   0.569  53.744  1.00  0.00     0.013 C 
HETATM   12  C12 UNL     1      21.369  -0.186  54.878  1.00  0.00     0.005 C 
HETATM   13  C13 UNL     1      22.583  -0.948  54.391  1.00  0.00     0.029 C 
HETATM   14  C14 UNL     1      23.291  -0.190  53.302  1.00  0.00    -0.002 C 
HETATM   15  C15 UNL     1      22.567   0.318  52.269  1.00  0.00     0.008 C 
HETATM   16  N2  UNL     1      23.400   1.023  51.343  1.00  0.00    -0.384 N 
HETATM   17  C16 UNL     1      22.934   2.304  50.722  1.00  0.00     0.114 C 
HETATM   18  H18 UNL     1      24.298   0.548  51.187  1.00  0.00     0.160 HD
ENDROOT
BRANCH  17  19
HETATM   19  C17 UNL     1      23.371   3.390  51.650  1.00  0.00     0.040 C 
BRANCH  19  20
HETATM   20  C18 UNL     1      24.284   4.436  51.131  1.00  0.00     0.112 C 
BRANCH  20  21
HETATM   21  C19 UNL     1      23.768   5.823  51.492  1.00  0.00     0.139 C 
HETATM   22  O2  UNL     1      22.672   6.265  51.080  1.00  0.00    -0.650 OA
BRANCH  21  23
HETATM   23  O3  UNL     1      24.302   6.842  52.272  1.00  0.00    -0.776 OA
HETATM   24  H24 UNL     1      25.323   6.895  52.404  1.00  0.00     0.167 HD
ENDBRANCH  21  23
ENDBRANCH  20  21
ENDBRANCH  19  20
ENDBRANCH  17  19
BRANCH   1  25
HETATM   25  O1  UNL     1      16.558   3.883  51.361  1.00  0.00    -0.355 OA
HETATM   26  C1  UNL     1      15.675   4.090  52.438  1.00  0.00     0.210 C 
ENDBRANCH   1  25
TORSDOF 5
ENDMDL
