MODEL 1
REMARK VINA RESULT:      -7.4      0.000      0.000
REMARK  7 active torsions:
REMARK  status: ('A' for Active; 'I' for Inactive)
REMARK    1  A    between atoms: O1_2  and  C2_3 
REMARK    2  A    between atoms: C3_5  and  N2_6 
REMARK    3  A    between atoms: N2_6  and  C4_7 
REMARK    4  A    between atoms: C4_7  and  C5_8 
REMARK    5  A    between atoms: C5_8  and  N3_9 
REMARK    6  A    between atoms: C10_16  and  N5_17 
REMARK    7  A    between atoms: N5_17  and  C11_18 
ROOT
HETATM    1  C2  UNL     1      21.296   1.628  52.480  1.00  0.00     0.302 A 
HETATM    2  N1  UNL     1      21.783   2.870  52.330  1.00  0.00    -0.018 NA
HETATM    3  C3  UNL     1      23.059   3.161  52.600  1.00  0.00     0.742 A 
HETATM    4  N4  UNL     1      23.828   2.152  53.026  1.00  0.00     0.130 NA
HETATM    5  C10 UNL     1      23.434   0.888  53.204  1.00  0.00     0.746 A 
HETATM    6  N6  UNL     1      22.137   0.698  52.907  1.00  0.00    -0.017 NA
ENDROOT
BRANCH   3   7
HETATM    7  N2  UNL     1      23.803   4.347  52.531  1.00  0.00    -0.220 N 
HETATM    8  H4  UNL     1      24.512   4.226  53.310  1.00  0.00     0.177 HD
BRANCH   7   9
HETATM    9  C4  UNL     1      23.654   5.465  51.633  1.00  0.00     0.157 C 
BRANCH   9  10
HETATM   10  C5  UNL     1      23.555   5.117  50.191  1.00  0.00     0.137 C 
BRANCH  10  11
HETATM   11  N3  UNL     1      24.769   4.851  49.504  1.00  0.00    -0.407 N 
HETATM   12  C6  UNL     1      25.842   5.762  49.698  1.00  0.00     0.143 C 
HETATM   13  C7  UNL     1      26.964   5.397  48.744  1.00  0.00     0.187 C 
HETATM   14  O2  UNL     1      27.413   4.098  48.949  1.00  0.00    -0.388 OA
HETATM   15  C8  UNL     1      26.647   3.362  49.828  1.00  0.00     0.187 C 
HETATM   16  C9  UNL     1      25.174   3.469  49.466  1.00  0.00     0.143 C 
ENDBRANCH  10  11
ENDBRANCH   9  10
ENDBRANCH   7   9
ENDBRANCH   3   7
BRANCH   1  17
HETATM   17  O1  UNL     1      19.961   1.432  52.174  1.00  0.00    -0.323 OA
HETATM   18  C1  UNL     1      19.328   0.191  52.160  1.00  0.00     0.213 C 
ENDBRANCH   1  17
BRANCH   5  19
HETATM   19  N5  UNL     1      24.203  -0.211  53.652  1.00  0.00    -0.188 N 
HETATM   20  H17 UNL     1      23.681  -1.039  54.040  1.00  0.00     0.184 HD
BRANCH  19  21
HETATM   21  C11 UNL     1      25.609  -0.333  53.641  1.00  0.00     0.049 A 
HETATM   22  C12 UNL     1      26.351  -1.080  52.754  1.00  0.00     0.030 A 
HETATM   23  C13 UNL     1      27.722  -1.205  52.735  1.00  0.00     0.009 A 
HETATM   24  C14 UNL     1      28.443  -0.522  53.691  1.00  0.00    -0.062 A 
HETATM   25  C15 UNL     1      29.924  -0.633  53.701  1.00  0.00     0.048 C 
HETATM   26  C16 UNL     1      27.759   0.245  54.610  1.00  0.00     0.009 A 
HETATM   27  C17 UNL     1      26.386   0.325  54.570  1.00  0.00     0.030 A 
ENDBRANCH  19  21
ENDBRANCH   5  19
TORSDOF 7
ENDMDL
MODEL 2
REMARK VINA RESULT:      -7.3      2.298      5.745
REMARK  7 active torsions:
REMARK  status: ('A' for Active; 'I' for Inactive)
REMARK    1  A    between atoms: O1_2  and  C2_3 
REMARK    2  A    between atoms: C3_5  and  N2_6 
REMARK    3  A    between atoms: N2_6  and  C4_7 
REMARK    4  A    between atoms: C4_7  and  C5_8 
REMARK    5  A    between atoms: C5_8  and  N3_9 
REMARK    6  A    between atoms: C10_16  and  N5_17 
REMARK    7  A    between atoms: N5_17  and  C11_18 
ROOT
HETATM    1  C2  UNL     1      27.435  -0.566  53.527  1.00  0.00     0.302 A 
HETATM    2  N1  UNL     1      27.598   0.603  52.888  1.00  0.00    -0.018 NA
HETATM    3  C3  UNL     1      26.568   1.416  52.637  1.00  0.00     0.742 A 
HETATM    4  N4  UNL     1      25.364   1.008  53.057  1.00  0.00     0.130 NA
HETATM    5  C10 UNL     1      25.106  -0.135  53.700  1.00  0.00     0.746 A 
HETATM    6  N6  UNL     1      26.204  -0.881  53.903  1.00  0.00    -0.017 NA
ENDROOT
BRANCH   3   7
HETATM    7  N2  UNL     1      26.467   2.661  52.002  1.00  0.00    -0.220 N 
HETATM    8  H4  UNL     1      26.406   3.338  52.816  1.00  0.00     0.177 HD
BRANCH   7   9
HETATM    9  C4  UNL     1      26.449   2.966  50.593  1.00  0.00     0.157 C 
BRANCH   9  10
HETATM   10  C5  UNL     1      25.737   4.217  50.219  1.00  0.00     0.137 C 
BRANCH  10  11
HETATM   11  N3  UNL     1      24.319   4.189  50.255  1.00  0.00    -0.407 N 
HETATM   12  C6  UNL     1      23.676   3.002  49.812  1.00  0.00     0.143 C 
HETATM   13  C7  UNL     1      22.180   3.251  49.761  1.00  0.00     0.187 C 
HETATM   14  O2  UNL     1      21.677   3.615  51.004  1.00  0.00    -0.388 OA
HETATM   15  C8  UNL     1      22.639   3.850  51.963  1.00  0.00     0.187 C 
HETATM   16  C9  UNL     1      23.712   4.781  51.421  1.00  0.00     0.143 C 
ENDBRANCH  10  11
ENDBRANCH   9  10
ENDBRANCH   7   9
ENDBRANCH   3   7
BRANCH   1  17
HETATM   17  O1  UNL     1      28.566  -1.334  53.736  1.00  0.00    -0.323 OA
HETATM   18  C1  UNL     1      29.872  -0.882  53.562  1.00  0.00     0.213 C 
ENDBRANCH   1  17
BRANCH   5  19
HETATM   19  N5  UNL     1      23.857  -0.612  54.162  1.00  0.00    -0.188 N 
HETATM   20  H17 UNL     1      23.854  -1.167  55.056  1.00  0.00     0.184 HD
BRANCH  19  21
HETATM   21  C11 UNL     1      22.595  -0.431  53.558  1.00  0.00     0.049 A 
HETATM   22  C12 UNL     1      22.365   0.059  52.292  1.00  0.00     0.030 A 
HETATM   23  C13 UNL     1      21.139   0.240  51.693  1.00  0.00     0.009 A 
HETATM   24  C14 UNL     1      20.015  -0.098  52.417  1.00  0.00    -0.062 A 
HETATM   25  C15 UNL     1      18.674   0.083  51.803  1.00  0.00     0.048 C 
HETATM   26  C16 UNL     1      20.176  -0.595  53.692  1.00  0.00     0.009 A 
HETATM   27  C17 UNL     1      21.433  -0.750  54.229  1.00  0.00     0.030 A 
ENDBRANCH  19  21
ENDBRANCH   5  19
TORSDOF 7
ENDMDL
MODEL 3
REMARK VINA RESULT:      -7.2      2.470      7.247
REMARK  7 active torsions:
REMARK  status: ('A' for Active; 'I' for Inactive)
REMARK    1  A    between atoms: O1_2  and  C2_3 
REMARK    2  A    between atoms: C3_5  and  N2_6 
REMARK    3  A    between atoms: N2_6  and  C4_7 
REMARK    4  A    between atoms: C4_7  and  C5_8 
REMARK    5  A    between atoms: C5_8  and  N3_9 
REMARK    6  A    between atoms: C10_16  and  N5_17 
REMARK    7  A    between atoms: N5_17  and  C11_18 
ROOT
HETATM    1  C2  UNL     1      26.856   2.095  52.808  1.00  0.00     0.302 A 
HETATM    2  N1  UNL     1      25.588   2.255  53.216  1.00  0.00    -0.018 NA
HETATM    3  C3  UNL     1      24.651   2.769  52.412  1.00  0.00     0.742 A 
HETATM    4  N4  UNL     1      25.041   3.114  51.180  1.00  0.00     0.130 NA
HETATM    5  C10 UNL     1      26.277   2.990  50.686  1.00  0.00     0.746 A 
HETATM    6  N6  UNL     1      27.143   2.467  51.569  1.00  0.00    -0.017 NA
ENDROOT
BRANCH   3   7
HETATM    7  N2  UNL     1      23.287   3.037  52.587  1.00  0.00    -0.220 N 
HETATM    8  H4  UNL     1      23.288   3.781  53.344  1.00  0.00     0.177 HD
BRANCH   7   9
HETATM    9  C4  UNL     1      22.151   2.458  51.916  1.00  0.00     0.157 C 
BRANCH   9  10
HETATM   10  C5  UNL     1      22.282   1.019  51.564  1.00  0.00     0.137 C 
BRANCH  10  11
HETATM   11  N3  UNL     1      21.873   0.074  52.541  1.00  0.00    -0.407 N 
HETATM   12  C6  UNL     1      22.887  -0.526  53.335  1.00  0.00     0.143 C 
HETATM   13  C7  UNL     1      22.259  -1.623  54.174  1.00  0.00     0.187 C 
HETATM   14  O2  UNL     1      21.255  -1.129  54.998  1.00  0.00    -0.388 OA
HETATM   15  C8  UNL     1      20.915   0.185  54.759  1.00  0.00     0.187 C 
HETATM   16  C9  UNL     1      20.679   0.411  53.274  1.00  0.00     0.143 C 
ENDBRANCH  10  11
ENDBRANCH   9  10
ENDBRANCH   7   9
ENDBRANCH   3   7
BRANCH   1  17
HETATM   17  O1  UNL     1      27.748   1.555  53.717  1.00  0.00    -0.323 OA
HETATM   18  C1  UNL     1      29.017   2.068  53.979  1.00  0.00     0.213 C 
ENDBRANCH   1  17
BRANCH   5  19
HETATM   19  N5  UNL     1      26.740   3.340  49.396  1.00  0.00    -0.188 N 
HETATM   20  H17 UNL     1      26.886   2.557  48.708  1.00  0.00     0.184 HD
BRANCH  19  21
HETATM   21  C11 UNL     1      27.034   4.633  48.913  1.00  0.00     0.049 A 
HETATM   22  C12 UNL     1      28.264   5.076  48.481  1.00  0.00     0.030 A 
HETATM   23  C13 UNL     1      28.561   6.335  48.009  1.00  0.00     0.009 A 
HETATM   24  C14 UNL     1      27.539   7.259  47.956  1.00  0.00    -0.062 A 
HETATM   25  C15 UNL     1      27.824   8.627  47.452  1.00  0.00     0.048 C 
HETATM   26  C16 UNL     1      26.283   6.878  48.375  1.00  0.00     0.009 A 
HETATM   27  C17 UNL     1      26.056   5.602  48.836  1.00  0.00     0.030 A 
ENDBRANCH  19  21
ENDBRANCH   5  19
TORSDOF 7
ENDMDL
MODEL 4
REMARK VINA RESULT:      -7.1      1.809      5.276
REMARK  7 active torsions:
REMARK  status: ('A' for Active; 'I' for Inactive)
REMARK    1  A    between atoms: O1_2  and  C2_3 
REMARK    2  A    between atoms: C3_5  and  N2_6 
REMARK    3  A    between atoms: N2_6  and  C4_7 
REMARK    4  A    between atoms: C4_7  and  C5_8 
REMARK    5  A    between atoms: C5_8  and  N3_9 
REMARK    6  A    between atoms: C10_16  and  N5_17 
REMARK    7  A    between atoms: N5_17  and  C11_18 
ROOT
HETATM    1  C2  UNL     1      24.671   3.810  50.259  1.00  0.00     0.302 A 
HETATM    2  N1  UNL     1      23.337   3.677  50.331  1.00  0.00    -0.018 NA
HETATM    3  C3  UNL     1      22.735   3.218  51.432  1.00  0.00     0.742 A 
HETATM    4  N4  UNL     1      23.528   2.898  52.461  1.00  0.00     0.130 NA
HETATM    5  C10 UNL     1      24.860   2.998  52.483  1.00  0.00     0.746 A 
HETATM    6  N6  UNL     1      25.369   3.467  51.332  1.00  0.00    -0.017 NA
ENDROOT
BRANCH   3   7
HETATM    7  N2  UNL     1      21.392   2.987  51.759  1.00  0.00    -0.220 N 
HETATM    8  H4  UNL     1      21.169   3.788  52.417  1.00  0.00     0.177 HD
BRANCH   7   9
HETATM    9  C4  UNL     1      20.516   1.930  51.321  1.00  0.00     0.157 C 
BRANCH   9  10
HETATM   10  C5  UNL     1      21.143   0.586  51.209  1.00  0.00     0.137 C 
BRANCH  10  11
HETATM   11  N3  UNL     1      21.201  -0.202  52.388  1.00  0.00    -0.407 N 
HETATM   12  C6  UNL     1      22.485  -0.455  52.943  1.00  0.00     0.143 C 
HETATM   13  C7  UNL     1      22.333  -1.453  54.075  1.00  0.00     0.187 C 
HETATM   14  O2  UNL     1      21.483  -0.981  55.068  1.00  0.00    -0.388 OA
HETATM   15  C8  UNL     1      20.822   0.185  54.745  1.00  0.00     0.187 C 
HETATM   16  C9  UNL     1      20.183   0.070  53.371  1.00  0.00     0.143 C 
ENDBRANCH  10  11
ENDBRANCH   9  10
ENDBRANCH   7   9
ENDBRANCH   3   7
BRANCH   1  17
HETATM   17  O1  UNL     1      25.195   4.294  49.074  1.00  0.00    -0.323 OA
HETATM   18  C1  UNL     1      26.196   5.260  48.989  1.00  0.00     0.213 C 
ENDBRANCH   1  17
BRANCH   5  19
HETATM   19  N5  UNL     1      25.742   2.674  53.541  1.00  0.00    -0.188 N 
HETATM   20  H17 UNL     1      25.649   3.225  54.432  1.00  0.00     0.184 HD
BRANCH  19  21
HETATM   21  C11 UNL     1      26.747   1.684  53.544  1.00  0.00     0.049 A 
HETATM   22  C12 UNL     1      26.556   0.334  53.350  1.00  0.00     0.030 A 
HETATM   23  C13 UNL     1      27.530  -0.640  53.351  1.00  0.00     0.009 A 
HETATM   24  C14 UNL     1      28.833  -0.244  53.565  1.00  0.00    -0.062 A 
HETATM   25  C15 UNL     1      29.910  -1.267  53.573  1.00  0.00     0.048 C 
HETATM   26  C16 UNL     1      29.092   1.094  53.766  1.00  0.00     0.009 A 
HETATM   27  C17 UNL     1      28.070   2.014  53.752  1.00  0.00     0.030 A 
ENDBRANCH  19  21
ENDBRANCH   5  19
TORSDOF 7
ENDMDL
MODEL 5
REMARK VINA RESULT:      -7.1      2.752      5.630
REMARK  7 active torsions:
REMARK  status: ('A' for Active; 'I' for Inactive)
REMARK    1  A    between atoms: O1_2  and  C2_3 
REMARK    2  A    between atoms: C3_5  and  N2_6 
REMARK    3  A    between atoms: N2_6  and  C4_7 
REMARK    4  A    between atoms: C4_7  and  C5_8 
REMARK    5  A    between atoms: C5_8  and  N3_9 
REMARK    6  A    between atoms: C10_16  and  N5_17 
REMARK    7  A    between atoms: N5_17  and  C11_18 
ROOT
HETATM    1  C2  UNL     1      28.642   0.126  53.571  1.00  0.00     0.302 A 
HETATM    2  N1  UNL     1      28.452   1.258  52.877  1.00  0.00    -0.018 NA
HETATM    3  C3  UNL     1      27.232   1.767  52.681  1.00  0.00     0.742 A 
HETATM    4  N4  UNL     1      26.207   1.091  53.213  1.00  0.00     0.130 NA
HETATM    5  C10 UNL     1      26.298  -0.040  53.919  1.00  0.00     0.746 A 
HETATM    6  N6  UNL     1      27.563  -0.470  54.059  1.00  0.00    -0.017 NA
ENDROOT
BRANCH   3   7
HETATM    7  N2  UNL     1      26.769   2.906  52.008  1.00  0.00    -0.220 N 
HETATM    8  H4  UNL     1      27.353   3.683  52.433  1.00  0.00     0.177 HD
BRANCH   7   9
HETATM    9  C4  UNL     1      25.754   3.014  50.991  1.00  0.00     0.157 C 
BRANCH   9  10
HETATM   10  C5  UNL     1      24.412   3.439  51.470  1.00  0.00     0.137 C 
BRANCH  10  11
HETATM   11  N3  UNL     1      23.889   4.647  50.941  1.00  0.00    -0.407 N 
HETATM   12  C6  UNL     1      22.879   5.307  51.693  1.00  0.00     0.143 C 
HETATM   13  C7  UNL     1      22.339   6.461  50.869  1.00  0.00     0.187 C 
HETATM   14  O2  UNL     1      23.338   7.368  50.537  1.00  0.00    -0.388 OA
HETATM   15  C8  UNL     1      24.613   6.953  50.854  1.00  0.00     0.187 C 
HETATM   16  C9  UNL     1      24.853   5.539  50.350  1.00  0.00     0.143 C 
ENDBRANCH  10  11
ENDBRANCH   9  10
ENDBRANCH   7   9
ENDBRANCH   3   7
BRANCH   1  17
HETATM   17  O1  UNL     1      29.944  -0.316  53.716  1.00  0.00    -0.323 OA
HETATM   18  C1  UNL     1      30.316  -1.654  53.834  1.00  0.00     0.213 C 
ENDBRANCH   1  17
BRANCH   5  19
HETATM   19  N5  UNL     1      25.250  -0.792  54.501  1.00  0.00    -0.188 N 
HETATM   20  H17 UNL     1      25.511  -1.485  55.248  1.00  0.00     0.184 HD
BRANCH  19  21
HETATM   21  C11 UNL     1      23.875  -0.723  54.193  1.00  0.00     0.049 A 
HETATM   22  C12 UNL     1      23.327  -0.211  53.038  1.00  0.00     0.030 A 
HETATM   23  C13 UNL     1      21.988  -0.140  52.728  1.00  0.00     0.009 A 
HETATM   24  C14 UNL     1      21.088  -0.623  53.654  1.00  0.00    -0.062 A 
HETATM   25  C15 UNL     1      19.634  -0.562  53.354  1.00  0.00     0.048 C 
HETATM   26  C16 UNL     1      21.572  -1.149  54.833  1.00  0.00     0.009 A 
HETATM   27  C17 UNL     1      22.924  -1.190  55.077  1.00  0.00     0.030 A 
ENDBRANCH  19  21
ENDBRANCH   5  19
TORSDOF 7
ENDMDL
MODEL 6
REMARK VINA RESULT:      -7.0      2.298      7.037
REMARK  7 active torsions:
REMARK  status: ('A' for Active; 'I' for Inactive)
REMARK    1  A    between atoms: O1_2  and  C2_3 
REMARK    2  A    between atoms: C3_5  and  N2_6 
REMARK    3  A    between atoms: N2_6  and  C4_7 
REMARK    4  A    between atoms: C4_7  and  C5_8 
REMARK    5  A    between atoms: C5_8  and  N3_9 
REMARK    6  A    between atoms: C10_16  and  N5_17 
REMARK    7  A    between atoms: N5_17  and  C11_18 
ROOT
HETATM    1  C2  UNL     1      27.491   2.234  53.156  1.00  0.00     0.302 A 
HETATM    2  N1  UNL     1      26.369   1.719  53.683  1.00  0.00    -0.018 NA
HETATM    3  C3  UNL     1      25.261   1.555  52.953  1.00  0.00     0.742 A 
HETATM    4  N4  UNL     1      25.326   1.927  51.670  1.00  0.00     0.130 NA
HETATM    5  C10 UNL     1      26.395   2.446  51.059  1.00  0.00     0.746 A 
HETATM    6  N6  UNL     1      27.455   2.573  51.875  1.00  0.00    -0.017 NA
ENDROOT
BRANCH   3   7
HETATM    7  N2  UNL     1      23.987   1.054  53.253  1.00  0.00    -0.220 N 
HETATM    8  H4  UNL     1      23.448   1.927  53.520  1.00  0.00     0.177 HD
BRANCH   7   9
HETATM    9  C4  UNL     1      23.511  -0.306  53.216  1.00  0.00     0.157 C 
BRANCH   9  10
HETATM   10  C5  UNL     1      22.085  -0.473  52.826  1.00  0.00     0.137 C 
BRANCH  10  11
HETATM   11  N3  UNL     1      21.466   0.614  52.156  1.00  0.00    -0.407 N 
HETATM   12  C6  UNL     1      21.404   0.557  50.737  1.00  0.00     0.143 C 
HETATM   13  C7  UNL     1      20.877   1.883  50.223  1.00  0.00     0.187 C 
HETATM   14  O2  UNL     1      19.615   2.168  50.732  1.00  0.00    -0.388 OA
HETATM   15  C8  UNL     1      19.190   1.303  51.718  1.00  0.00     0.187 C 
HETATM   16  C9  UNL     1      20.270   1.127  52.773  1.00  0.00     0.143 C 
ENDBRANCH  10  11
ENDBRANCH   9  10
ENDBRANCH   7   9
ENDBRANCH   3   7
BRANCH   1  17
HETATM   17  O1  UNL     1      28.582   2.364  53.995  1.00  0.00    -0.323 OA
HETATM   18  C1  UNL     1      29.303   1.295  54.525  1.00  0.00     0.213 C 
ENDBRANCH   1  17
BRANCH   5  19
HETATM   19  N5  UNL     1      26.516   2.856  49.710  1.00  0.00    -0.188 N 
HETATM   20  H17 UNL     1      26.545   2.101  48.977  1.00  0.00     0.184 HD
BRANCH  19  21
HETATM   21  C11 UNL     1      26.604   4.177  49.222  1.00  0.00     0.049 A 
HETATM   22  C12 UNL     1      27.728   4.774  48.698  1.00  0.00     0.030 A 
HETATM   23  C13 UNL     1      27.824   6.062  48.219  1.00  0.00     0.009 A 
HETATM   24  C14 UNL     1      26.693   6.849  48.261  1.00  0.00    -0.062 A 
HETATM   25  C15 UNL     1      26.759   8.243  47.753  1.00  0.00     0.048 C 
HETATM   26  C16 UNL     1      25.533   6.310  48.775  1.00  0.00     0.009 A 
HETATM   27  C17 UNL     1      25.508   5.014  49.236  1.00  0.00     0.030 A 
ENDBRANCH  19  21
ENDBRANCH   5  19
TORSDOF 7
ENDMDL
MODEL 7
REMARK VINA RESULT:      -6.8      1.416      2.019
REMARK  7 active torsions:
REMARK  status: ('A' for Active; 'I' for Inactive)
REMARK    1  A    between atoms: O1_2  and  C2_3 
REMARK    2  A    between atoms: C3_5  and  N2_6 
REMARK    3  A    between atoms: N2_6  and  C4_7 
REMARK    4  A    between atoms: C4_7  and  C5_8 
REMARK    5  A    between atoms: C5_8  and  N3_9 
REMARK    6  A    between atoms: C10_16  and  N5_17 
REMARK    7  A    between atoms: N5_17  and  C11_18 
ROOT
HETATM    1  C2  UNL     1      21.212   0.225  52.258  1.00  0.00     0.302 A 
HETATM    2  N1  UNL     1      21.577   1.150  51.358  1.00  0.00    -0.018 NA
HETATM    3  C3  UNL     1      22.838   1.585  51.269  1.00  0.00     0.742 A 
HETATM    4  N4  UNL     1      23.719   1.050  52.122  1.00  0.00     0.130 NA
HETATM    5  C10 UNL     1      23.449   0.125  53.049  1.00  0.00     0.746 A 
HETATM    6  N6  UNL     1      22.158  -0.244  53.059  1.00  0.00    -0.017 NA
ENDROOT
BRANCH   3   7
HETATM    7  N2  UNL     1      23.468   2.522  50.439  1.00  0.00    -0.220 N 
HETATM    8  H4  UNL     1      24.467   2.167  50.399  1.00  0.00     0.177 HD
BRANCH   7   9
HETATM    9  C4  UNL     1      22.914   3.685  49.793  1.00  0.00     0.157 C 
BRANCH   9  10
HETATM   10  C5  UNL     1      23.207   4.984  50.454  1.00  0.00     0.137 C 
BRANCH  10  11
HETATM   11  N3  UNL     1      24.500   5.535  50.255  1.00  0.00    -0.407 N 
HETATM   12  C6  UNL     1      25.110   5.329  48.988  1.00  0.00     0.143 C 
HETATM   13  C7  UNL     1      26.539   5.833  49.052  1.00  0.00     0.187 C 
HETATM   14  O2  UNL     1      26.595   7.183  49.381  1.00  0.00    -0.388 OA
HETATM   15  C8  UNL     1      25.386   7.729  49.754  1.00  0.00     0.187 C 
HETATM   16  C9  UNL     1      24.706   6.854  50.795  1.00  0.00     0.143 C 
ENDBRANCH  10  11
ENDBRANCH   9  10
ENDBRANCH   7   9
ENDBRANCH   3   7
BRANCH   1  17
HETATM   17  O1  UNL     1      19.882  -0.156  52.268  1.00  0.00    -0.323 OA
HETATM   18  C1  UNL     1      18.910   0.347  51.406  1.00  0.00     0.213 C 
ENDBRANCH   1  17
BRANCH   5  19
HETATM   19  N5  UNL     1      24.340  -0.470  53.972  1.00  0.00    -0.188 N 
HETATM   20  H17 UNL     1      23.918  -0.962  54.801  1.00  0.00     0.184 HD
BRANCH  19  21
HETATM   21  C11 UNL     1      25.750  -0.483  53.915  1.00  0.00     0.049 A 
HETATM   22  C12 UNL     1      26.602   0.182  54.768  1.00  0.00     0.030 A 
HETATM   23  C13 UNL     1      27.978   0.176  54.720  1.00  0.00     0.009 A 
HETATM   24  C14 UNL     1      28.583  -0.564  53.726  1.00  0.00    -0.062 A 
HETATM   25  C15 UNL     1      30.066  -0.593  53.644  1.00  0.00     0.048 C 
HETATM   26  C16 UNL     1      27.786  -1.253  52.838  1.00  0.00     0.009 A 
HETATM   27  C17 UNL     1      26.415  -1.203  52.945  1.00  0.00     0.030 A 
ENDBRANCH  19  21
ENDBRANCH   5  19
TORSDOF 7
ENDMDL
MODEL 8
REMARK VINA RESULT:      -6.8      2.296      6.533
REMARK  7 active torsions:
REMARK  status: ('A' for Active; 'I' for Inactive)
REMARK    1  A    between atoms: O1_2  and  C2_3 
REMARK    2  A    between atoms: C3_5  and  N2_6 
REMARK    3  A    between atoms: N2_6  and  C4_7 
REMARK    4  A    between atoms: C4_7  and  C5_8 
REMARK    5  A    between atoms: C5_8  and  N3_9 
REMARK    6  A    between atoms: C10_16  and  N5_17 
REMARK    7  A    between atoms: N5_17  and  C11_18 
ROOT
HETATM    1  C2  UNL     1      27.472   2.123  52.554  1.00  0.00     0.302 A 
HETATM    2  N1  UNL     1      26.454   1.481  53.147  1.00  0.00    -0.018 NA
HETATM    3  C3  UNL     1      25.236   1.436  52.597  1.00  0.00     0.742 A 
HETATM    4  N4  UNL     1      25.083   2.062  51.425  1.00  0.00     0.130 NA
HETATM    5  C10 UNL     1      26.035   2.724  50.760  1.00  0.00     0.746 A 
HETATM    6  N6  UNL     1      27.220   2.712  51.394  1.00  0.00    -0.017 NA
ENDROOT
BRANCH   3   7
HETATM    7  N2  UNL     1      24.029   0.850  53.000  1.00  0.00    -0.220 N 
HETATM    8  H4  UNL     1      24.250   0.504  53.978  1.00  0.00     0.177 HD
BRANCH   7   9
HETATM    9  C4  UNL     1      22.787   0.734  52.279  1.00  0.00     0.157 C 
BRANCH   9  10
HETATM   10  C5  UNL     1      21.713   1.673  52.701  1.00  0.00     0.137 C 
BRANCH  10  11
HETATM   11  N3  UNL     1      21.404   2.741  51.819  1.00  0.00    -0.407 N 
HETATM   12  C6  UNL     1      21.859   4.038  52.179  1.00  0.00     0.143 C 
HETATM   13  C7  UNL     1      21.270   5.044  51.208  1.00  0.00     0.187 C 
HETATM   14  O2  UNL     1      21.639   4.770  49.896  1.00  0.00    -0.388 OA
HETATM   15  C8  UNL     1      22.292   3.568  49.727  1.00  0.00     0.187 C 
HETATM   16  C9  UNL     1      21.529   2.447  50.414  1.00  0.00     0.143 C 
ENDBRANCH  10  11
ENDBRANCH   9  10
ENDBRANCH   7   9
ENDBRANCH   3   7
BRANCH   1  17
HETATM   17  O1  UNL     1      28.692   2.111  53.205  1.00  0.00    -0.323 OA
HETATM   18  C1  UNL     1      29.156   1.060  53.994  1.00  0.00     0.213 C 
ENDBRANCH   1  17
BRANCH   5  19
HETATM   19  N5  UNL     1      25.925   3.400  49.523  1.00  0.00    -0.188 N 
HETATM   20  H17 UNL     1      25.357   2.937  48.768  1.00  0.00     0.184 HD
BRANCH  19  21
HETATM   21  C11 UNL     1      26.497   4.643  49.174  1.00  0.00     0.049 A 
HETATM   22  C12 UNL     1      25.907   5.878  49.326  1.00  0.00     0.030 A 
HETATM   23  C13 UNL     1      26.455   7.094  48.988  1.00  0.00     0.009 A 
HETATM   24  C14 UNL     1      27.721   7.099  48.442  1.00  0.00    -0.062 A 
HETATM   25  C15 UNL     1      28.345   8.394  48.066  1.00  0.00     0.048 C 
HETATM   26  C16 UNL     1      28.367   5.895  48.263  1.00  0.00     0.009 A 
HETATM   27  C17 UNL     1      27.759   4.715  48.624  1.00  0.00     0.030 A 
ENDBRANCH  19  21
ENDBRANCH   5  19
TORSDOF 7
ENDMDL
MODEL 9
REMARK VINA RESULT:      -6.8      2.537      6.892
REMARK  7 active torsions:
REMARK  status: ('A' for Active; 'I' for Inactive)
REMARK    1  A    between atoms: O1_2  and  C2_3 
REMARK    2  A    between atoms: C3_5  and  N2_6 
REMARK    3  A    between atoms: N2_6  and  C4_7 
REMARK    4  A    between atoms: C4_7  and  C5_8 
REMARK    5  A    between atoms: C5_8  and  N3_9 
REMARK    6  A    between atoms: C10_16  and  N5_17 
REMARK    7  A    between atoms: N5_17  and  C11_18 
ROOT
HETATM    1  C2  UNL     1      26.289   4.410  49.371  1.00  0.00     0.302 A 
HETATM    2  N1  UNL     1      27.033   3.693  50.227  1.00  0.00    -0.018 NA
HETATM    3  C3  UNL     1      26.489   2.773  51.031  1.00  0.00     0.742 A 
HETATM    4  N4  UNL     1      25.165   2.603  50.939  1.00  0.00     0.130 NA
HETATM    5  C10 UNL     1      24.345   3.267  50.119  1.00  0.00     0.746 A 
HETATM    6  N6  UNL     1      24.986   4.167  49.355  1.00  0.00    -0.017 NA
ENDROOT
BRANCH   3   7
HETATM    7  N2  UNL     1      27.028   1.909  51.994  1.00  0.00    -0.220 N 
HETATM    8  H4  UNL     1      27.676   1.294  51.422  1.00  0.00     0.177 HD
BRANCH   7   9
HETATM    9  C4  UNL     1      26.776   1.854  53.412  1.00  0.00     0.157 C 
BRANCH   9  10
HETATM   10  C5  UNL     1      26.404   0.516  53.943  1.00  0.00     0.137 C 
BRANCH  10  11
HETATM   11  N3  UNL     1      27.420  -0.475  53.969  1.00  0.00    -0.407 N 
HETATM   12  C6  UNL     1      27.516  -1.341  52.846  1.00  0.00     0.143 C 
HETATM   13  C7  UNL     1      28.531  -2.425  53.158  1.00  0.00     0.187 C 
HETATM   14  O2  UNL     1      29.783  -1.892  53.442  1.00  0.00    -0.388 OA
HETATM   15  C8  UNL     1      29.803  -0.518  53.563  1.00  0.00     0.187 C 
HETATM   16  C9  UNL     1      28.694  -0.050  54.490  1.00  0.00     0.143 C 
ENDBRANCH  10  11
ENDBRANCH   9  10
ENDBRANCH   7   9
ENDBRANCH   3   7
BRANCH   1  17
HETATM   17  O1  UNL     1      26.948   5.337  48.584  1.00  0.00    -0.323 OA
HETATM   18  C1  UNL     1      28.331   5.389  48.416  1.00  0.00     0.213 C 
ENDBRANCH   1  17
BRANCH   5  19
HETATM   19  N5  UNL     1      22.945   3.126  49.983  1.00  0.00    -0.188 N 
HETATM   20  H17 UNL     1      22.468   3.718  49.256  1.00  0.00     0.184 HD
BRANCH  19  21
HETATM   21  C11 UNL     1      22.096   2.272  50.720  1.00  0.00     0.049 A 
HETATM   22  C12 UNL     1      21.618   1.049  50.305  1.00  0.00     0.030 A 
HETATM   23  C13 UNL     1      20.789   0.210  51.016  1.00  0.00     0.009 A 
HETATM   24  C14 UNL     1      20.386   0.616  52.270  1.00  0.00    -0.062 A 
HETATM   25  C15 UNL     1      19.493  -0.264  53.066  1.00  0.00     0.048 C 
HETATM   26  C16 UNL     1      20.830   1.832  52.745  1.00  0.00     0.009 A 
HETATM   27  C17 UNL     1      21.657   2.621  51.980  1.00  0.00     0.030 A 
ENDBRANCH  19  21
ENDBRANCH   5  19
TORSDOF 7
ENDMDL
