MODEL 1
REMARK VINA RESULT:      -8.1      0.000      0.000
REMARK  1 active torsions:
REMARK  status: ('A' for Active; 'I' for Inactive)
REMARK    1  A    between atoms: C2_2  and  C3_3 
ROOT
HETATM    1  C3  UNL     1      22.657   2.675  52.397  1.00  0.00    -0.056 C 
HETATM    2  C4  UNL     1      23.919   2.465  52.476  1.00  0.00     0.020 C 
HETATM    3  C5  UNL     1      25.338   2.409  52.522  1.00  0.00     0.007 A 
HETATM    4  C6  UNL     1      25.743   2.302  53.856  1.00  0.00     0.131 A 
HETATM    5  N1  UNL     1      27.075   2.200  54.202  1.00  0.00    -0.253 NA
HETATM    6  C7  UNL     1      27.892   2.217  53.107  1.00  0.00     0.232 A 
HETATM    7  N2  UNL     1      27.507   2.321  51.811  1.00  0.00    -0.245 NA
HETATM    8  C8  UNL     1      26.217   2.420  51.470  1.00  0.00     0.051 A 
HETATM    9  C9  UNL     1      25.965   2.564  50.032  1.00  0.00     0.090 C 
HETATM   10  C10 UNL     1      26.702   3.776  49.494  1.00  0.00     0.023 C 
HETATM   11  C11 UNL     1      27.061   4.956  48.976  1.00  0.00     0.131 C 
HETATM   12  F1  UNL     1      28.075   5.798  48.594  1.00  0.00    -0.205 F 
HETATM   13  C12 UNL     1      25.907   5.798  48.700  1.00  0.00     0.054 A 
HETATM   14 CL1  UNL     1      25.708   7.411  48.047  1.00  0.00    -0.171 Cl
HETATM   15  C13 UNL     1      24.595   5.927  48.728  1.00  0.00     0.146 A 
HETATM   16  C14 UNL     1      23.141   6.288  48.671  1.00  0.00     0.297 C 
HETATM   17  N3  UNL     1      22.494   6.200  49.953  1.00  0.00     0.108 N 
HETATM   18  C15 UNL     1      22.316   4.843  50.405  1.00  0.00     0.437 C 
HETATM   19  O1  UNL     1      21.719   4.797  51.660  1.00  0.00    -0.358 OA
HETATM   20  C16 UNL     1      21.495   3.519  52.104  1.00  0.00     0.204 C 
HETATM   21  H15 UNL     1      21.649   6.768  50.035  1.00  0.00     0.318 HD
ENDROOT
BRANCH   1  22
HETATM   22  C2  UNL     1      22.103   1.340  52.723  1.00  0.00     0.032 C 
HETATM   23  C1  UNL     1      21.740   0.585  51.434  1.00  0.00     0.010 C 
ENDBRANCH   1  22
TORSDOF 1
ENDMDL
MODEL 2
REMARK VINA RESULT:      -7.9      4.067      7.075
REMARK  1 active torsions:
REMARK  status: ('A' for Active; 'I' for Inactive)
REMARK    1  A    between atoms: C2_2  and  C3_3 
ROOT
HETATM    1  C3  UNL     1      25.793   3.161  50.749  1.00  0.00    -0.056 C 
HETATM    2  C4  UNL     1      24.536   3.404  50.688  1.00  0.00     0.020 C 
HETATM    3  C5  UNL     1      23.135   3.616  50.793  1.00  0.00     0.007 A 
HETATM    4  C6  UNL     1      22.889   4.991  50.850  1.00  0.00     0.131 A 
HETATM    5  N1  UNL     1      21.606   5.494  50.926  1.00  0.00    -0.253 NA
HETATM    6  C7  UNL     1      20.666   4.503  50.936  1.00  0.00     0.232 A 
HETATM    7  N2  UNL     1      20.896   3.168  50.882  1.00  0.00    -0.245 NA
HETATM    8  C8  UNL     1      22.138   2.675  50.808  1.00  0.00     0.051 A 
HETATM    9  C9  UNL     1      22.224   1.210  50.796  1.00  0.00     0.090 C 
HETATM   10  C10 UNL     1      21.550   0.640  52.029  1.00  0.00     0.023 C 
HETATM   11  C11 UNL     1      21.248   0.049  53.191  1.00  0.00     0.131 C 
HETATM   12  F1  UNL     1      20.283  -0.299  54.102  1.00  0.00    -0.205 F 
HETATM   13  C12 UNL     1      22.436  -0.439  53.872  1.00  0.00     0.054 A 
HETATM   14 CL1  UNL     1      22.712  -1.270  55.390  1.00  0.00    -0.171 Cl
HETATM   15  C13 UNL     1      23.748  -0.574  53.858  1.00  0.00     0.146 A 
HETATM   16  C14 UNL     1      25.212  -0.832  54.051  1.00  0.00     0.297 C 
HETATM   17  N3  UNL     1      26.001   0.371  54.005  1.00  0.00     0.108 N 
HETATM   18  C15 UNL     1      26.098   0.935  52.682  1.00  0.00     0.437 C 
HETATM   19  O1  UNL     1      26.838   2.112  52.682  1.00  0.00    -0.358 OA
HETATM   20  C16 UNL     1      26.987   2.655  51.431  1.00  0.00     0.204 C 
HETATM   21  H15 UNL     1      26.901   0.299  54.481  1.00  0.00     0.318 HD
ENDROOT
BRANCH   1  22
HETATM   22  C2  UNL     1      26.248   3.556  49.395  1.00  0.00     0.032 C 
HETATM   23  C1  UNL     1      26.282   5.088  49.272  1.00  0.00     0.010 C 
ENDBRANCH   1  22
TORSDOF 1
ENDMDL
MODEL 3
REMARK VINA RESULT:      -7.8      4.717      6.842
REMARK  1 active torsions:
REMARK  status: ('A' for Active; 'I' for Inactive)
REMARK    1  A    between atoms: C2_2  and  C3_3 
ROOT
HETATM    1  C3  UNL     1      23.578  -0.058  53.388  1.00  0.00    -0.056 C 
HETATM    2  C4  UNL     1      23.532   0.843  52.478  1.00  0.00     0.020 C 
HETATM    3  C5  UNL     1      23.311   1.875  51.526  1.00  0.00     0.007 A 
HETATM    4  C6  UNL     1      24.057   2.998  51.897  1.00  0.00     0.131 A 
HETATM    5  N1  UNL     1      24.059   4.149  51.136  1.00  0.00    -0.253 NA
HETATM    6  C7  UNL     1      23.267   4.033  50.029  1.00  0.00     0.232 A 
HETATM    7  N2  UNL     1      22.540   2.948  49.663  1.00  0.00    -0.245 NA
HETATM    8  C8  UNL     1      22.535   1.830  50.397  1.00  0.00     0.051 A 
HETATM    9  C9  UNL     1      21.670   0.759  49.890  1.00  0.00     0.090 C 
HETATM   10  C10 UNL     1      20.244   1.261  49.763  1.00  0.00     0.023 C 
HETATM   11  C11 UNL     1      18.932   1.495  49.881  1.00  0.00     0.131 C 
HETATM   12  F1  UNL     1      17.833   2.198  49.453  1.00  0.00    -0.205 F 
HETATM   13  C12 UNL     1      18.338   0.712  50.953  1.00  0.00     0.054 A 
HETATM   14 CL1  UNL     1      16.716   0.575  51.602  1.00  0.00    -0.171 Cl
HETATM   15  C13 UNL     1      18.518  -0.176  51.910  1.00  0.00     0.146 A 
HETATM   16  C14 UNL     1      18.494  -1.161  53.041  1.00  0.00     0.297 C 
HETATM   17  N3  UNL     1      19.413  -0.821  54.095  1.00  0.00     0.108 N 
HETATM   18  C15 UNL     1      20.793  -1.015  53.728  1.00  0.00     0.437 C 
HETATM   19  O1  UNL     1      21.652  -0.646  54.756  1.00  0.00    -0.358 OA
HETATM   20  C16 UNL     1      22.974  -0.857  54.458  1.00  0.00     0.204 C 
HETATM   21  H15 UNL     1      19.175  -1.224  55.003  1.00  0.00     0.318 HD
ENDROOT
BRANCH   1  22
HETATM   22  C2  UNL     1      24.947  -0.597  53.217  1.00  0.00     0.032 C 
HETATM   23  C1  UNL     1      25.850  -0.131  54.372  1.00  0.00     0.010 C 
ENDBRANCH   1  22
TORSDOF 1
ENDMDL
MODEL 4
REMARK VINA RESULT:      -7.7      2.895      5.262
REMARK  1 active torsions:
REMARK  status: ('A' for Active; 'I' for Inactive)
REMARK    1  A    between atoms: C2_2  and  C3_3 
ROOT
HETATM    1  C3  UNL     1      22.768  -0.122  53.432  1.00  0.00    -0.056 C 
HETATM    2  C4  UNL     1      21.967   0.524  52.667  1.00  0.00     0.020 C 
HETATM    3  C5  UNL     1      21.216   1.244  51.700  1.00  0.00     0.007 A 
HETATM    4  C6  UNL     1      20.257   0.391  51.146  1.00  0.00     0.131 A 
HETATM    5  N1  UNL     1      19.361   0.831  50.194  1.00  0.00    -0.253 NA
HETATM    6  C7  UNL     1      19.542   2.150  49.890  1.00  0.00     0.232 A 
HETATM    7  N2  UNL     1      20.470   2.984  50.421  1.00  0.00    -0.245 NA
HETATM    8  C8  UNL     1      21.341   2.563  51.345  1.00  0.00     0.051 A 
HETATM    9  C9  UNL     1      22.306   3.572  51.793  1.00  0.00     0.090 C 
HETATM   10  C10 UNL     1      23.082   4.111  50.607  1.00  0.00     0.023 C 
HETATM   11  C11 UNL     1      24.010   4.443  49.701  1.00  0.00     0.131 C 
HETATM   12  F1  UNL     1      24.311   5.088  48.528  1.00  0.00    -0.205 F 
HETATM   13  C12 UNL     1      25.306   3.864  50.019  1.00  0.00     0.054 A 
HETATM   14 CL1  UNL     1      26.879   3.912  49.249  1.00  0.00    -0.171 Cl
HETATM   15  C13 UNL     1      26.019   3.123  50.844  1.00  0.00     0.146 A 
HETATM   16  C14 UNL     1      27.008   2.322  51.636  1.00  0.00     0.297 C 
HETATM   17  N3  UNL     1      26.598   0.955  51.820  1.00  0.00     0.108 N 
HETATM   18  C15 UNL     1      25.492   0.814  52.733  1.00  0.00     0.437 C 
HETATM   19  O1  UNL     1      25.102  -0.514  52.862  1.00  0.00    -0.358 OA
HETATM   20  C16 UNL     1      24.078  -0.692  53.757  1.00  0.00     0.204 C 
HETATM   21  H15 UNL     1      27.366   0.310  52.012  1.00  0.00     0.318 HD
ENDROOT
BRANCH   1  22
HETATM   22  C2  UNL     1      21.924  -0.363  54.626  1.00  0.00     0.032 C 
HETATM   23  C1  UNL     1      20.928  -1.502  54.353  1.00  0.00     0.010 C 
ENDBRANCH   1  22
TORSDOF 1
ENDMDL
MODEL 5
REMARK VINA RESULT:      -7.6      4.063      6.268
REMARK  1 active torsions:
REMARK  status: ('A' for Active; 'I' for Inactive)
REMARK    1  A    between atoms: C2_2  and  C3_3 
ROOT
HETATM    1  C3  UNL     1      20.983  -0.365  53.481  1.00  0.00    -0.056 C 
HETATM    2  C4  UNL     1      21.443   0.395  52.557  1.00  0.00     0.020 C 
HETATM    3  C5  UNL     1      22.109   1.147  51.552  1.00  0.00     0.007 A 
HETATM    4  C6  UNL     1      21.613   0.768  50.301  1.00  0.00     0.131 A 
HETATM    5  N1  UNL     1      22.060   1.358  49.137  1.00  0.00    -0.253 NA
HETATM    6  C7  UNL     1      23.006   2.313  49.376  1.00  0.00     0.232 A 
HETATM    7  N2  UNL     1      23.494   2.686  50.585  1.00  0.00    -0.245 NA
HETATM    8  C8  UNL     1      23.063   2.117  51.718  1.00  0.00     0.051 A 
HETATM    9  C9  UNL     1      23.714   2.601  52.940  1.00  0.00     0.090 C 
HETATM   10  C10 UNL     1      25.215   2.406  52.842  1.00  0.00     0.023 C 
HETATM   11  C11 UNL     1      26.490   2.028  52.987  1.00  0.00     0.131 C 
HETATM   12  F1  UNL     1      27.795   2.158  52.581  1.00  0.00    -0.205 F 
HETATM   13  C12 UNL     1      26.632   0.982  53.987  1.00  0.00     0.054 A 
HETATM   14 CL1  UNL     1      27.996   0.080  54.617  1.00  0.00    -0.171 Cl
HETATM   15  C13 UNL     1      26.039   0.198  54.866  1.00  0.00     0.146 A 
HETATM   16  C14 UNL     1      25.579  -0.778  55.907  1.00  0.00     0.297 C 
HETATM   17  N3  UNL     1      24.580  -1.690  55.414  1.00  0.00     0.108 N 
HETATM   18  C15 UNL     1      23.302  -1.061  55.190  1.00  0.00     0.437 C 
HETATM   19  O1  UNL     1      22.372  -1.962  54.684  1.00  0.00    -0.358 OA
HETATM   20  C16 UNL     1      21.131  -1.409  54.499  1.00  0.00     0.204 C 
HETATM   21  H15 UNL     1      24.516  -2.563  55.938  1.00  0.00     0.318 HD
ENDROOT
BRANCH   1  22
HETATM   22  C2  UNL     1      19.587   0.115  53.607  1.00  0.00     0.032 C 
HETATM   23  C1  UNL     1      18.700  -0.543  52.537  1.00  0.00     0.010 C 
ENDBRANCH   1  22
TORSDOF 1
ENDMDL
MODEL 6
REMARK VINA RESULT:      -7.3      4.159      5.955
REMARK  1 active torsions:
REMARK  status: ('A' for Active; 'I' for Inactive)
REMARK    1  A    between atoms: C2_2  and  C3_3 
ROOT
HETATM    1  C3  UNL     1      24.559   3.136  49.984  1.00  0.00    -0.056 C 
HETATM    2  C4  UNL     1      24.859   2.310  50.917  1.00  0.00     0.020 C 
HETATM    3  C5  UNL     1      25.056   1.290  51.886  1.00  0.00     0.007 A 
HETATM    4  C6  UNL     1      26.234   0.601  51.584  1.00  0.00     0.131 A 
HETATM    5  N1  UNL     1      26.693  -0.431  52.377  1.00  0.00    -0.253 NA
HETATM    6  C7  UNL     1      25.870  -0.665  53.442  1.00  0.00     0.232 A 
HETATM    7  N2  UNL     1      24.725  -0.002  53.741  1.00  0.00    -0.245 NA
HETATM    8  C8  UNL     1      24.275   0.999  52.976  1.00  0.00     0.051 A 
HETATM    9  C9  UNL     1      23.005   1.589  53.410  1.00  0.00     0.090 C 
HETATM   10  C10 UNL     1      21.933   0.519  53.484  1.00  0.00     0.023 C 
HETATM   11  C11 UNL     1      20.861  -0.264  53.311  1.00  0.00     0.131 C 
HETATM   12  F1  UNL     1      20.155  -1.372  53.706  1.00  0.00    -0.205 F 
HETATM   13  C12 UNL     1      20.047   0.177  52.190  1.00  0.00     0.054 A 
HETATM   14 CL1  UNL     1      18.565  -0.407  51.460  1.00  0.00    -0.171 Cl
HETATM   15  C13 UNL     1      19.877   1.051  51.217  1.00  0.00     0.146 A 
HETATM   16  C14 UNL     1      19.490   1.920  50.058  1.00  0.00     0.297 C 
HETATM   17  N3  UNL     1      20.522   2.008  49.058  1.00  0.00     0.108 N 
HETATM   18  C15 UNL     1      21.659   2.785  49.486  1.00  0.00     0.437 C 
HETATM   19  O1  UNL     1      22.648   2.821  48.510  1.00  0.00    -0.358 OA
HETATM   20  C16 UNL     1      23.729   3.587  48.864  1.00  0.00     0.204 C 
HETATM   21  H15 UNL     1      20.184   2.263  48.130  1.00  0.00     0.318 HD
ENDROOT
BRANCH   1  22
HETATM   22  C2  UNL     1      25.548   4.218  50.204  1.00  0.00     0.032 C 
HETATM   23  C1  UNL     1      26.815   3.957  49.373  1.00  0.00     0.010 C 
ENDBRANCH   1  22
TORSDOF 1
ENDMDL
MODEL 7
REMARK VINA RESULT:      -7.2      3.277      5.100
REMARK  1 active torsions:
REMARK  status: ('A' for Active; 'I' for Inactive)
REMARK    1  A    between atoms: C2_2  and  C3_3 
ROOT
HETATM    1  C3  UNL     1      26.050   0.969  53.187  1.00  0.00    -0.056 C 
HETATM    2  C4  UNL     1      24.787   0.761  53.260  1.00  0.00     0.020 C 
HETATM    3  C5  UNL     1      23.383   0.565  53.161  1.00  0.00     0.007 A 
HETATM    4  C6  UNL     1      23.108  -0.800  53.286  1.00  0.00     0.131 A 
HETATM    5  N1  UNL     1      21.816  -1.284  53.256  1.00  0.00    -0.253 NA
HETATM    6  C7  UNL     1      20.898  -0.285  53.097  1.00  0.00     0.232 A 
HETATM    7  N2  UNL     1      21.157   1.041  52.975  1.00  0.00    -0.245 NA
HETATM    8  C8  UNL     1      22.408   1.515  53.003  1.00  0.00     0.051 A 
HETATM    9  C9  UNL     1      22.526   2.965  52.820  1.00  0.00     0.090 C 
HETATM   10  C10 UNL     1      21.881   3.377  51.510  1.00  0.00     0.023 C 
HETATM   11  C11 UNL     1      21.608   3.812  50.274  1.00  0.00     0.131 C 
HETATM   12  F1  UNL     1      20.664   4.053  49.308  1.00  0.00    -0.205 F 
HETATM   13  C12 UNL     1      22.817   4.180  49.553  1.00  0.00     0.054 A 
HETATM   14 CL1  UNL     1      23.131   4.793  47.942  1.00  0.00    -0.171 Cl
HETATM   15  C13 UNL     1      24.130   4.289  49.570  1.00  0.00     0.146 A 
HETATM   16  C14 UNL     1      25.603   4.490  49.369  1.00  0.00     0.297 C 
HETATM   17  N3  UNL     1      26.364   3.289  49.589  1.00  0.00     0.108 N 
HETATM   18  C15 UNL     1      26.430   2.907  50.978  1.00  0.00     0.437 C 
HETATM   19  O1  UNL     1      27.144   1.727  51.149  1.00  0.00    -0.358 OA
HETATM   20  C16 UNL     1      27.265   1.354  52.463  1.00  0.00     0.204 C 
HETATM   21  H15 UNL     1      27.272   3.279  49.123  1.00  0.00     0.318 HD
ENDROOT
BRANCH   1  22
HETATM   22  C2  UNL     1      26.478   0.751  54.589  1.00  0.00     0.032 C 
HETATM   23  C1  UNL     1      27.916   0.209  54.628  1.00  0.00     0.010 C 
ENDBRANCH   1  22
TORSDOF 1
ENDMDL
MODEL 8
REMARK VINA RESULT:      -7.0      4.995      6.872
REMARK  1 active torsions:
REMARK  status: ('A' for Active; 'I' for Inactive)
REMARK    1  A    between atoms: C2_2  and  C3_3 
ROOT
HETATM    1  C3  UNL     1      23.382   2.506  51.456  1.00  0.00    -0.056 C 
HETATM    2  C4  UNL     1      23.183   1.651  52.390  1.00  0.00     0.020 C 
HETATM    3  C5  UNL     1      22.865   0.610  53.304  1.00  0.00     0.007 A 
HETATM    4  C6  UNL     1      24.008  -0.163  53.524  1.00  0.00     0.131 A 
HETATM    5  N1  UNL     1      24.001  -1.234  54.394  1.00  0.00    -0.253 NA
HETATM    6  C7  UNL     1      22.778  -1.414  54.976  1.00  0.00     0.232 A 
HETATM    7  N2  UNL     1      21.664  -0.669  54.767  1.00  0.00    -0.245 NA
HETATM    8  C8  UNL     1      21.666   0.370  53.924  1.00  0.00     0.051 A 
HETATM    9  C9  UNL     1      20.375   1.051  53.778  1.00  0.00     0.090 C 
HETATM   10  C10 UNL     1      19.315   0.065  53.327  1.00  0.00     0.023 C 
HETATM   11  C11 UNL     1      18.383  -0.633  52.666  1.00  0.00     0.131 C 
HETATM   12  F1  UNL     1      17.505  -1.687  52.663  1.00  0.00    -0.205 F 
HETATM   13  C12 UNL     1      18.180  -0.121  51.320  1.00  0.00     0.054 A 
HETATM   14 CL1  UNL     1      17.140  -0.585  49.989  1.00  0.00    -0.171 Cl
HETATM   15  C13 UNL     1      18.514   0.771  50.409  1.00  0.00     0.146 A 
HETATM   16  C14 UNL     1      18.738   1.678  49.236  1.00  0.00     0.297 C 
HETATM   17  N3  UNL     1      20.109   1.696  48.799  1.00  0.00     0.108 N 
HETATM   18  C15 UNL     1      20.986   2.380  49.715  1.00  0.00     0.437 C 
HETATM   19  O1  UNL     1      22.306   2.349  49.278  1.00  0.00    -0.358 OA
HETATM   20  C16 UNL     1      23.164   3.028  50.104  1.00  0.00     0.204 C 
HETATM   21  H15 UNL     1      20.234   1.984  47.828  1.00  0.00     0.318 HD
ENDROOT
BRANCH   1  22
HETATM   22  C2  UNL     1      24.238   3.507  52.134  1.00  0.00     0.032 C 
HETATM   23  C1  UNL     1      23.378   4.661  52.678  1.00  0.00     0.010 C 
ENDBRANCH   1  22
TORSDOF 1
ENDMDL
MODEL 9
REMARK VINA RESULT:      -6.9      4.359      6.561
REMARK  1 active torsions:
REMARK  status: ('A' for Active; 'I' for Inactive)
REMARK    1  A    between atoms: C2_2  and  C3_3 
ROOT
HETATM    1  C3  UNL     1      19.251   0.478  51.867  1.00  0.00    -0.056 C 
HETATM    2  C4  UNL     1      20.077   1.022  51.052  1.00  0.00     0.020 C 
HETATM    3  C5  UNL     1      21.108   1.493  50.196  1.00  0.00     0.007 A 
HETATM    4  C6  UNL     1      20.759   1.216  48.871  1.00  0.00     0.131 A 
HETATM    5  N1  UNL     1      21.566   1.588  47.817  1.00  0.00    -0.253 NA
HETATM    6  C7  UNL     1      22.694   2.233  48.237  1.00  0.00     0.232 A 
HETATM    7  N2  UNL     1      23.042   2.505  49.519  1.00  0.00    -0.245 NA
HETATM    8  C8  UNL     1      22.262   2.146  50.546  1.00  0.00     0.051 A 
HETATM    9  C9  UNL     1      22.793   2.477  51.873  1.00  0.00     0.090 C 
HETATM   10  C10 UNL     1      24.159   1.844  52.058  1.00  0.00     0.023 C 
HETATM   11  C11 UNL     1      25.215   1.115  52.439  1.00  0.00     0.131 C 
HETATM   12  F1  UNL     1      26.549   0.834  52.288  1.00  0.00    -0.205 F 
HETATM   13  C12 UNL     1      24.852   0.124  53.440  1.00  0.00     0.054 A 
HETATM   14 CL1  UNL     1      25.746  -1.107  54.310  1.00  0.00    -0.171 Cl
HETATM   15  C13 UNL     1      23.903  -0.405  54.186  1.00  0.00     0.146 A 
HETATM   16  C14 UNL     1      22.990  -1.150  55.114  1.00  0.00     0.297 C 
HETATM   17  N3  UNL     1      21.873  -1.750  54.435  1.00  0.00     0.108 N 
HETATM   18  C15 UNL     1      20.904  -0.785  53.978  1.00  0.00     0.437 C 
HETATM   19  O1  UNL     1      19.856  -1.396  53.299  1.00  0.00    -0.358 OA
HETATM   20  C16 UNL     1      18.892  -0.512  52.887  1.00  0.00     0.204 C 
HETATM   21  H15 UNL     1      21.456  -2.538  54.931  1.00  0.00     0.318 HD
ENDROOT
BRANCH   1  22
HETATM   22  C2  UNL     1      18.063   1.353  51.731  1.00  0.00     0.032 C 
HETATM   23  C1  UNL     1      17.286   1.000  50.452  1.00  0.00     0.010 C 
ENDBRANCH   1  22
TORSDOF 1
ENDMDL
