MODEL 1
REMARK VINA RESULT:      -8.5      0.000      0.000
REMARK  6 active torsions:
REMARK  status: ('A' for Active; 'I' for Inactive)
REMARK    1  A    between atoms: C5_6  and  C6_7 
REMARK       I    between atoms: C6_7  and  N2_9 
REMARK    2  A    between atoms: N2_9  and  C7_10 
REMARK    3  A    between atoms: C8_11  and  C9_12 
REMARK    4  A    between atoms: C10_13  and  N3_14 
REMARK    5  A    between atoms: N3_14  and  C11_15 
REMARK    6  A    between atoms: C14_19  and  C15_20 
ROOT
HETATM    1  N1  UNL     1      21.578   6.195  47.235  1.00  0.00    -0.190 NA
HETATM    2  C1  UNL     1      22.222   5.621  48.012  1.00  0.00     0.119 C 
HETATM    3  C2  UNL     1      23.013   4.889  48.973  1.00  0.00     0.136 A 
HETATM    4  C3  UNL     1      22.984   3.489  49.032  1.00  0.00     0.044 A 
HETATM    5  C4  UNL     1      23.757   2.830  49.967  1.00  0.00     0.021 A 
HETATM    6  C5  UNL     1      24.564   3.516  50.850  1.00  0.00     0.050 A 
HETATM    7  C22 UNL     1      24.572   4.893  50.770  1.00  0.00     0.135 A 
HETATM    8  N7  UNL     1      23.819   5.536  49.859  1.00  0.00    -0.249 NA
ENDROOT
BRANCH   6   9
HETATM    9  C6  UNL     1      25.419   2.925  51.875  1.00  0.00     0.257 C 
HETATM   10  O1  UNL     1      25.062   2.677  53.045  1.00  0.00    -0.267 OA
HETATM   11  N2  UNL     1      26.777   2.572  51.612  1.00  0.00    -0.322 N 
HETATM   12  H3  UNL     1      27.198   2.730  50.669  1.00  0.00     0.169 HD
BRANCH  11  13
HETATM   13  C7  UNL     1      27.610   1.994  52.619  1.00  0.00     0.045 A 
HETATM   14  C8  UNL     1      27.852   0.780  53.113  1.00  0.00    -0.008 A 
HETATM   15  C20 UNL     1      28.827   1.306  54.059  1.00  0.00     0.016 A 
HETATM   16  C21 UNL     1      28.595   2.520  53.577  1.00  0.00     0.031 A 
BRANCH  14  17
HETATM   17  C9  UNL     1      27.339  -0.548  52.817  1.00  0.00     0.031 C 
HETATM   18  C10 UNL     1      26.112  -0.887  53.124  1.00  0.00     0.107 C 
BRANCH  18  19
HETATM   19  N3  UNL     1      25.128  -0.079  53.754  1.00  0.00    -0.198 N 
HETATM   20  H6  UNL     1      25.414   0.840  54.157  1.00  0.00     0.183 HD
BRANCH  19  21
HETATM   21  C11 UNL     1      23.760  -0.452  53.872  1.00  0.00     0.726 A 
HETATM   22  N4  UNL     1      23.312  -1.224  54.880  1.00  0.00    -0.075 NA
HETATM   23  C12 UNL     1      22.026  -1.591  55.015  1.00  0.00     0.139 A 
HETATM   24  C13 UNL     1      21.148  -1.132  54.052  1.00  0.00     0.053 A 
HETATM   25  C14 UNL     1      21.566  -0.341  53.004  1.00  0.00     0.089 A 
HETATM   26  N6  UNL     1      22.853  -0.028  52.950  1.00  0.00    -0.062 NA
BRANCH  25  27
HETATM   27  C15 UNL     1      20.679   0.165  51.966  1.00  0.00     0.011 A 
HETATM   28  C16 UNL     1      21.228   0.471  50.742  1.00  0.00     0.017 A 
HETATM   29  C17 UNL     1      20.370   0.950  49.774  1.00  0.00     0.020 A 
HETATM   30  C18 UNL     1      18.992   1.151  49.925  1.00  0.00     0.116 A 
HETATM   31  N5  UNL     1      18.511   0.829  51.159  1.00  0.00    -0.272 NA
HETATM   32  C19 UNL     1      19.323   0.362  52.122  1.00  0.00     0.130 A 
ENDBRANCH  25  27
ENDBRANCH  19  21
ENDBRANCH  18  19
ENDBRANCH  14  17
ENDBRANCH  11  13
ENDBRANCH   6   9
TORSDOF 6
ENDMDL
MODEL 2
REMARK VINA RESULT:      -8.5      1.887      6.087
REMARK  6 active torsions:
REMARK  status: ('A' for Active; 'I' for Inactive)
REMARK    1  A    between atoms: C5_6  and  C6_7 
REMARK       I    between atoms: C6_7  and  N2_9 
REMARK    2  A    between atoms: N2_9  and  C7_10 
REMARK    3  A    between atoms: C8_11  and  C9_12 
REMARK    4  A    between atoms: C10_13  and  N3_14 
REMARK    5  A    between atoms: N3_14  and  C11_15 
REMARK    6  A    between atoms: C14_19  and  C15_20 
ROOT
HETATM    1  N1  UNL     1      30.127  -1.192  54.229  1.00  0.00    -0.190 NA
HETATM    2  C1  UNL     1      29.324  -0.542  53.699  1.00  0.00     0.119 C 
HETATM    3  C2  UNL     1      28.317   0.251  53.033  1.00  0.00     0.136 A 
HETATM    4  C3  UNL     1      27.188  -0.340  52.448  1.00  0.00     0.044 A 
HETATM    5  C4  UNL     1      26.250   0.455  51.822  1.00  0.00     0.021 A 
HETATM    6  C5  UNL     1      26.393   1.826  51.757  1.00  0.00     0.050 A 
HETATM    7  C22 UNL     1      27.513   2.380  52.341  1.00  0.00     0.135 A 
HETATM    8  N7  UNL     1      28.428   1.605  52.951  1.00  0.00    -0.249 NA
ENDROOT
BRANCH   6   9
HETATM    9  C6  UNL     1      25.467   2.760  51.123  1.00  0.00     0.257 C 
HETATM   10  O1  UNL     1      24.286   2.495  50.817  1.00  0.00    -0.267 OA
HETATM   11  N2  UNL     1      25.851   4.093  50.790  1.00  0.00    -0.322 N 
HETATM   12  H3  UNL     1      26.815   4.439  50.995  1.00  0.00     0.169 HD
BRANCH  11  13
HETATM   13  C7  UNL     1      24.941   5.004  50.169  1.00  0.00     0.045 A 
HETATM   14  C8  UNL     1      23.801   5.618  50.483  1.00  0.00    -0.008 A 
HETATM   15  C20 UNL     1      23.744   6.281  49.187  1.00  0.00     0.016 A 
HETATM   16  C21 UNL     1      24.878   5.675  48.861  1.00  0.00     0.031 A 
BRANCH  14  17
HETATM   17  C9  UNL     1      22.952   5.622  51.664  1.00  0.00     0.031 C 
HETATM   18  C10 UNL     1      21.835   4.939  51.699  1.00  0.00     0.107 C 
BRANCH  18  19
HETATM   19  N3  UNL     1      21.287   4.130  50.669  1.00  0.00    -0.198 N 
HETATM   20  H6  UNL     1      21.244   4.512  49.698  1.00  0.00     0.183 HD
BRANCH  19  21
HETATM   21  C11 UNL     1      20.788   2.814  50.881  1.00  0.00     0.726 A 
HETATM   22  N4  UNL     1      19.774   2.307  50.155  1.00  0.00    -0.075 NA
HETATM   23  C12 UNL     1      19.283   1.068  50.335  1.00  0.00     0.139 A 
HETATM   24  C13 UNL     1      19.876   0.307  51.324  1.00  0.00     0.053 A 
HETATM   25  C14 UNL     1      20.915   0.789  52.089  1.00  0.00     0.089 A 
HETATM   26  N6  UNL     1      21.335   2.022  51.843  1.00  0.00    -0.062 NA
BRANCH  25  27
HETATM   27  C15 UNL     1      21.570   0.025  53.142  1.00  0.00     0.011 A 
HETATM   28  C16 UNL     1      22.941   0.091  53.229  1.00  0.00     0.017 A 
HETATM   29  C17 UNL     1      23.539  -0.642  54.234  1.00  0.00     0.020 A 
HETATM   30  C18 UNL     1      22.877  -1.444  55.171  1.00  0.00     0.116 A 
HETATM   31  N5  UNL     1      21.521  -1.466  55.032  1.00  0.00    -0.272 NA
HETATM   32  C19 UNL     1      20.911  -0.763  54.062  1.00  0.00     0.130 A 
ENDBRANCH  25  27
ENDBRANCH  19  21
ENDBRANCH  18  19
ENDBRANCH  14  17
ENDBRANCH  11  13
ENDBRANCH   6   9
TORSDOF 6
ENDMDL
MODEL 3
REMARK VINA RESULT:      -8.3      3.004      6.244
REMARK  6 active torsions:
REMARK  status: ('A' for Active; 'I' for Inactive)
REMARK    1  A    between atoms: C5_6  and  C6_7 
REMARK       I    between atoms: C6_7  and  N2_9 
REMARK    2  A    between atoms: N2_9  and  C7_10 
REMARK    3  A    between atoms: C8_11  and  C9_12 
REMARK    4  A    between atoms: C10_13  and  N3_14 
REMARK    5  A    between atoms: N3_14  and  C11_15 
REMARK    6  A    between atoms: C14_19  and  C15_20 
ROOT
HETATM    1  N1  UNL     1      30.395   8.208  47.701  1.00  0.00    -0.190 NA
HETATM    2  C1  UNL     1      29.492   7.528  47.960  1.00  0.00     0.119 C 
HETATM    3  C2  UNL     1      28.355   6.697  48.283  1.00  0.00     0.136 A 
HETATM    4  C3  UNL     1      27.059   7.225  48.358  1.00  0.00     0.044 A 
HETATM    5  C4  UNL     1      26.001   6.394  48.670  1.00  0.00     0.021 A 
HETATM    6  C5  UNL     1      26.187   5.048  48.911  1.00  0.00     0.050 A 
HETATM    7  C22 UNL     1      27.473   4.556  48.831  1.00  0.00     0.135 A 
HETATM    8  N7  UNL     1      28.504   5.365  48.527  1.00  0.00    -0.249 NA
ENDROOT
BRANCH   6   9
HETATM    9  C6  UNL     1      25.146   4.082  49.248  1.00  0.00     0.257 C 
HETATM   10  O1  UNL     1      25.317   3.068  49.955  1.00  0.00    -0.267 OA
HETATM   11  N2  UNL     1      23.806   4.224  48.778  1.00  0.00    -0.322 N 
HETATM   12  H3  UNL     1      23.532   5.031  48.175  1.00  0.00     0.169 HD
BRANCH  11  13
HETATM   13  C7  UNL     1      22.790   3.274  49.110  1.00  0.00     0.045 A 
HETATM   14  C8  UNL     1      21.864   3.119  50.056  1.00  0.00    -0.008 A 
HETATM   15  C20 UNL     1      21.402   1.869  49.467  1.00  0.00     0.016 A 
HETATM   16  C21 UNL     1      22.320   2.010  48.520  1.00  0.00     0.031 A 
BRANCH  14  17
HETATM   17  C9  UNL     1      21.472   3.900  51.218  1.00  0.00     0.031 C 
HETATM   18  C10 UNL     1      22.246   3.987  52.271  1.00  0.00     0.107 C 
BRANCH  18  19
HETATM   19  N3  UNL     1      23.518   3.380  52.457  1.00  0.00    -0.198 N 
HETATM   20  H6  UNL     1      24.376   3.938  52.253  1.00  0.00     0.183 HD
BRANCH  19  21
HETATM   21  C11 UNL     1      23.694   2.043  52.910  1.00  0.00     0.726 A 
HETATM   22  N4  UNL     1      22.652   1.230  53.165  1.00  0.00    -0.075 NA
HETATM   23  C12 UNL     1      22.790  -0.037  53.592  1.00  0.00     0.139 A 
HETATM   24  C13 UNL     1      24.082  -0.493  53.767  1.00  0.00     0.053 A 
HETATM   25  C14 UNL     1      25.176   0.307  53.517  1.00  0.00     0.089 A 
HETATM   26  N6  UNL     1      24.946   1.544  53.098  1.00  0.00    -0.062 NA
BRANCH  25  27
HETATM   27  C15 UNL     1      26.555  -0.128  53.687  1.00  0.00     0.011 A 
HETATM   28  C16 UNL     1      27.070  -1.013  52.768  1.00  0.00     0.017 A 
HETATM   29  C17 UNL     1      28.378  -1.412  52.949  1.00  0.00     0.020 A 
HETATM   30  C18 UNL     1      29.227  -0.997  53.982  1.00  0.00     0.116 A 
HETATM   31  N5  UNL     1      28.658  -0.121  54.858  1.00  0.00    -0.272 NA
HETATM   32  C19 UNL     1      27.386   0.284  54.707  1.00  0.00     0.130 A 
ENDBRANCH  25  27
ENDBRANCH  19  21
ENDBRANCH  18  19
ENDBRANCH  14  17
ENDBRANCH  11  13
ENDBRANCH   6   9
TORSDOF 6
ENDMDL
MODEL 4
REMARK VINA RESULT:      -7.9      2.449      7.872
REMARK  6 active torsions:
REMARK  status: ('A' for Active; 'I' for Inactive)
REMARK    1  A    between atoms: C5_6  and  C6_7 
REMARK       I    between atoms: C6_7  and  N2_9 
REMARK    2  A    between atoms: N2_9  and  C7_10 
REMARK    3  A    between atoms: C8_11  and  C9_12 
REMARK    4  A    between atoms: C10_13  and  N3_14 
REMARK    5  A    between atoms: N3_14  and  C11_15 
REMARK    6  A    between atoms: C14_19  and  C15_20 
ROOT
HETATM    1  N1  UNL     1      30.162  -0.439  53.821  1.00  0.00    -0.190 NA
HETATM    2  C1  UNL     1      29.033  -0.227  53.660  1.00  0.00     0.119 C 
HETATM    3  C2  UNL     1      27.623   0.026  53.474  1.00  0.00     0.136 A 
HETATM    4  C3  UNL     1      26.670  -0.423  54.399  1.00  0.00     0.044 A 
HETATM    5  C4  UNL     1      25.332  -0.159  54.182  1.00  0.00     0.021 A 
HETATM    6  C5  UNL     1      24.905   0.540  53.072  1.00  0.00     0.050 A 
HETATM    7  C22 UNL     1      25.864   0.969  52.179  1.00  0.00     0.135 A 
HETATM    8  N7  UNL     1      27.168   0.711  52.389  1.00  0.00    -0.249 NA
ENDROOT
BRANCH   6   9
HETATM    9  C6  UNL     1      23.522   0.874  52.744  1.00  0.00     0.257 C 
HETATM   10  O1  UNL     1      23.008   2.002  52.890  1.00  0.00    -0.267 OA
HETATM   11  N2  UNL     1      22.618  -0.095  52.214  1.00  0.00    -0.322 N 
HETATM   12  H3  UNL     1      22.926  -1.078  52.045  1.00  0.00     0.169 HD
BRANCH  11  13
HETATM   13  C7  UNL     1      21.264   0.237  51.895  1.00  0.00     0.045 A 
HETATM   14  C8  UNL     1      20.574   0.608  50.818  1.00  0.00    -0.008 A 
HETATM   15  C20 UNL     1      19.333   0.681  51.577  1.00  0.00     0.016 A 
HETATM   16  C21 UNL     1      20.009   0.314  52.658  1.00  0.00     0.031 A 
BRANCH  14  17
HETATM   17  C9  UNL     1      20.928   0.844  49.427  1.00  0.00     0.031 C 
HETATM   18  C10 UNL     1      21.930   1.622  49.103  1.00  0.00     0.107 C 
BRANCH  18  19
HETATM   19  N3  UNL     1      22.792   2.327  49.984  1.00  0.00    -0.198 N 
HETATM   20  H6  UNL     1      23.189   1.825  50.809  1.00  0.00     0.183 HD
BRANCH  19  21
HETATM   21  C11 UNL     1      23.151   3.693  49.810  1.00  0.00     0.726 A 
HETATM   22  N4  UNL     1      22.269   4.693  49.988  1.00  0.00    -0.075 NA
HETATM   23  C12 UNL     1      22.581   5.992  49.830  1.00  0.00     0.139 A 
HETATM   24  C13 UNL     1      23.884   6.274  49.468  1.00  0.00     0.053 A 
HETATM   25  C14 UNL     1      24.818   5.279  49.277  1.00  0.00     0.089 A 
HETATM   26  N6  UNL     1      24.422   4.026  49.455  1.00  0.00    -0.062 NA
BRANCH  25  27
HETATM   27  C15 UNL     1      26.201   5.527  48.896  1.00  0.00     0.011 A 
HETATM   28  C16 UNL     1      26.544   6.801  48.506  1.00  0.00     0.017 A 
HETATM   29  C17 UNL     1      27.860   7.013  48.148  1.00  0.00     0.020 A 
HETATM   30  C18 UNL     1      28.875   6.048  48.146  1.00  0.00     0.116 A 
HETATM   31  N5  UNL     1      28.471   4.808  48.541  1.00  0.00    -0.272 NA
HETATM   32  C19 UNL     1      27.196   4.572  48.895  1.00  0.00     0.130 A 
ENDBRANCH  25  27
ENDBRANCH  19  21
ENDBRANCH  18  19
ENDBRANCH  14  17
ENDBRANCH  11  13
ENDBRANCH   6   9
TORSDOF 6
ENDMDL
MODEL 5
REMARK VINA RESULT:      -7.8      3.553      6.891
REMARK  6 active torsions:
REMARK  status: ('A' for Active; 'I' for Inactive)
REMARK    1  A    between atoms: C5_6  and  C6_7 
REMARK       I    between atoms: C6_7  and  N2_9 
REMARK    2  A    between atoms: N2_9  and  C7_10 
REMARK    3  A    between atoms: C8_11  and  C9_12 
REMARK    4  A    between atoms: C10_13  and  N3_14 
REMARK    5  A    between atoms: N3_14  and  C11_15 
REMARK    6  A    between atoms: C14_19  and  C15_20 
ROOT
HETATM    1  N1  UNL     1      32.534   7.785  47.957  1.00  0.00    -0.190 NA
HETATM    2  C1  UNL     1      31.437   7.428  48.084  1.00  0.00     0.119 C 
HETATM    3  C2  UNL     1      30.066   7.002  48.243  1.00  0.00     0.136 A 
HETATM    4  C3  UNL     1      29.003   7.914  48.176  1.00  0.00     0.044 A 
HETATM    5  C4  UNL     1      27.708   7.463  48.333  1.00  0.00     0.021 A 
HETATM    6  C5  UNL     1      27.428   6.130  48.554  1.00  0.00     0.050 A 
HETATM    7  C22 UNL     1      28.494   5.256  48.616  1.00  0.00     0.135 A 
HETATM    8  N7  UNL     1      29.756   5.695  48.463  1.00  0.00    -0.249 NA
ENDROOT
BRANCH   6   9
HETATM    9  C6  UNL     1      26.103   5.546  48.734  1.00  0.00     0.257 C 
HETATM   10  O1  UNL     1      25.884   4.398  49.171  1.00  0.00    -0.267 OA
HETATM   11  N2  UNL     1      24.913   6.265  48.413  1.00  0.00    -0.322 N 
HETATM   12  H3  UNL     1      24.960   7.238  48.037  1.00  0.00     0.169 HD
BRANCH  11  13
HETATM   13  C7  UNL     1      23.616   5.688  48.590  1.00  0.00     0.045 A 
HETATM   14  C8  UNL     1      22.740   5.532  49.581  1.00  0.00    -0.008 A 
HETATM   15  C20 UNL     1      21.800   4.843  48.707  1.00  0.00     0.016 A 
HETATM   16  C21 UNL     1      22.664   4.990  47.711  1.00  0.00     0.031 A 
BRANCH  14  17
HETATM   17  C9  UNL     1      22.731   5.908  50.985  1.00  0.00     0.031 C 
HETATM   18  C10 UNL     1      23.492   5.296  51.858  1.00  0.00     0.107 C 
BRANCH  18  19
HETATM   19  N3  UNL     1      24.399   4.231  51.612  1.00  0.00    -0.198 N 
HETATM   20  H6  UNL     1      25.245   4.416  51.030  1.00  0.00     0.183 HD
BRANCH  19  21
HETATM   21  C11 UNL     1      24.221   2.912  52.115  1.00  0.00     0.726 A 
HETATM   22  N4  UNL     1      23.005   2.416  52.408  1.00  0.00    -0.075 NA
HETATM   23  C12 UNL     1      22.808   1.174  52.884  1.00  0.00     0.139 A 
HETATM   24  C13 UNL     1      23.936   0.397  53.068  1.00  0.00     0.053 A 
HETATM   25  C14 UNL     1      25.198   0.868  52.781  1.00  0.00     0.089 A 
HETATM   26  N6  UNL     1      25.298   2.105  52.315  1.00  0.00    -0.062 NA
BRANCH  25  27
HETATM   27  C15 UNL     1      26.414   0.088  52.959  1.00  0.00     0.011 A 
HETATM   28  C16 UNL     1      27.558   0.754  53.336  1.00  0.00     0.017 A 
HETATM   29  C17 UNL     1      28.698  -0.005  53.499  1.00  0.00     0.020 A 
HETATM   30  C18 UNL     1      28.796  -1.390  53.314  1.00  0.00     0.116 A 
HETATM   31  N5  UNL     1      27.630  -1.990  52.941  1.00  0.00    -0.272 NA
HETATM   32  C19 UNL     1      26.504  -1.276  52.775  1.00  0.00     0.130 A 
ENDBRANCH  25  27
ENDBRANCH  19  21
ENDBRANCH  18  19
ENDBRANCH  14  17
ENDBRANCH  11  13
ENDBRANCH   6   9
TORSDOF 6
ENDMDL
MODEL 6
REMARK VINA RESULT:      -7.8      2.303      7.667
REMARK  6 active torsions:
REMARK  status: ('A' for Active; 'I' for Inactive)
REMARK    1  A    between atoms: C5_6  and  C6_7 
REMARK       I    between atoms: C6_7  and  N2_9 
REMARK    2  A    between atoms: N2_9  and  C7_10 
REMARK    3  A    between atoms: C8_11  and  C9_12 
REMARK    4  A    between atoms: C10_13  and  N3_14 
REMARK    5  A    between atoms: N3_14  and  C11_15 
REMARK    6  A    between atoms: C14_19  and  C15_20 
ROOT
HETATM    1  N1  UNL     1      21.912  -2.016  55.136  1.00  0.00    -0.190 NA
HETATM    2  C1  UNL     1      21.779  -1.146  54.379  1.00  0.00     0.119 C 
HETATM    3  C2  UNL     1      21.631  -0.070  53.427  1.00  0.00     0.136 A 
HETATM    4  C3  UNL     1      22.485   0.055  52.322  1.00  0.00     0.044 A 
HETATM    5  C4  UNL     1      22.307   1.099  51.438  1.00  0.00     0.021 A 
HETATM    6  C5  UNL     1      21.304   2.031  51.612  1.00  0.00     0.050 A 
HETATM    7  C22 UNL     1      20.480   1.884  52.708  1.00  0.00     0.135 A 
HETATM    8  N7  UNL     1      20.653   0.866  53.571  1.00  0.00    -0.249 NA
ENDROOT
BRANCH   6   9
HETATM    9  C6  UNL     1      21.026   3.171  50.743  1.00  0.00     0.257 C 
HETATM   10  O1  UNL     1      21.390   3.265  49.553  1.00  0.00    -0.267 OA
HETATM   11  N2  UNL     1      20.292   4.305  51.201  1.00  0.00    -0.322 N 
HETATM   12  H3  UNL     1      19.931   4.350  52.181  1.00  0.00     0.169 HD
BRANCH  11  13
HETATM   13  C7  UNL     1      20.023   5.420  50.347  1.00  0.00     0.045 A 
HETATM   14  C8  UNL     1      20.585   6.593  50.059  1.00  0.00    -0.008 A 
HETATM   15  C20 UNL     1      19.533   6.918  49.105  1.00  0.00     0.016 A 
HETATM   16  C21 UNL     1      18.962   5.753  49.383  1.00  0.00     0.031 A 
BRANCH  14  17
HETATM   17  C9  UNL     1      21.783   7.275  50.520  1.00  0.00     0.031 C 
HETATM   18  C10 UNL     1      22.976   6.793  50.277  1.00  0.00     0.107 C 
BRANCH  18  19
HETATM   19  N3  UNL     1      23.296   5.603  49.570  1.00  0.00    -0.198 N 
HETATM   20  H6  UNL     1      22.582   5.191  48.930  1.00  0.00     0.183 HD
BRANCH  19  21
HETATM   21  C11 UNL     1      24.545   4.930  49.684  1.00  0.00     0.726 A 
HETATM   22  N4  UNL     1      25.603   5.251  48.918  1.00  0.00    -0.075 NA
HETATM   23  C12 UNL     1      26.794   4.632  49.005  1.00  0.00     0.139 A 
HETATM   24  C13 UNL     1      26.898   3.622  49.942  1.00  0.00     0.053 A 
HETATM   25  C14 UNL     1      25.838   3.263  50.745  1.00  0.00     0.089 A 
HETATM   26  N6  UNL     1      24.701   3.927  50.591  1.00  0.00    -0.062 NA
BRANCH  25  27
HETATM   27  C15 UNL     1      25.899   2.205  51.744  1.00  0.00     0.011 A 
HETATM   28  C16 UNL     1      26.479   1.011  51.384  1.00  0.00     0.017 A 
HETATM   29  C17 UNL     1      26.524   0.023  52.346  1.00  0.00     0.020 A 
HETATM   30  C18 UNL     1      26.034   0.127  53.654  1.00  0.00     0.116 A 
HETATM   31  N5  UNL     1      25.473   1.334  53.947  1.00  0.00    -0.272 NA
HETATM   32  C19 UNL     1      25.413   2.314  53.030  1.00  0.00     0.130 A 
ENDBRANCH  25  27
ENDBRANCH  19  21
ENDBRANCH  18  19
ENDBRANCH  14  17
ENDBRANCH  11  13
ENDBRANCH   6   9
TORSDOF 6
ENDMDL
MODEL 7
REMARK VINA RESULT:      -7.6      2.180      6.511
REMARK  6 active torsions:
REMARK  status: ('A' for Active; 'I' for Inactive)
REMARK    1  A    between atoms: C5_6  and  C6_7 
REMARK       I    between atoms: C6_7  and  N2_9 
REMARK    2  A    between atoms: N2_9  and  C7_10 
REMARK    3  A    between atoms: C8_11  and  C9_12 
REMARK    4  A    between atoms: C10_13  and  N3_14 
REMARK    5  A    between atoms: N3_14  and  C11_15 
REMARK    6  A    between atoms: C14_19  and  C15_20 
ROOT
HETATM    1  N1  UNL     1      21.964   8.394  49.197  1.00  0.00    -0.190 NA
HETATM    2  C1  UNL     1      21.705   7.301  49.487  1.00  0.00     0.119 C 
HETATM    3  C2  UNL     1      21.376   5.937  49.830  1.00  0.00     0.136 A 
HETATM    4  C3  UNL     1      20.947   5.020  48.860  1.00  0.00     0.044 A 
HETATM    5  C4  UNL     1      20.643   3.726  49.233  1.00  0.00     0.021 A 
HETATM    6  C5  UNL     1      20.752   3.307  50.543  1.00  0.00     0.050 A 
HETATM    7  C22 UNL     1      21.176   4.230  51.476  1.00  0.00     0.135 A 
HETATM    8  N7  UNL     1      21.471   5.492  51.114  1.00  0.00    -0.249 NA
ENDROOT
BRANCH   6   9
HETATM    9  C6  UNL     1      20.458   1.969  51.047  1.00  0.00     0.257 C 
HETATM   10  O1  UNL     1      20.791   0.906  50.483  1.00  0.00    -0.267 OA
HETATM   11  N2  UNL     1      19.741   1.762  52.263  1.00  0.00    -0.322 N 
HETATM   12  H3  UNL     1      19.405   2.572  52.831  1.00  0.00     0.169 HD
BRANCH  11  13
HETATM   13  C7  UNL     1      19.455   0.449  52.752  1.00  0.00     0.045 A 
HETATM   14  C8  UNL     1      19.972  -0.400  53.639  1.00  0.00    -0.008 A 
HETATM   15  C20 UNL     1      18.948  -1.396  53.354  1.00  0.00     0.016 A 
HETATM   16  C21 UNL     1      18.424  -0.561  52.467  1.00  0.00     0.031 A 
BRANCH  14  17
HETATM   17  C9  UNL     1      21.113  -0.346  54.538  1.00  0.00     0.031 C 
HETATM   18  C10 UNL     1      22.328  -0.164  54.085  1.00  0.00     0.107 C 
BRANCH  18  19
HETATM   19  N3  UNL     1      22.726   0.002  52.732  1.00  0.00    -0.198 N 
HETATM   20  H6  UNL     1      22.119  -0.388  51.977  1.00  0.00     0.183 HD
BRANCH  19  21
HETATM   21  C11 UNL     1      23.917   0.674  52.338  1.00  0.00     0.726 A 
HETATM   22  N4  UNL     1      23.893   1.785  51.578  1.00  0.00    -0.075 NA
HETATM   23  C12 UNL     1      25.003   2.440  51.192  1.00  0.00     0.139 A 
HETATM   24  C13 UNL     1      26.208   1.916  51.617  1.00  0.00     0.053 A 
HETATM   25  C14 UNL     1      26.275   0.782  52.395  1.00  0.00     0.089 A 
HETATM   26  N6  UNL     1      25.131   0.201  52.729  1.00  0.00    -0.062 NA
BRANCH  25  27
HETATM   27  C15 UNL     1      27.521   0.193  52.865  1.00  0.00     0.011 A 
HETATM   28  C16 UNL     1      27.639  -1.178  52.833  1.00  0.00     0.017 A 
HETATM   29  C17 UNL     1      28.828  -1.713  53.285  1.00  0.00     0.020 A 
HETATM   30  C18 UNL     1      29.923  -0.989  53.771  1.00  0.00     0.116 A 
HETATM   31  N5  UNL     1      29.743   0.362  53.777  1.00  0.00    -0.272 NA
HETATM   32  C19 UNL     1      28.595   0.912  53.344  1.00  0.00     0.130 A 
ENDBRANCH  25  27
ENDBRANCH  19  21
ENDBRANCH  18  19
ENDBRANCH  14  17
ENDBRANCH  11  13
ENDBRANCH   6   9
TORSDOF 6
ENDMDL
MODEL 8
REMARK VINA RESULT:      -7.5      2.967      6.622
REMARK  6 active torsions:
REMARK  status: ('A' for Active; 'I' for Inactive)
REMARK    1  A    between atoms: C5_6  and  C6_7 
REMARK       I    between atoms: C6_7  and  N2_9 
REMARK    2  A    between atoms: N2_9  and  C7_10 
REMARK    3  A    between atoms: C8_11  and  C9_12 
REMARK    4  A    between atoms: C10_13  and  N3_14 
REMARK    5  A    between atoms: N3_14  and  C11_15 
REMARK    6  A    between atoms: C14_19  and  C15_20 
ROOT
HETATM    1  N1  UNL     1      19.648   3.709  41.594  1.00  0.00    -0.190 NA
HETATM    2  C1  UNL     1      20.163   4.014  42.589  1.00  0.00     0.119 C 
HETATM    3  C2  UNL     1      20.803   4.412  43.821  1.00  0.00     0.136 A 
HETATM    4  C3  UNL     1      20.901   5.760  44.193  1.00  0.00     0.044 A 
HETATM    5  C4  UNL     1      21.521   6.095  45.380  1.00  0.00     0.021 A 
HETATM    6  C5  UNL     1      22.051   5.134  46.215  1.00  0.00     0.050 A 
HETATM    7  C22 UNL     1      21.941   3.816  45.823  1.00  0.00     0.135 A 
HETATM    8  N7  UNL     1      21.337   3.488  44.667  1.00  0.00    -0.249 NA
ENDROOT
BRANCH   6   9
HETATM    9  C6  UNL     1      22.726   5.374  47.488  1.00  0.00     0.257 C 
HETATM   10  O1  UNL     1      22.509   4.739  48.540  1.00  0.00    -0.267 OA
HETATM   11  N2  UNL     1      23.718   6.389  47.634  1.00  0.00    -0.322 N 
HETATM   12  H3  UNL     1      23.991   6.992  46.826  1.00  0.00     0.169 HD
BRANCH  11  13
HETATM   13  C7  UNL     1      24.375   6.621  48.883  1.00  0.00     0.045 A 
HETATM   14  C8  UNL     1      25.414   6.121  49.551  1.00  0.00    -0.008 A 
HETATM   15  C20 UNL     1      25.207   7.045  50.659  1.00  0.00     0.016 A 
HETATM   16  C21 UNL     1      24.170   7.551  50.005  1.00  0.00     0.031 A 
BRANCH  14  17
HETATM   17  C9  UNL     1      26.376   5.066  49.275  1.00  0.00     0.031 C 
HETATM   18  C10 UNL     1      26.088   3.808  49.499  1.00  0.00     0.107 C 
BRANCH  18  19
HETATM   19  N3  UNL     1      24.873   3.282  50.014  1.00  0.00    -0.198 N 
HETATM   20  H6  UNL     1      23.971   3.595  49.593  1.00  0.00     0.183 HD
BRANCH  19  21
HETATM   21  C11 UNL     1      24.811   2.343  51.082  1.00  0.00     0.726 A 
HETATM   22  N4  UNL     1      23.651   2.011  51.676  1.00  0.00    -0.075 NA
HETATM   23  C12 UNL     1      23.564   1.128  52.687  1.00  0.00     0.139 A 
HETATM   24  C13 UNL     1      24.747   0.552  53.107  1.00  0.00     0.053 A 
HETATM   25  C14 UNL     1      25.956   0.864  52.524  1.00  0.00     0.089 A 
HETATM   26  N6  UNL     1      25.947   1.746  51.534  1.00  0.00    -0.062 NA
BRANCH  25  27
HETATM   27  C15 UNL     1      27.227   0.285  52.933  1.00  0.00     0.011 A 
HETATM   28  C16 UNL     1      28.248   1.143  53.272  1.00  0.00     0.017 A 
HETATM   29  C17 UNL     1      29.444   0.572  53.655  1.00  0.00     0.020 A 
HETATM   30  C18 UNL     1      29.711  -0.801  53.730  1.00  0.00     0.116 A 
HETATM   31  N5  UNL     1      28.660  -1.597  53.382  1.00  0.00    -0.272 NA
HETATM   32  C19 UNL     1      27.484  -1.068  53.004  1.00  0.00     0.130 A 
ENDBRANCH  25  27
ENDBRANCH  19  21
ENDBRANCH  18  19
ENDBRANCH  14  17
ENDBRANCH  11  13
ENDBRANCH   6   9
TORSDOF 6
ENDMDL
MODEL 9
REMARK VINA RESULT:      -7.5      1.846      6.272
REMARK  6 active torsions:
REMARK  status: ('A' for Active; 'I' for Inactive)
REMARK    1  A    between atoms: C5_6  and  C6_7 
REMARK       I    between atoms: C6_7  and  N2_9 
REMARK    2  A    between atoms: N2_9  and  C7_10 
REMARK    3  A    between atoms: C8_11  and  C9_12 
REMARK    4  A    between atoms: C10_13  and  N3_14 
REMARK    5  A    between atoms: N3_14  and  C11_15 
REMARK    6  A    between atoms: C14_19  and  C15_20 
ROOT
HETATM    1  N1  UNL     1      29.001  -1.405  53.970  1.00  0.00    -0.190 NA
HETATM    2  C1  UNL     1      28.257  -0.604  53.581  1.00  0.00     0.119 C 
HETATM    3  C2  UNL     1      27.325   0.396  53.114  1.00  0.00     0.136 A 
HETATM    4  C3  UNL     1      26.632   1.224  54.008  1.00  0.00     0.044 A 
HETATM    5  C4  UNL     1      25.751   2.168  53.518  1.00  0.00     0.021 A 
HETATM    6  C5  UNL     1      25.533   2.319  52.164  1.00  0.00     0.050 A 
HETATM    7  C22 UNL     1      26.229   1.490  51.309  1.00  0.00     0.135 A 
HETATM    8  N7  UNL     1      27.087   0.570  51.785  1.00  0.00    -0.249 NA
ENDROOT
BRANCH   6   9
HETATM    9  C6  UNL     1      24.628   3.279  51.539  1.00  0.00     0.257 C 
HETATM   10  O1  UNL     1      24.963   4.115  50.675  1.00  0.00    -0.267 OA
HETATM   11  N2  UNL     1      23.244   3.340  51.878  1.00  0.00    -0.322 N 
HETATM   12  H3  UNL     1      22.837   2.693  52.590  1.00  0.00     0.169 HD
BRANCH  11  13
HETATM   13  C7  UNL     1      22.361   4.283  51.263  1.00  0.00     0.045 A 
HETATM   14  C8  UNL     1      21.737   4.423  50.095  1.00  0.00    -0.008 A 
HETATM   15  C20 UNL     1      21.130   5.679  50.515  1.00  0.00     0.016 A 
HETATM   16  C21 UNL     1      21.747   5.553  51.682  1.00  0.00     0.031 A 
BRANCH  14  17
HETATM   17  C9  UNL     1      21.683   3.626  48.880  1.00  0.00     0.031 C 
HETATM   18  C10 UNL     1      20.630   2.907  48.584  1.00  0.00     0.107 C 
BRANCH  18  19
HETATM   19  N3  UNL     1      19.433   2.782  49.340  1.00  0.00    -0.198 N 
HETATM   20  H6  UNL     1      18.696   3.513  49.239  1.00  0.00     0.183 HD
BRANCH  19  21
HETATM   21  C11 UNL     1      19.177   1.707  50.238  1.00  0.00     0.726 A 
HETATM   22  N4  UNL     1      17.984   1.089  50.292  1.00  0.00    -0.075 NA
HETATM   23  C12 UNL     1      17.715   0.072  51.130  1.00  0.00     0.139 A 
HETATM   24  C13 UNL     1      18.742  -0.331  51.961  1.00  0.00     0.053 A 
HETATM   25  C14 UNL     1      19.979   0.276  51.937  1.00  0.00     0.089 A 
HETATM   26  N6  UNL     1      20.155   1.271  51.078  1.00  0.00    -0.062 NA
BRANCH  25  27
HETATM   27  C15 UNL     1      21.090  -0.113  52.793  1.00  0.00     0.011 A 
HETATM   28  C16 UNL     1      20.800  -0.565  54.060  1.00  0.00     0.017 A 
HETATM   29  C17 UNL     1      21.869  -0.926  54.854  1.00  0.00     0.020 A 
HETATM   30  C18 UNL     1      23.220  -0.875  54.486  1.00  0.00     0.116 A 
HETATM   31  N5  UNL     1      23.439  -0.419  53.221  1.00  0.00    -0.272 NA
HETATM   32  C19 UNL     1      22.418  -0.059  52.425  1.00  0.00     0.130 A 
ENDBRANCH  25  27
ENDBRANCH  19  21
ENDBRANCH  18  19
ENDBRANCH  14  17
ENDBRANCH  11  13
ENDBRANCH   6   9
TORSDOF 6
ENDMDL
