MODEL 1
REMARK VINA RESULT:      -7.5      0.000      0.000
REMARK  7 active torsions:
REMARK  status: ('A' for Active; 'I' for Inactive)
REMARK    1  A    between atoms: C1_2  and  C2_3 
REMARK       I    between atoms: C1_2  and  N2_12 
REMARK    2  A    between atoms: C3_4  and  C4_5 
REMARK    3  A    between atoms: C4_5  and  N1_6 
REMARK    4  A    between atoms: N2_12  and  C9_13 
REMARK    5  A    between atoms: C9_13  and  C10_14 
REMARK    6  A    between atoms: C11_15  and  C12_16 
REMARK    7  A    between atoms: C13_17  and  N3_18 
ROOT
HETATM    1  O1  UNL     1      24.498   4.028  49.028  1.00  0.00    -0.269 OA
HETATM    2  C1  UNL     1      24.816   4.214  50.230  1.00  0.00     0.241 C 
HETATM    3  N2  UNL     1      25.849   5.180  50.289  1.00  0.00    -0.354 N 
HETATM    4  H13 UNL     1      26.272   5.492  51.214  1.00  0.00     0.163 HD
ENDROOT
BRANCH   3   5
HETATM    5  C9  UNL     1      26.240   5.671  48.973  1.00  0.00     0.150 C 
BRANCH   5   6
HETATM    6  C10 UNL     1      27.605   5.147  48.704  1.00  0.00    -0.007 C 
HETATM    7  C11 UNL     1      28.603   5.907  48.280  1.00  0.00    -0.001 C 
BRANCH   7   8
HETATM    8  C12 UNL     1      29.973   5.472  47.991  1.00  0.00     0.017 C 
HETATM    9  C13 UNL     1      30.995   5.725  48.793  1.00  0.00     0.096 C 
BRANCH   9  10
HETATM   10  N3  UNL     1      32.275   5.227  48.362  1.00  0.00    -0.342 N 
HETATM   11  C14 UNL     1      32.543   3.998  47.690  1.00  0.00     0.092 A 
HETATM   12  C15 UNL     1      33.768   3.691  47.365  1.00  0.00    -0.004 A 
HETATM   13  C16 UNL     1      34.941   4.558  47.656  1.00  0.00     0.081 A 
HETATM   14  C17 UNL     1      34.585   5.801  48.346  1.00  0.00     0.031 A 
HETATM   15 CL1  UNL     1      35.943   6.835  48.699  1.00  0.00    -0.087 Cl
HETATM   16  C18 UNL     1      33.354   6.108  48.673  1.00  0.00     0.115 A 
ENDBRANCH   9  10
ENDBRANCH   7   8
ENDBRANCH   5   6
ENDBRANCH   3   5
BRANCH   2  17
HETATM   17  C2  UNL     1      24.276   3.595  51.428  1.00  0.00     0.072 C 
HETATM   18  C3  UNL     1      24.791   2.556  52.037  1.00  0.00     0.008 C 
BRANCH  18  19
HETATM   19  C4  UNL     1      25.990   1.742  51.732  1.00  0.00     0.300 C 
BRANCH  19  20
HETATM   20  N1  UNL     1      25.929   0.483  52.452  1.00  0.00     0.096 N 
HETATM   21  C5  UNL     1      27.199   0.149  53.066  1.00  0.00     0.299 C 
HETATM   22  C6  UNL     1      27.198   0.354  54.561  1.00  0.00     0.198 C 
HETATM   23  O2  UNL     1      26.258  -0.464  55.192  1.00  0.00    -0.388 OA
HETATM   24  C7  UNL     1      25.157  -0.687  54.378  1.00  0.00     0.198 C 
HETATM   25  C8  UNL     1      24.880   0.452  53.427  1.00  0.00     0.299 C 
ENDBRANCH  19  20
ENDBRANCH  18  19
ENDBRANCH   2  17
TORSDOF 7
ENDMDL
MODEL 2
REMARK VINA RESULT:      -7.5      1.499      2.010
REMARK  7 active torsions:
REMARK  status: ('A' for Active; 'I' for Inactive)
REMARK    1  A    between atoms: C1_2  and  C2_3 
REMARK       I    between atoms: C1_2  and  N2_12 
REMARK    2  A    between atoms: C3_4  and  C4_5 
REMARK    3  A    between atoms: C4_5  and  N1_6 
REMARK    4  A    between atoms: N2_12  and  C9_13 
REMARK    5  A    between atoms: C9_13  and  C10_14 
REMARK    6  A    between atoms: C11_15  and  C12_16 
REMARK    7  A    between atoms: C13_17  and  N3_18 
ROOT
HETATM    1  O1  UNL     1      24.499   3.347  49.428  1.00  0.00    -0.269 OA
HETATM    2  C1  UNL     1      24.873   3.738  50.563  1.00  0.00     0.241 C 
HETATM    3  N2  UNL     1      25.809   4.788  50.402  1.00  0.00    -0.354 N 
HETATM    4  H13 UNL     1      26.257   5.271  51.238  1.00  0.00     0.163 HD
ENDROOT
BRANCH   3   5
HETATM    5  C9  UNL     1      26.066   5.109  49.004  1.00  0.00     0.150 C 
BRANCH   5   6
HETATM    6  C10 UNL     1      27.502   4.822  48.751  1.00  0.00    -0.007 C 
HETATM    7  C11 UNL     1      28.367   5.742  48.354  1.00  0.00    -0.001 C 
BRANCH   7   8
HETATM    8  C12 UNL     1      29.794   5.543  48.083  1.00  0.00     0.017 C 
HETATM    9  C13 UNL     1      30.747   6.242  48.679  1.00  0.00     0.096 C 
BRANCH   9  10
HETATM   10  N3  UNL     1      32.098   5.922  48.299  1.00  0.00    -0.342 N 
HETATM   11  C14 UNL     1      33.243   6.769  48.382  1.00  0.00     0.092 A 
HETATM   12  C15 UNL     1      34.406   6.326  47.995  1.00  0.00    -0.004 A 
HETATM   13  C16 UNL     1      34.630   4.957  47.455  1.00  0.00     0.081 A 
HETATM   14  C17 UNL     1      33.408   4.149  47.402  1.00  0.00     0.031 A 
HETATM   15 CL1  UNL     1      33.643   2.541  46.773  1.00  0.00    -0.087 Cl
HETATM   16  C18 UNL     1      32.240   4.596  47.791  1.00  0.00     0.115 A 
ENDBRANCH   9  10
ENDBRANCH   7   8
ENDBRANCH   5   6
ENDBRANCH   3   5
BRANCH   2  17
HETATM   17  C2  UNL     1      24.473   3.261  51.875  1.00  0.00     0.072 C 
HETATM   18  C3  UNL     1      25.097   2.338  52.564  1.00  0.00     0.008 C 
BRANCH  18  19
HETATM   19  C4  UNL     1      26.312   1.547  52.258  1.00  0.00     0.300 C 
BRANCH  19  20
HETATM   20  N1  UNL     1      26.752   0.838  53.446  1.00  0.00     0.096 N 
HETATM   21  C5  UNL     1      26.679  -0.599  53.277  1.00  0.00     0.299 C 
HETATM   22  C6  UNL     1      28.034  -1.236  53.084  1.00  0.00     0.198 C 
HETATM   23  O2  UNL     1      28.858  -1.037  54.194  1.00  0.00    -0.388 OA
HETATM   24  C7  UNL     1      28.584   0.172  54.817  1.00  0.00     0.198 C 
HETATM   25  C8  UNL     1      28.066   1.225  53.867  1.00  0.00     0.299 C 
ENDBRANCH  19  20
ENDBRANCH  18  19
ENDBRANCH   2  17
TORSDOF 7
ENDMDL
MODEL 3
REMARK VINA RESULT:      -7.4      3.909      8.915
REMARK  7 active torsions:
REMARK  status: ('A' for Active; 'I' for Inactive)
REMARK    1  A    between atoms: C1_2  and  C2_3 
REMARK       I    between atoms: C1_2  and  N2_12 
REMARK    2  A    between atoms: C3_4  and  C4_5 
REMARK    3  A    between atoms: C4_5  and  N1_6 
REMARK    4  A    between atoms: N2_12  and  C9_13 
REMARK    5  A    between atoms: C9_13  and  C10_14 
REMARK    6  A    between atoms: C11_15  and  C12_16 
REMARK    7  A    between atoms: C13_17  and  N3_18 
ROOT
HETATM    1  O1  UNL     1      29.211   7.038  47.085  1.00  0.00    -0.269 OA
HETATM    2  C1  UNL     1      29.396   7.412  48.271  1.00  0.00     0.241 C 
HETATM    3  N2  UNL     1      28.230   7.141  49.025  1.00  0.00    -0.354 N 
HETATM    4  H13 UNL     1      28.166   7.377  50.061  1.00  0.00     0.163 HD
ENDROOT
BRANCH   3   5
HETATM    5  C9  UNL     1      27.174   6.521  48.235  1.00  0.00     0.150 C 
BRANCH   5   6
HETATM    6  C10 UNL     1      26.545   5.482  49.091  1.00  0.00    -0.007 C 
HETATM    7  C11 UNL     1      27.030   4.256  49.217  1.00  0.00    -0.001 C 
BRANCH   7   8
HETATM    8  C12 UNL     1      26.473   3.175  50.037  1.00  0.00     0.017 C 
HETATM    9  C13 UNL     1      25.513   3.366  50.928  1.00  0.00     0.096 C 
BRANCH   9  10
HETATM   10  N3  UNL     1      25.079   2.199  51.650  1.00  0.00    -0.342 N 
HETATM   11  C14 UNL     1      23.777   1.939  52.170  1.00  0.00     0.092 A 
HETATM   12  C15 UNL     1      23.544   0.824  52.806  1.00  0.00    -0.004 A 
HETATM   13  C16 UNL     1      24.572  -0.226  53.034  1.00  0.00     0.081 A 
HETATM   14  C17 UNL     1      25.882   0.114  52.470  1.00  0.00     0.031 A 
HETATM   15 CL1  UNL     1      27.105  -1.101  52.724  1.00  0.00    -0.087 Cl
HETATM   16  C18 UNL     1      26.115   1.234  51.832  1.00  0.00     0.115 A 
ENDBRANCH   9  10
ENDBRANCH   7   8
ENDBRANCH   5   6
ENDBRANCH   3   5
BRANCH   2  17
HETATM   17  C2  UNL     1      30.570   8.027  48.865  1.00  0.00     0.072 C 
HETATM   18  C3  UNL     1      31.612   7.378  49.323  1.00  0.00     0.008 C 
BRANCH  18  19
HETATM   19  C4  UNL     1      31.910   5.928  49.379  1.00  0.00     0.300 C 
BRANCH  19  20
HETATM   20  N1  UNL     1      32.639   5.527  48.190  1.00  0.00     0.096 N 
HETATM   21  C5  UNL     1      34.024   5.947  48.236  1.00  0.00     0.299 C 
HETATM   22  C6  UNL     1      34.973   4.806  48.514  1.00  0.00     0.198 C 
HETATM   23  O2  UNL     1      34.917   3.835  47.512  1.00  0.00    -0.388 OA
HETATM   24  C7  UNL     1      33.646   3.750  46.962  1.00  0.00     0.198 C 
HETATM   25  C8  UNL     1      32.552   4.119  47.935  1.00  0.00     0.299 C 
ENDBRANCH  19  20
ENDBRANCH  18  19
ENDBRANCH   2  17
TORSDOF 7
ENDMDL
MODEL 4
REMARK VINA RESULT:      -7.0      2.922      3.401
REMARK  7 active torsions:
REMARK  status: ('A' for Active; 'I' for Inactive)
REMARK    1  A    between atoms: C1_2  and  C2_3 
REMARK       I    between atoms: C1_2  and  N2_12 
REMARK    2  A    between atoms: C3_4  and  C4_5 
REMARK    3  A    between atoms: C4_5  and  N1_6 
REMARK    4  A    between atoms: N2_12  and  C9_13 
REMARK    5  A    between atoms: C9_13  and  C10_14 
REMARK    6  A    between atoms: C11_15  and  C12_16 
REMARK    7  A    between atoms: C13_17  and  N3_18 
ROOT
HETATM    1  O1  UNL     1      23.840   3.282  50.342  1.00  0.00    -0.269 OA
HETATM    2  C1  UNL     1      24.680   3.382  51.272  1.00  0.00     0.241 C 
HETATM    3  N2  UNL     1      25.877   3.932  50.754  1.00  0.00    -0.354 N 
HETATM    4  H13 UNL     1      26.727   4.105  51.371  1.00  0.00     0.163 HD
ENDROOT
BRANCH   3   5
HETATM    5  C9  UNL     1      25.798   4.220  49.327  1.00  0.00     0.150 C 
BRANCH   5   6
HETATM    6  C10 UNL     1      26.775   5.305  49.049  1.00  0.00    -0.007 C 
HETATM    7  C11 UNL     1      27.971   5.087  48.526  1.00  0.00    -0.001 C 
BRANCH   7   8
HETATM    8  C12 UNL     1      28.990   6.097  48.221  1.00  0.00     0.017 C 
HETATM    9  C13 UNL     1      28.757   7.399  48.282  1.00  0.00     0.096 C 
BRANCH   9  10
HETATM   10  N3  UNL     1      29.866   8.256  47.952  1.00  0.00    -0.342 N 
HETATM   11  C14 UNL     1      30.934   7.978  47.049  1.00  0.00     0.092 A 
HETATM   12  C15 UNL     1      31.869   8.866  46.858  1.00  0.00    -0.004 A 
HETATM   13  C16 UNL     1      31.901  10.190  47.537  1.00  0.00     0.081 A 
HETATM   14  C17 UNL     1      30.770  10.401  48.446  1.00  0.00     0.031 A 
HETATM   15 CL1  UNL     1      30.783  11.945  49.254  1.00  0.00    -0.087 Cl
HETATM   16  C18 UNL     1      29.832   9.507  48.637  1.00  0.00     0.115 A 
ENDBRANCH   9  10
ENDBRANCH   7   8
ENDBRANCH   5   6
ENDBRANCH   3   5
BRANCH   2  17
HETATM   17  C2  UNL     1      24.544   3.022  52.673  1.00  0.00     0.072 C 
HETATM   18  C3  UNL     1      24.817   1.846  53.178  1.00  0.00     0.008 C 
BRANCH  18  19
HETATM   19  C4  UNL     1      25.312   0.602  52.544  1.00  0.00     0.300 C 
BRANCH  19  20
HETATM   20  N1  UNL     1      26.634   0.281  53.050  1.00  0.00     0.096 N 
HETATM   21  C5  UNL     1      27.648   1.167  52.513  1.00  0.00     0.299 C 
HETATM   22  C6  UNL     1      28.128   2.184  53.520  1.00  0.00     0.198 C 
HETATM   23  O2  UNL     1      28.722   1.571  54.626  1.00  0.00    -0.388 OA
HETATM   24  C7  UNL     1      28.142   0.340  54.894  1.00  0.00     0.198 C 
HETATM   25  C8  UNL     1      26.691   0.265  54.481  1.00  0.00     0.299 C 
ENDBRANCH  19  20
ENDBRANCH  18  19
ENDBRANCH   2  17
TORSDOF 7
ENDMDL
MODEL 5
REMARK VINA RESULT:      -6.9      4.391      9.096
REMARK  7 active torsions:
REMARK  status: ('A' for Active; 'I' for Inactive)
REMARK    1  A    between atoms: C1_2  and  C2_3 
REMARK       I    between atoms: C1_2  and  N2_12 
REMARK    2  A    between atoms: C3_4  and  C4_5 
REMARK    3  A    between atoms: C4_5  and  N1_6 
REMARK    4  A    between atoms: N2_12  and  C9_13 
REMARK    5  A    between atoms: C9_13  and  C10_14 
REMARK    6  A    between atoms: C11_15  and  C12_16 
REMARK    7  A    between atoms: C13_17  and  N3_18 
ROOT
HETATM    1  O1  UNL     1      28.009   8.088  47.369  1.00  0.00    -0.269 OA
HETATM    2  C1  UNL     1      28.789   7.648  48.251  1.00  0.00     0.241 C 
HETATM    3  N2  UNL     1      28.146   6.602  48.954  1.00  0.00    -0.354 N 
HETATM    4  H13 UNL     1      28.627   6.083  49.749  1.00  0.00     0.163 HD
ENDROOT
BRANCH   3   5
HETATM    5  C9  UNL     1      26.797   6.338  48.469  1.00  0.00     0.150 C 
BRANCH   5   6
HETATM    6  C10 UNL     1      26.242   5.242  49.306  1.00  0.00    -0.007 C 
HETATM    7  C11 UNL     1      26.754   4.022  49.334  1.00  0.00    -0.001 C 
BRANCH   7   8
HETATM    8  C12 UNL     1      26.270   2.888  50.128  1.00  0.00     0.017 C 
HETATM    9  C13 UNL     1      26.789   2.552  51.299  1.00  0.00     0.096 C 
BRANCH   9  10
HETATM   10  N3  UNL     1      26.198   1.412  51.949  1.00  0.00    -0.342 N 
HETATM   11  C14 UNL     1      26.843   0.193  52.311  1.00  0.00     0.092 A 
HETATM   12  C15 UNL     1      26.162  -0.751  52.899  1.00  0.00    -0.004 A 
HETATM   13  C16 UNL     1      24.715  -0.642  53.229  1.00  0.00     0.081 A 
HETATM   14  C17 UNL     1      24.125   0.638  52.826  1.00  0.00     0.031 A 
HETATM   15 CL1  UNL     1      22.430   0.791  53.201  1.00  0.00    -0.087 Cl
HETATM   16  C18 UNL     1      24.810   1.586  52.235  1.00  0.00     0.115 A 
ENDBRANCH   9  10
ENDBRANCH   7   8
ENDBRANCH   5   6
ENDBRANCH   3   5
BRANCH   2  17
HETATM   17  C2  UNL     1      30.141   8.073  48.573  1.00  0.00     0.072 C 
HETATM   18  C3  UNL     1      31.164   7.271  48.735  1.00  0.00     0.008 C 
BRANCH  18  19
HETATM   19  C4  UNL     1      31.270   5.796  48.651  1.00  0.00     0.300 C 
BRANCH  19  20
HETATM   20  N1  UNL     1      32.519   5.427  48.009  1.00  0.00     0.096 N 
HETATM   21  C5  UNL     1      32.631   3.993  47.828  1.00  0.00     0.299 C 
HETATM   22  C6  UNL     1      32.424   3.567  46.394  1.00  0.00     0.198 C 
HETATM   23  O2  UNL     1      33.387   4.121  45.549  1.00  0.00    -0.388 OA
HETATM   24  C7  UNL     1      33.797   5.368  45.999  1.00  0.00     0.198 C 
HETATM   25  C8  UNL     1      32.724   6.105  46.764  1.00  0.00     0.299 C 
ENDBRANCH  19  20
ENDBRANCH  18  19
ENDBRANCH   2  17
TORSDOF 7
ENDMDL
MODEL 6
REMARK VINA RESULT:      -6.8      6.039      8.429
REMARK  7 active torsions:
REMARK  status: ('A' for Active; 'I' for Inactive)
REMARK    1  A    between atoms: C1_2  and  C2_3 
REMARK       I    between atoms: C1_2  and  N2_12 
REMARK    2  A    between atoms: C3_4  and  C4_5 
REMARK    3  A    between atoms: C4_5  and  N1_6 
REMARK    4  A    between atoms: N2_12  and  C9_13 
REMARK    5  A    between atoms: C9_13  and  C10_14 
REMARK    6  A    between atoms: C11_15  and  C12_16 
REMARK    7  A    between atoms: C13_17  and  N3_18 
ROOT
HETATM    1  O1  UNL     1      18.753  -1.598  53.193  1.00  0.00    -0.269 OA
HETATM    2  C1  UNL     1      19.109  -0.452  52.815  1.00  0.00     0.241 C 
HETATM    3  N2  UNL     1      20.378  -0.159  53.369  1.00  0.00    -0.354 N 
HETATM    4  H13 UNL     1      20.872   0.764  53.178  1.00  0.00     0.163 HD
ENDROOT
BRANCH   3   5
HETATM    5  C9  UNL     1      20.898  -1.239  54.197  1.00  0.00     0.150 C 
BRANCH   5   6
HETATM    6  C10 UNL     1      22.374  -1.068  54.256  1.00  0.00    -0.007 C 
HETATM    7  C11 UNL     1      23.076  -0.499  53.289  1.00  0.00    -0.001 C 
BRANCH   7   8
HETATM    8  C12 UNL     1      24.528  -0.291  53.267  1.00  0.00     0.017 C 
HETATM    9  C13 UNL     1      25.108   0.799  53.741  1.00  0.00     0.096 C 
BRANCH   9  10
HETATM   10  N3  UNL     1      26.544   0.846  53.643  1.00  0.00    -0.342 N 
HETATM   11  C14 UNL     1      27.373   2.005  53.646  1.00  0.00     0.092 A 
HETATM   12  C15 UNL     1      28.668   1.877  53.549  1.00  0.00    -0.004 A 
HETATM   13  C16 UNL     1      29.360   0.565  53.432  1.00  0.00     0.081 A 
HETATM   14  C17 UNL     1      28.441  -0.577  53.438  1.00  0.00     0.031 A 
HETATM   15 CL1  UNL     1      29.227  -2.126  53.302  1.00  0.00    -0.087 Cl
HETATM   16  C18 UNL     1      27.141  -0.447  53.535  1.00  0.00     0.115 A 
ENDBRANCH   9  10
ENDBRANCH   7   8
ENDBRANCH   5   6
ENDBRANCH   3   5
BRANCH   2  17
HETATM   17  C2  UNL     1      18.409   0.488  51.957  1.00  0.00     0.072 C 
HETATM   18  C3  UNL     1      18.903   1.028  50.871  1.00  0.00     0.008 C 
BRANCH  18  19
HETATM   19  C4  UNL     1      20.222   0.870  50.216  1.00  0.00     0.300 C 
BRANCH  19  20
HETATM   20  N1  UNL     1      21.157   1.845  50.746  1.00  0.00     0.096 N 
HETATM   21  C5  UNL     1      22.495   1.652  50.224  1.00  0.00     0.299 C 
HETATM   22  C6  UNL     1      22.876   2.687  49.193  1.00  0.00     0.198 C 
HETATM   23  O2  UNL     1      22.874   3.975  49.734  1.00  0.00    -0.388 OA
HETATM   24  C7  UNL     1      21.920   4.102  50.733  1.00  0.00     0.198 C 
HETATM   25  C8  UNL     1      20.729   3.196  50.536  1.00  0.00     0.299 C 
ENDBRANCH  19  20
ENDBRANCH  18  19
ENDBRANCH   2  17
TORSDOF 7
ENDMDL
MODEL 7
REMARK VINA RESULT:      -6.7      5.655      7.869
REMARK  7 active torsions:
REMARK  status: ('A' for Active; 'I' for Inactive)
REMARK    1  A    between atoms: C1_2  and  C2_3 
REMARK       I    between atoms: C1_2  and  N2_12 
REMARK    2  A    between atoms: C3_4  and  C4_5 
REMARK    3  A    between atoms: C4_5  and  N1_6 
REMARK    4  A    between atoms: N2_12  and  C9_13 
REMARK    5  A    between atoms: C9_13  and  C10_14 
REMARK    6  A    between atoms: C11_15  and  C12_16 
REMARK    7  A    between atoms: C13_17  and  N3_18 
ROOT
HETATM    1  O1  UNL     1      19.335  -0.190  52.228  1.00  0.00    -0.269 OA
HETATM    2  C1  UNL     1      19.813   0.960  52.058  1.00  0.00     0.241 C 
HETATM    3  N2  UNL     1      20.862   1.164  52.986  1.00  0.00    -0.354 N 
HETATM    4  H13 UNL     1      21.411   2.075  53.019  1.00  0.00     0.163 HD
ENDROOT
BRANCH   3   5
HETATM    5  C9  UNL     1      21.085   0.013  53.852  1.00  0.00     0.150 C 
BRANCH   5   6
HETATM    6  C10 UNL     1      22.556  -0.170  53.959  1.00  0.00    -0.007 C 
HETATM    7  C11 UNL     1      23.422   0.440  53.164  1.00  0.00    -0.001 C 
BRANCH   7   8
HETATM    8  C12 UNL     1      24.883   0.315  53.202  1.00  0.00     0.017 C 
HETATM    9  C13 UNL     1      25.504  -0.826  53.456  1.00  0.00     0.096 C 
BRANCH   9  10
HETATM   10  N3  UNL     1      26.942  -0.776  53.456  1.00  0.00    -0.342 N 
HETATM   11  C14 UNL     1      27.843  -1.818  53.084  1.00  0.00     0.092 A 
HETATM   12  C15 UNL     1      29.129  -1.613  53.140  1.00  0.00    -0.004 A 
HETATM   13  C16 UNL     1      29.742  -0.330  53.579  1.00  0.00     0.081 A 
HETATM   14  C17 UNL     1      28.753   0.689  53.944  1.00  0.00     0.031 A 
HETATM   15 CL1  UNL     1      29.446   2.202  54.462  1.00  0.00    -0.087 Cl
HETATM   16  C18 UNL     1      27.461   0.482  53.887  1.00  0.00     0.115 A 
ENDBRANCH   9  10
ENDBRANCH   7   8
ENDBRANCH   5   6
ENDBRANCH   3   5
BRANCH   2  17
HETATM   17  C2  UNL     1      19.425   1.981  51.100  1.00  0.00     0.072 C 
HETATM   18  C3  UNL     1      20.216   2.508  50.199  1.00  0.00     0.008 C 
BRANCH  18  19
HETATM   19  C4  UNL     1      21.642   2.258  49.887  1.00  0.00     0.300 C 
BRANCH  19  20
HETATM   20  N1  UNL     1      22.385   3.504  49.934  1.00  0.00     0.096 N 
HETATM   21  C5  UNL     1      22.963   3.741  51.241  1.00  0.00     0.299 C 
HETATM   22  C6  UNL     1      24.454   3.508  51.272  1.00  0.00     0.198 C 
HETATM   23  O2  UNL     1      25.128   4.375  50.409  1.00  0.00    -0.388 OA
HETATM   24  C7  UNL     1      24.354   4.688  49.302  1.00  0.00     0.198 C 
HETATM   25  C8  UNL     1      23.393   3.588  48.919  1.00  0.00     0.299 C 
ENDBRANCH  19  20
ENDBRANCH  18  19
ENDBRANCH   2  17
TORSDOF 7
ENDMDL
MODEL 8
REMARK VINA RESULT:      -6.6      4.349      7.204
REMARK  7 active torsions:
REMARK  status: ('A' for Active; 'I' for Inactive)
REMARK    1  A    between atoms: C1_2  and  C2_3 
REMARK       I    between atoms: C1_2  and  N2_12 
REMARK    2  A    between atoms: C3_4  and  C4_5 
REMARK    3  A    between atoms: C4_5  and  N1_6 
REMARK    4  A    between atoms: N2_12  and  C9_13 
REMARK    5  A    between atoms: C9_13  and  C10_14 
REMARK    6  A    between atoms: C11_15  and  C12_16 
REMARK    7  A    between atoms: C13_17  and  N3_18 
ROOT
HETATM    1  O1  UNL     1      25.459   7.372  47.881  1.00  0.00    -0.269 OA
HETATM    2  C1  UNL     1      25.984   7.809  48.936  1.00  0.00     0.241 C 
HETATM    3  N2  UNL     1      26.529   6.723  49.662  1.00  0.00    -0.354 N 
HETATM    4  H13 UNL     1      27.026   6.865  50.593  1.00  0.00     0.163 HD
ENDROOT
BRANCH   3   5
HETATM    5  C9  UNL     1      26.333   5.441  48.997  1.00  0.00     0.150 C 
BRANCH   5   6
HETATM    6  C10 UNL     1      27.683   4.910  48.673  1.00  0.00    -0.007 C 
HETATM    7  C11 UNL     1      28.698   5.681  48.316  1.00  0.00    -0.001 C 
BRANCH   7   8
HETATM    8  C12 UNL     1      30.056   5.240  47.980  1.00  0.00     0.017 C 
HETATM    9  C13 UNL     1      31.136   5.696  48.595  1.00  0.00     0.096 C 
BRANCH   9  10
HETATM   10  N3  UNL     1      32.394   5.160  48.144  1.00  0.00    -0.342 N 
HETATM   11  C14 UNL     1      32.599   4.133  47.176  1.00  0.00     0.092 A 
HETATM   12  C15 UNL     1      33.811   3.758  46.876  1.00  0.00    -0.004 A 
HETATM   13  C16 UNL     1      35.032   4.344  47.492  1.00  0.00     0.081 A 
HETATM   14  C17 UNL     1      34.740   5.392  48.474  1.00  0.00     0.031 A 
HETATM   15 CL1  UNL     1      36.154   6.096  49.210  1.00  0.00    -0.087 Cl
HETATM   16  C18 UNL     1      33.521   5.768  48.775  1.00  0.00     0.115 A 
ENDBRANCH   9  10
ENDBRANCH   7   8
ENDBRANCH   5   6
ENDBRANCH   3   5
BRANCH   2  17
HETATM   17  C2  UNL     1      26.070   9.176  49.420  1.00  0.00     0.072 C 
HETATM   18  C3  UNL     1      27.183   9.811  49.691  1.00  0.00     0.008 C 
BRANCH  18  19
HETATM   19  C4  UNL     1      28.597   9.382  49.601  1.00  0.00     0.300 C 
BRANCH  19  20
HETATM   20  N1  UNL     1      29.265  10.100  48.531  1.00  0.00     0.096 N 
HETATM   21  C5  UNL     1      29.213  11.535  48.728  1.00  0.00     0.299 C 
HETATM   22  C6  UNL     1      30.535  12.112  49.176  1.00  0.00     0.198 C 
HETATM   23  O2  UNL     1      31.534  11.907  48.222  1.00  0.00    -0.388 OA
HETATM   24  C7  UNL     1      31.332  10.726  47.523  1.00  0.00     0.198 C 
HETATM   25  C8  UNL     1      30.618   9.672  48.335  1.00  0.00     0.299 C 
ENDBRANCH  19  20
ENDBRANCH  18  19
ENDBRANCH   2  17
TORSDOF 7
ENDMDL
MODEL 9
REMARK VINA RESULT:      -6.6      2.387      3.118
REMARK  7 active torsions:
REMARK  status: ('A' for Active; 'I' for Inactive)
REMARK    1  A    between atoms: C1_2  and  C2_3 
REMARK       I    between atoms: C1_2  and  N2_12 
REMARK    2  A    between atoms: C3_4  and  C4_5 
REMARK    3  A    between atoms: C4_5  and  N1_6 
REMARK    4  A    between atoms: N2_12  and  C9_13 
REMARK    5  A    between atoms: C9_13  and  C10_14 
REMARK    6  A    between atoms: C11_15  and  C12_16 
REMARK    7  A    between atoms: C13_17  and  N3_18 
ROOT
HETATM    1  O1  UNL     1      23.529   4.616  52.716  1.00  0.00    -0.269 OA
HETATM    2  C1  UNL     1      23.683   3.594  52.001  1.00  0.00     0.241 C 
HETATM    3  N2  UNL     1      23.837   3.995  50.652  1.00  0.00    -0.354 N 
HETATM    4  H13 UNL     1      23.983   3.287  49.871  1.00  0.00     0.163 HD
ENDROOT
BRANCH   3   5
HETATM    5  C9  UNL     1      23.775   5.440  50.480  1.00  0.00     0.150 C 
BRANCH   5   6
HETATM    6  C10 UNL     1      25.133   5.887  50.072  1.00  0.00    -0.007 C 
HETATM    7  C11 UNL     1      25.738   5.457  48.976  1.00  0.00    -0.001 C 
BRANCH   7   8
HETATM    8  C12 UNL     1      27.071   5.846  48.503  1.00  0.00     0.017 C 
HETATM    9  C13 UNL     1      28.140   5.078  48.645  1.00  0.00     0.096 C 
BRANCH   9  10
HETATM   10  N3  UNL     1      29.373   5.608  48.126  1.00  0.00    -0.342 N 
HETATM   11  C14 UNL     1      30.516   4.872  47.694  1.00  0.00     0.092 A 
HETATM   12  C15 UNL     1      31.564   5.507  47.245  1.00  0.00    -0.004 A 
HETATM   13  C16 UNL     1      31.652   6.989  47.150  1.00  0.00     0.081 A 
HETATM   14  C17 UNL     1      30.440   7.672  47.611  1.00  0.00     0.031 A 
HETATM   15 CL1  UNL     1      30.519   9.410  47.509  1.00  0.00    -0.087 Cl
HETATM   16  C18 UNL     1      29.389   7.034  48.062  1.00  0.00     0.115 A 
ENDBRANCH   9  10
ENDBRANCH   7   8
ENDBRANCH   5   6
ENDBRANCH   3   5
BRANCH   2  17
HETATM   17  C2  UNL     1      23.714   2.196  52.395  1.00  0.00     0.072 C 
HETATM   18  C3  UNL     1      24.734   1.593  52.952  1.00  0.00     0.008 C 
BRANCH  18  19
HETATM   19  C4  UNL     1      26.076   2.093  53.331  1.00  0.00     0.300 C 
BRANCH  19  20
HETATM   20  N1  UNL     1      26.763   1.103  54.140  1.00  0.00     0.096 N 
HETATM   21  C5  UNL     1      26.317  -0.243  53.842  1.00  0.00     0.299 C 
HETATM   22  C6  UNL     1      27.324  -1.029  53.037  1.00  0.00     0.198 C 
HETATM   23  O2  UNL     1      28.527  -1.184  53.730  1.00  0.00    -0.388 OA
HETATM   24  C7  UNL     1      28.780  -0.097  54.553  1.00  0.00     0.198 C 
HETATM   25  C8  UNL     1      28.189   1.191  54.033  1.00  0.00     0.299 C 
ENDBRANCH  19  20
ENDBRANCH  18  19
ENDBRANCH   2  17
TORSDOF 7
ENDMDL
