MODEL 1
REMARK VINA RESULT:      -8.7      0.000      0.000
REMARK  8 active torsions:
REMARK  status: ('A' for Active; 'I' for Inactive)
REMARK    1  A    between atoms: O1_2  and  C2_3 
REMARK    2  A    between atoms: C6_9  and  N3_10 
REMARK    3  A    between atoms: N3_10  and  C7_11 
REMARK    4  A    between atoms: C7_11  and  C8_12 
REMARK    5  A    between atoms: C16_22  and  C17_23 
REMARK    6  A    between atoms: C17_23  and  N4_24 
REMARK       I    between atoms: N4_24  and  C19_26 
REMARK    7  A    between atoms: C19_26  and  C20_28 
REMARK    8  A    between atoms: C20_28  and  N5_29 
ROOT
HETATM    1  C2  UNL     1      23.413  -0.079  53.319  1.00  0.00     0.078 A 
HETATM    2  C3  UNL     1      22.520   0.456  52.416  1.00  0.00     0.070 A 
HETATM    3  C4  UNL     1      22.854   1.493  51.573  1.00  0.00     0.074 A 
HETATM    4  N1  UNL     1      21.944   1.970  50.718  1.00  0.00    -0.241 NA
HETATM    5  C5  UNL     1      22.275   2.978  49.900  1.00  0.00     0.235 A 
HETATM    6  N2  UNL     1      23.510   3.500  49.944  1.00  0.00    -0.224 NA
HETATM    7  C6  UNL     1      24.488   3.090  50.764  1.00  0.00     0.137 A 
HETATM    8  C14 UNL     1      24.114   2.053  51.590  1.00  0.00     0.039 A 
HETATM    9  C15 UNL     1      24.998   1.523  52.484  1.00  0.00     0.029 A 
HETATM   10  C16 UNL     1      24.677   0.485  53.333  1.00  0.00    -0.006 A 
ENDROOT
BRANCH   7  11
HETATM   11  N3  UNL     1      25.782   3.678  50.774  1.00  0.00    -0.370 N 
HETATM   12  H6  UNL     1      26.120   4.172  51.626  1.00  0.00     0.161 HD
BRANCH  11  13
HETATM   13  C7  UNL     1      26.713   3.652  49.665  1.00  0.00     0.160 C 
BRANCH  13  14
HETATM   14  C8  UNL     1      26.886   4.956  48.990  1.00  0.00    -0.039 A 
HETATM   15  C9  UNL     1      28.199   5.146  48.543  1.00  0.00     0.012 A 
HETATM   16  C10 UNL     1      28.615   6.288  47.891  1.00  0.00     0.044 A 
HETATM   17  C11 UNL     1      27.714   7.308  47.655  1.00  0.00     0.138 A 
HETATM   18  F1  UNL     1      28.075   8.448  47.017  1.00  0.00    -0.204 F 
HETATM   19  C12 UNL     1      26.420   7.121  48.095  1.00  0.00     0.073 A 
HETATM   20 CL1  UNL     1      25.207   8.360  47.841  1.00  0.00    -0.081 Cl
HETATM   21  C13 UNL     1      25.999   5.981  48.748  1.00  0.00     0.035 A 
ENDBRANCH  13  14
ENDBRANCH  11  13
ENDBRANCH   7  11
BRANCH  10  22
HETATM   22  C17 UNL     1      25.642  -0.088  54.304  1.00  0.00     0.166 C 
BRANCH  22  23
HETATM   23  N4  UNL     1      26.824  -0.643  53.676  1.00  0.00    -0.351 N 
HETATM   24  C18 UNL     1      26.825  -1.715  52.696  1.00  0.00     0.153 C 
HETATM   25  C19 UNL     1      28.051  -0.052  54.090  1.00  0.00     0.247 C 
HETATM   26  O2  UNL     1      28.019   0.876  54.941  1.00  0.00    -0.271 OA
BRANCH  25  27
HETATM   27  C20 UNL     1      29.337  -0.542  53.511  1.00  0.00     0.369 C 
BRANCH  27  28
HETATM   28  N5  UNL     1      30.325   0.504  53.530  1.00  0.00     0.087 N 
HETATM   29  H20 UNL     1      30.174   1.221  54.269  1.00  0.00     0.313 HD
HETATM   30  H21 UNL     1      31.289   0.153  53.517  1.00  0.00     0.313 HD
ENDBRANCH  27  28
ENDBRANCH  25  27
ENDBRANCH  22  23
ENDBRANCH  10  22
BRANCH   1  31
HETATM   31  O1  UNL     1      23.085  -1.109  54.158  1.00  0.00    -0.355 OA
HETATM   32  C1  UNL     1      21.815  -1.483  54.590  1.00  0.00     0.210 C 
ENDBRANCH   1  31
TORSDOF 8
ENDMDL
MODEL 2
REMARK VINA RESULT:      -8.3      1.691      2.357
REMARK  8 active torsions:
REMARK  status: ('A' for Active; 'I' for Inactive)
REMARK    1  A    between atoms: O1_2  and  C2_3 
REMARK    2  A    between atoms: C6_9  and  N3_10 
REMARK    3  A    between atoms: N3_10  and  C7_11 
REMARK    4  A    between atoms: C7_11  and  C8_12 
REMARK    5  A    between atoms: C16_22  and  C17_23 
REMARK    6  A    between atoms: C17_23  and  N4_24 
REMARK       I    between atoms: N4_24  and  C19_26 
REMARK    7  A    between atoms: C19_26  and  C20_28 
REMARK    8  A    between atoms: C20_28  and  N5_29 
ROOT
HETATM    1  C2  UNL     1      23.674  -0.116  53.486  1.00  0.00     0.078 A 
HETATM    2  C3  UNL     1      22.380   0.332  53.641  1.00  0.00     0.070 A 
HETATM    3  C4  UNL     1      21.850   1.342  52.869  1.00  0.00     0.074 A 
HETATM    4  N1  UNL     1      20.587   1.734  53.067  1.00  0.00    -0.241 NA
HETATM    5  C5  UNL     1      20.077   2.716  52.312  1.00  0.00     0.235 A 
HETATM    6  N2  UNL     1      20.832   3.297  51.368  1.00  0.00    -0.224 NA
HETATM    7  C6  UNL     1      22.104   2.974  51.095  1.00  0.00     0.137 A 
HETATM    8  C14 UNL     1      22.596   1.961  51.889  1.00  0.00     0.039 A 
HETATM    9  C15 UNL     1      23.877   1.517  51.735  1.00  0.00     0.029 A 
HETATM   10  C16 UNL     1      24.420   0.508  52.501  1.00  0.00    -0.006 A 
ENDROOT
BRANCH   7  11
HETATM   11  N3  UNL     1      22.864   3.622  50.083  1.00  0.00    -0.370 N 
HETATM   12  H6  UNL     1      23.047   3.136  49.181  1.00  0.00     0.161 HD
BRANCH  11  13
HETATM   13  C7  UNL     1      23.427   4.951  50.193  1.00  0.00     0.160 C 
BRANCH  13  14
HETATM   14  C8  UNL     1      24.780   5.084  49.612  1.00  0.00    -0.039 A 
HETATM   15  C9  UNL     1      25.545   3.924  49.792  1.00  0.00     0.012 A 
HETATM   16  C10 UNL     1      26.845   3.802  49.347  1.00  0.00     0.044 A 
HETATM   17  C11 UNL     1      27.446   4.858  48.690  1.00  0.00     0.138 A 
HETATM   18  F1  UNL     1      28.719   4.785  48.234  1.00  0.00    -0.204 F 
HETATM   19  C12 UNL     1      26.693   6.000  48.512  1.00  0.00     0.073 A 
HETATM   20 CL1  UNL     1      27.370   7.392  47.689  1.00  0.00    -0.081 Cl
HETATM   21  C13 UNL     1      25.392   6.127  48.955  1.00  0.00     0.035 A 
ENDBRANCH  13  14
ENDBRANCH  11  13
ENDBRANCH   7  11
BRANCH  10  22
HETATM   22  C17 UNL     1      25.814   0.028  52.329  1.00  0.00     0.166 C 
BRANCH  22  23
HETATM   23  N4  UNL     1      26.758   0.686  53.210  1.00  0.00    -0.351 N 
HETATM   24  C18 UNL     1      26.728   2.093  53.566  1.00  0.00     0.153 C 
HETATM   25  C19 UNL     1      27.770  -0.164  53.738  1.00  0.00     0.247 C 
HETATM   26  O2  UNL     1      27.771  -1.380  53.411  1.00  0.00    -0.271 OA
BRANCH  25  27
HETATM   27  C20 UNL     1      28.800   0.402  54.659  1.00  0.00     0.369 C 
BRANCH  27  28
HETATM   28  N5  UNL     1      29.971   0.796  53.920  1.00  0.00     0.087 N 
HETATM   29  H20 UNL     1      29.911   1.747  53.499  1.00  0.00     0.313 HD
HETATM   30  H21 UNL     1      30.845   0.650  54.436  1.00  0.00     0.313 HD
ENDBRANCH  27  28
ENDBRANCH  25  27
ENDBRANCH  22  23
ENDBRANCH  10  22
BRANCH   1  31
HETATM   31  O1  UNL     1      24.204  -1.119  54.252  1.00  0.00    -0.355 OA
HETATM   32  C1  UNL     1      24.303  -1.167  55.640  1.00  0.00     0.210 C 
ENDBRANCH   1  31
TORSDOF 8
ENDMDL
MODEL 3
REMARK VINA RESULT:      -8.1      5.172      7.412
REMARK  8 active torsions:
REMARK  status: ('A' for Active; 'I' for Inactive)
REMARK    1  A    between atoms: O1_2  and  C2_3 
REMARK    2  A    between atoms: C6_9  and  N3_10 
REMARK    3  A    between atoms: N3_10  and  C7_11 
REMARK    4  A    between atoms: C7_11  and  C8_12 
REMARK    5  A    between atoms: C16_22  and  C17_23 
REMARK    6  A    between atoms: C17_23  and  N4_24 
REMARK       I    between atoms: N4_24  and  C19_26 
REMARK    7  A    between atoms: C19_26  and  C20_28 
REMARK    8  A    between atoms: C20_28  and  N5_29 
ROOT
HETATM    1  C2  UNL     1      19.369  -0.213  52.591  1.00  0.00     0.078 A 
HETATM    2  C3  UNL     1      19.893  -0.792  53.726  1.00  0.00     0.070 A 
HETATM    3  C4  UNL     1      21.244  -0.801  53.995  1.00  0.00     0.074 A 
HETATM    4  N1  UNL     1      21.693  -1.380  55.113  1.00  0.00    -0.241 NA
HETATM    5  C5  UNL     1      23.008  -1.385  55.369  1.00  0.00     0.235 A 
HETATM    6  N2  UNL     1      23.861  -0.813  54.506  1.00  0.00    -0.224 NA
HETATM    7  C6  UNL     1      23.508  -0.210  53.362  1.00  0.00     0.137 A 
HETATM    8  C14 UNL     1      22.150  -0.223  53.131  1.00  0.00     0.039 A 
HETATM    9  C15 UNL     1      21.631   0.350  52.007  1.00  0.00     0.029 A 
HETATM   10  C16 UNL     1      20.281   0.367  51.726  1.00  0.00    -0.006 A 
ENDROOT
BRANCH   7  11
HETATM   11  N3  UNL     1      24.452   0.380  52.478  1.00  0.00    -0.370 N 
HETATM   12  H6  UNL     1      24.391   0.193  51.455  1.00  0.00     0.161 HD
BRANCH  11  13
HETATM   13  C7  UNL     1      25.533   1.253  52.883  1.00  0.00     0.160 C 
BRANCH  13  14
HETATM   14  C8  UNL     1      26.824   0.562  53.086  1.00  0.00    -0.039 A 
HETATM   15  C9  UNL     1      27.850   1.455  53.424  1.00  0.00     0.012 A 
HETATM   16  C10 UNL     1      29.150   1.055  53.655  1.00  0.00     0.044 A 
HETATM   17  C11 UNL     1      29.484  -0.282  53.556  1.00  0.00     0.138 A 
HETATM   18  F1  UNL     1      30.746  -0.722  53.775  1.00  0.00    -0.204 F 
HETATM   19  C12 UNL     1      28.473  -1.161  53.225  1.00  0.00     0.073 A 
HETATM   20 CL1  UNL     1      28.801  -2.876  53.077  1.00  0.00    -0.081 Cl
HETATM   21  C13 UNL     1      27.172  -0.767  52.992  1.00  0.00     0.035 A 
ENDBRANCH  13  14
ENDBRANCH  11  13
ENDBRANCH   7  11
BRANCH  10  22
HETATM   22  C17 UNL     1      19.721   0.992  50.503  1.00  0.00     0.166 C 
BRANCH  22  23
HETATM   23  N4  UNL     1      20.181   2.349  50.291  1.00  0.00    -0.351 N 
HETATM   24  C18 UNL     1      19.918   3.469  51.177  1.00  0.00     0.153 C 
HETATM   25  C19 UNL     1      20.947   2.540  49.107  1.00  0.00     0.247 C 
HETATM   26  O2  UNL     1      21.160   1.549  48.358  1.00  0.00    -0.271 OA
BRANCH  25  27
HETATM   27  C20 UNL     1      21.478   3.897  48.783  1.00  0.00     0.369 C 
BRANCH  27  28
HETATM   28  N5  UNL     1      22.240   3.859  47.563  1.00  0.00     0.087 N 
HETATM   29  H20 UNL     1      23.023   4.545  47.527  1.00  0.00     0.313 HD
HETATM   30  H21 UNL     1      22.535   2.914  47.297  1.00  0.00     0.313 HD
ENDBRANCH  27  28
ENDBRANCH  25  27
ENDBRANCH  22  23
ENDBRANCH  10  22
BRANCH   1  31
HETATM   31  O1  UNL     1      18.027  -0.202  52.322  1.00  0.00    -0.355 OA
HETATM   32  C1  UNL     1      17.108  -1.226  52.538  1.00  0.00     0.210 C 
ENDBRANCH   1  31
TORSDOF 8
ENDMDL
MODEL 4
REMARK VINA RESULT:      -8.1      1.877      4.770
REMARK  8 active torsions:
REMARK  status: ('A' for Active; 'I' for Inactive)
REMARK    1  A    between atoms: O1_2  and  C2_3 
REMARK    2  A    between atoms: C6_9  and  N3_10 
REMARK    3  A    between atoms: N3_10  and  C7_11 
REMARK    4  A    between atoms: C7_11  and  C8_12 
REMARK    5  A    between atoms: C16_22  and  C17_23 
REMARK    6  A    between atoms: C17_23  and  N4_24 
REMARK       I    between atoms: N4_24  and  C19_26 
REMARK    7  A    between atoms: C19_26  and  C20_28 
REMARK    8  A    between atoms: C20_28  and  N5_29 
ROOT
HETATM    1  C2  UNL     1      23.128  -0.127  52.995  1.00  0.00     0.078 A 
HETATM    2  C3  UNL     1      24.383  -0.461  53.454  1.00  0.00     0.070 A 
HETATM    3  C4  UNL     1      25.507   0.266  53.128  1.00  0.00     0.074 A 
HETATM    4  N1  UNL     1      26.699  -0.108  53.604  1.00  0.00    -0.241 NA
HETATM    5  C5  UNL     1      27.788   0.604  53.283  1.00  0.00     0.235 A 
HETATM    6  N2  UNL     1      27.676   1.681  52.491  1.00  0.00    -0.224 NA
HETATM    7  C6  UNL     1      26.528   2.133  51.966  1.00  0.00     0.137 A 
HETATM    8  C14 UNL     1      25.430   1.379  52.317  1.00  0.00     0.039 A 
HETATM    9  C15 UNL     1      24.187   1.709  51.862  1.00  0.00     0.029 A 
HETATM   10  C16 UNL     1      23.054   0.991  52.181  1.00  0.00    -0.006 A 
ENDROOT
BRANCH   7  11
HETATM   11  N3  UNL     1      26.463   3.280  51.129  1.00  0.00    -0.370 N 
HETATM   12  H6  UNL     1      26.313   4.220  51.549  1.00  0.00     0.161 HD
BRANCH  11  13
HETATM   13  C7  UNL     1      26.593   3.262  49.687  1.00  0.00     0.160 C 
BRANCH  13  14
HETATM   14  C8  UNL     1      26.818   4.593  49.084  1.00  0.00    -0.039 A 
HETATM   15  C9  UNL     1      25.664   5.387  49.122  1.00  0.00     0.012 A 
HETATM   16  C10 UNL     1      25.616   6.668  48.612  1.00  0.00     0.044 A 
HETATM   17  C11 UNL     1      26.743   7.219  48.034  1.00  0.00     0.138 A 
HETATM   18  F1  UNL     1      26.744   8.473  47.521  1.00  0.00    -0.204 F 
HETATM   19  C12 UNL     1      27.878   6.437  47.998  1.00  0.00     0.073 A 
HETATM   20 CL1  UNL     1      29.358   7.049  47.283  1.00  0.00    -0.081 Cl
HETATM   21  C13 UNL     1      27.933   5.155  48.505  1.00  0.00     0.035 A 
ENDBRANCH  13  14
ENDBRANCH  11  13
ENDBRANCH   7  11
BRANCH  10  22
HETATM   22  C17 UNL     1      21.704   1.354  51.684  1.00  0.00     0.166 C 
BRANCH  22  23
HETATM   23  N4  UNL     1      21.685   2.589  50.927  1.00  0.00    -0.351 N 
HETATM   24  C18 UNL     1      22.231   2.760  49.593  1.00  0.00     0.153 C 
HETATM   25  C19 UNL     1      21.071   3.687  51.593  1.00  0.00     0.247 C 
HETATM   26  O2  UNL     1      20.606   3.509  52.751  1.00  0.00    -0.271 OA
BRANCH  25  27
HETATM   27  C20 UNL     1      20.992   5.012  50.911  1.00  0.00     0.369 C 
BRANCH  27  28
HETATM   28  N5  UNL     1      21.752   5.995  51.637  1.00  0.00     0.087 N 
HETATM   29  H20 UNL     1      22.189   5.637  52.512  1.00  0.00     0.313 HD
HETATM   30  H21 UNL     1      22.417   6.509  51.049  1.00  0.00     0.313 HD
ENDBRANCH  27  28
ENDBRANCH  25  27
ENDBRANCH  22  23
ENDBRANCH  10  22
BRANCH   1  31
HETATM   31  O1  UNL     1      22.009  -0.847  53.317  1.00  0.00    -0.355 OA
HETATM   32  C1  UNL     1      21.595  -1.255  54.583  1.00  0.00     0.210 C 
ENDBRANCH   1  31
TORSDOF 8
ENDMDL
MODEL 5
REMARK VINA RESULT:      -8.0      4.523      8.135
REMARK  8 active torsions:
REMARK  status: ('A' for Active; 'I' for Inactive)
REMARK    1  A    between atoms: O1_2  and  C2_3 
REMARK    2  A    between atoms: C6_9  and  N3_10 
REMARK    3  A    between atoms: N3_10  and  C7_11 
REMARK    4  A    between atoms: C7_11  and  C8_12 
REMARK    5  A    between atoms: C16_22  and  C17_23 
REMARK    6  A    between atoms: C17_23  and  N4_24 
REMARK       I    between atoms: N4_24  and  C19_26 
REMARK    7  A    between atoms: C19_26  and  C20_28 
REMARK    8  A    between atoms: C20_28  and  N5_29 
ROOT
HETATM    1  C2  UNL     1      24.602   1.343  51.990  1.00  0.00     0.078 A 
HETATM    2  C3  UNL     1      24.890   0.454  53.002  1.00  0.00     0.070 A 
HETATM    3  C4  UNL     1      23.911  -0.120  53.782  1.00  0.00     0.074 A 
HETATM    4  N1  UNL     1      24.252  -0.976  54.750  1.00  0.00    -0.241 NA
HETATM    5  C5  UNL     1      23.294  -1.532  55.505  1.00  0.00     0.235 A 
HETATM    6  N2  UNL     1      22.006  -1.228  55.285  1.00  0.00    -0.224 NA
HETATM    7  C6  UNL     1      21.567  -0.384  54.341  1.00  0.00     0.137 A 
HETATM    8  C14 UNL     1      22.577   0.168  53.584  1.00  0.00     0.039 A 
HETATM    9  C15 UNL     1      22.292   1.049  52.582  1.00  0.00     0.029 A 
HETATM   10  C16 UNL     1      23.263   1.631  51.794  1.00  0.00    -0.006 A 
ENDROOT
BRANCH   7  11
HETATM   11  N3  UNL     1      20.188  -0.092  54.149  1.00  0.00    -0.370 N 
HETATM   12  H6  UNL     1      19.788   0.789  54.532  1.00  0.00     0.161 HD
BRANCH  11  13
HETATM   13  C7  UNL     1      19.252  -0.939  53.441  1.00  0.00     0.160 C 
BRANCH  13  14
HETATM   14  C8  UNL     1      18.709  -0.337  52.205  1.00  0.00    -0.039 A 
HETATM   15  C9  UNL     1      17.399  -0.760  51.947  1.00  0.00     0.012 A 
HETATM   16  C10 UNL     1      16.677  -0.346  50.847  1.00  0.00     0.044 A 
HETATM   17  C11 UNL     1      17.248   0.527  49.941  1.00  0.00     0.138 A 
HETATM   18  F1  UNL     1      16.578   0.962  48.847  1.00  0.00    -0.204 F 
HETATM   19  C12 UNL     1      18.538   0.944  50.196  1.00  0.00     0.073 A 
HETATM   20 CL1  UNL     1      19.346   2.051  49.103  1.00  0.00    -0.081 Cl
HETATM   21  C13 UNL     1      19.265   0.533  51.294  1.00  0.00     0.035 A 
ENDBRANCH  13  14
ENDBRANCH  11  13
ENDBRANCH   7  11
BRANCH  10  22
HETATM   22  C17 UNL     1      22.948   2.588  50.705  1.00  0.00     0.166 C 
BRANCH  22  23
HETATM   23  N4  UNL     1      22.684   3.930  51.180  1.00  0.00    -0.351 N 
HETATM   24  C18 UNL     1      21.621   4.298  52.099  1.00  0.00     0.153 C 
HETATM   25  C19 UNL     1      23.567   4.925  50.676  1.00  0.00     0.247 C 
HETATM   26  O2  UNL     1      24.481   4.577  49.881  1.00  0.00    -0.271 OA
BRANCH  25  27
HETATM   27  C20 UNL     1      23.393   6.347  51.097  1.00  0.00     0.369 C 
BRANCH  27  28
HETATM   28  N5  UNL     1      24.432   6.728  52.016  1.00  0.00     0.087 N 
HETATM   29  H20 UNL     1      25.396   6.510  51.687  1.00  0.00     0.313 HD
HETATM   30  H21 UNL     1      24.343   7.693  52.354  1.00  0.00     0.313 HD
ENDBRANCH  27  28
ENDBRANCH  25  27
ENDBRANCH  22  23
ENDBRANCH  10  22
BRANCH   1  31
HETATM   31  O1  UNL     1      25.574   1.916  51.214  1.00  0.00    -0.355 OA
HETATM   32  C1  UNL     1      26.817   2.393  51.621  1.00  0.00     0.210 C 
ENDBRANCH   1  31
TORSDOF 8
ENDMDL
MODEL 6
REMARK VINA RESULT:      -8.0      4.617      8.479
REMARK  8 active torsions:
REMARK  status: ('A' for Active; 'I' for Inactive)
REMARK    1  A    between atoms: O1_2  and  C2_3 
REMARK    2  A    between atoms: C6_9  and  N3_10 
REMARK    3  A    between atoms: N3_10  and  C7_11 
REMARK    4  A    between atoms: C7_11  and  C8_12 
REMARK    5  A    between atoms: C16_22  and  C17_23 
REMARK    6  A    between atoms: C17_23  and  N4_24 
REMARK       I    between atoms: N4_24  and  C19_26 
REMARK    7  A    between atoms: C19_26  and  C20_28 
REMARK    8  A    between atoms: C20_28  and  N5_29 
ROOT
HETATM    1  C2  UNL     1      25.856   3.022  50.854  1.00  0.00     0.078 A 
HETATM    2  C3  UNL     1      26.886   2.446  51.566  1.00  0.00     0.070 A 
HETATM    3  C4  UNL     1      26.703   1.340  52.366  1.00  0.00     0.074 A 
HETATM    4  N1  UNL     1      27.741   0.825  53.033  1.00  0.00    -0.241 NA
HETATM    5  C5  UNL     1      27.556  -0.251  53.808  1.00  0.00     0.235 A 
HETATM    6  N2  UNL     1      26.337  -0.803  53.910  1.00  0.00    -0.224 NA
HETATM    7  C6  UNL     1      25.239  -0.361  53.282  1.00  0.00     0.137 A 
HETATM    8  C14 UNL     1      25.465   0.745  52.494  1.00  0.00     0.039 A 
HETATM    9  C15 UNL     1      24.446   1.316  51.788  1.00  0.00     0.029 A 
HETATM   10  C16 UNL     1      24.615   2.423  50.984  1.00  0.00    -0.006 A 
ENDROOT
BRANCH   7  11
HETATM   11  N3  UNL     1      23.967  -0.981  53.425  1.00  0.00    -0.370 N 
HETATM   12  H6  UNL     1      23.700  -1.765  52.793  1.00  0.00     0.161 HD
BRANCH  11  13
HETATM   13  C7  UNL     1      22.971  -0.613  54.408  1.00  0.00     0.160 C 
BRANCH  13  14
HETATM   14  C8  UNL     1      21.584  -0.621  53.895  1.00  0.00    -0.039 A 
HETATM   15  C9  UNL     1      21.313   0.499  53.099  1.00  0.00     0.012 A 
HETATM   16  C10 UNL     1      20.086   0.726  52.512  1.00  0.00     0.044 A 
HETATM   17  C11 UNL     1      19.058  -0.177  52.700  1.00  0.00     0.138 A 
HETATM   18  F1  UNL     1      17.837   0.002  52.143  1.00  0.00    -0.204 F 
HETATM   19  C12 UNL     1      19.326  -1.281  53.485  1.00  0.00     0.073 A 
HETATM   20 CL1  UNL     1      18.084  -2.482  53.781  1.00  0.00    -0.081 Cl
HETATM   21  C13 UNL     1      20.551  -1.512  54.074  1.00  0.00     0.035 A 
ENDBRANCH  13  14
ENDBRANCH  11  13
ENDBRANCH   7  11
BRANCH  10  22
HETATM   22  C17 UNL     1      23.504   3.040  50.219  1.00  0.00     0.166 C 
BRANCH  22  23
HETATM   23  N4  UNL     1      22.877   4.148  50.912  1.00  0.00    -0.351 N 
HETATM   24  C18 UNL     1      22.403   4.115  52.284  1.00  0.00     0.153 C 
HETATM   25  C19 UNL     1      22.745   5.335  50.138  1.00  0.00     0.247 C 
HETATM   26  O2  UNL     1      23.166   5.334  48.951  1.00  0.00    -0.271 OA
BRANCH  25  27
HETATM   27  C20 UNL     1      22.115   6.544  50.747  1.00  0.00     0.369 C 
BRANCH  27  28
HETATM   28  N5  UNL     1      23.125   7.487  51.148  1.00  0.00     0.087 N 
HETATM   29  H20 UNL     1      23.805   7.730  50.397  1.00  0.00     0.313 HD
HETATM   30  H21 UNL     1      22.744   8.317  51.614  1.00  0.00     0.313 HD
ENDBRANCH  27  28
ENDBRANCH  25  27
ENDBRANCH  22  23
ENDBRANCH  10  22
BRANCH   1  31
HETATM   31  O1  UNL     1      26.035   4.122  50.059  1.00  0.00    -0.355 OA
HETATM   32  C1  UNL     1      27.042   4.340  49.122  1.00  0.00     0.210 C 
ENDBRANCH   1  31
TORSDOF 8
ENDMDL
MODEL 7
REMARK VINA RESULT:      -7.8      2.524      3.887
REMARK  8 active torsions:
REMARK  status: ('A' for Active; 'I' for Inactive)
REMARK    1  A    between atoms: O1_2  and  C2_3 
REMARK    2  A    between atoms: C6_9  and  N3_10 
REMARK    3  A    between atoms: N3_10  and  C7_11 
REMARK    4  A    between atoms: C7_11  and  C8_12 
REMARK    5  A    between atoms: C16_22  and  C17_23 
REMARK    6  A    between atoms: C17_23  and  N4_24 
REMARK       I    between atoms: N4_24  and  C19_26 
REMARK    7  A    between atoms: C19_26  and  C20_28 
REMARK    8  A    between atoms: C20_28  and  N5_29 
ROOT
HETATM    1  C2  UNL     1      23.996  -0.846  54.325  1.00  0.00     0.078 A 
HETATM    2  C3  UNL     1      22.648  -0.971  54.582  1.00  0.00     0.070 A 
HETATM    3  C4  UNL     1      21.684  -0.548  53.694  1.00  0.00     0.074 A 
HETATM    4  N1  UNL     1      20.391  -0.695  53.999  1.00  0.00    -0.241 NA
HETATM    5  C5  UNL     1      19.458  -0.282  53.130  1.00  0.00     0.235 A 
HETATM    6  N2  UNL     1      19.826   0.274  51.966  1.00  0.00    -0.224 NA
HETATM    7  C6  UNL     1      21.093   0.464  51.571  1.00  0.00     0.137 A 
HETATM    8  C14 UNL     1      22.025   0.027  52.488  1.00  0.00     0.039 A 
HETATM    9  C15 UNL     1      23.359   0.150  52.233  1.00  0.00     0.029 A 
HETATM   10  C16 UNL     1      24.334  -0.269  53.113  1.00  0.00    -0.006 A 
ENDROOT
BRANCH   7  11
HETATM   11  N3  UNL     1      21.431   1.061  50.326  1.00  0.00    -0.370 N 
HETATM   12  H6  UNL     1      21.773   0.466  49.543  1.00  0.00     0.161 HD
BRANCH  11  13
HETATM   13  C7  UNL     1      21.338   2.475  50.033  1.00  0.00     0.160 C 
BRANCH  13  14
HETATM   14  C8  UNL     1      22.641   3.125  49.774  1.00  0.00    -0.039 A 
HETATM   15  C9  UNL     1      22.493   4.352  49.114  1.00  0.00     0.012 A 
HETATM   16  C10 UNL     1      23.562   5.146  48.753  1.00  0.00     0.044 A 
HETATM   17  C11 UNL     1      24.849   4.737  49.044  1.00  0.00     0.138 A 
HETATM   18  F1  UNL     1      25.929   5.482  48.711  1.00  0.00    -0.204 F 
HETATM   19  C12 UNL     1      24.994   3.529  49.695  1.00  0.00     0.073 A 
HETATM   20 CL1  UNL     1      26.588   2.926  50.106  1.00  0.00    -0.081 Cl
HETATM   21  C13 UNL     1      23.929   2.731  50.058  1.00  0.00     0.035 A 
ENDBRANCH  13  14
ENDBRANCH  11  13
ENDBRANCH   7  11
BRANCH  10  22
HETATM   22  C17 UNL     1      25.785  -0.133  52.833  1.00  0.00     0.166 C 
BRANCH  22  23
HETATM   23  N4  UNL     1      26.329   1.148  53.235  1.00  0.00    -0.351 N 
HETATM   24  C18 UNL     1      25.544   2.330  53.543  1.00  0.00     0.153 C 
HETATM   25  C19 UNL     1      27.749   1.191  53.320  1.00  0.00     0.247 C 
HETATM   26  O2  UNL     1      28.404   0.150  53.048  1.00  0.00    -0.271 OA
BRANCH  25  27
HETATM   27  C20 UNL     1      28.424   2.459  53.727  1.00  0.00     0.369 C 
BRANCH  27  28
HETATM   28  N5  UNL     1      29.579   2.174  54.537  1.00  0.00     0.087 N 
HETATM   29  H20 UNL     1      29.415   2.266  55.562  1.00  0.00     0.313 HD
HETATM   30  H21 UNL     1      30.039   1.291  54.292  1.00  0.00     0.313 HD
ENDBRANCH  27  28
ENDBRANCH  25  27
ENDBRANCH  22  23
ENDBRANCH  10  22
BRANCH   1  31
HETATM   31  O1  UNL     1      24.956  -1.266  55.206  1.00  0.00    -0.355 OA
HETATM   32  C1  UNL     1      25.146  -0.846  56.520  1.00  0.00     0.210 C 
ENDBRANCH   1  31
TORSDOF 8
ENDMDL
MODEL 8
REMARK VINA RESULT:      -7.7      1.624      1.943
REMARK  8 active torsions:
REMARK  status: ('A' for Active; 'I' for Inactive)
REMARK    1  A    between atoms: O1_2  and  C2_3 
REMARK    2  A    between atoms: C6_9  and  N3_10 
REMARK    3  A    between atoms: N3_10  and  C7_11 
REMARK    4  A    between atoms: C7_11  and  C8_12 
REMARK    5  A    between atoms: C16_22  and  C17_23 
REMARK    6  A    between atoms: C17_23  and  N4_24 
REMARK       I    between atoms: N4_24  and  C19_26 
REMARK    7  A    between atoms: C19_26  and  C20_28 
REMARK    8  A    between atoms: C20_28  and  N5_29 
ROOT
HETATM    1  C2  UNL     1      23.807   1.202  52.977  1.00  0.00     0.078 A 
HETATM    2  C3  UNL     1      22.885   1.699  52.082  1.00  0.00     0.070 A 
HETATM    3  C4  UNL     1      23.200   2.674  51.161  1.00  0.00     0.074 A 
HETATM    4  N1  UNL     1      22.262   3.117  50.318  1.00  0.00    -0.241 NA
HETATM    5  C5  UNL     1      22.575   4.065  49.425  1.00  0.00     0.235 A 
HETATM    6  N2  UNL     1      23.821   4.561  49.382  1.00  0.00    -0.224 NA
HETATM    7  C6  UNL     1      24.827   4.182  50.183  1.00  0.00     0.137 A 
HETATM    8  C14 UNL     1      24.470   3.207  51.088  1.00  0.00     0.039 A 
HETATM    9  C15 UNL     1      25.383   2.714  51.974  1.00  0.00     0.029 A 
HETATM   10  C16 UNL     1      25.081   1.739  52.901  1.00  0.00    -0.006 A 
ENDROOT
BRANCH   7  11
HETATM   11  N3  UNL     1      26.131   4.741  50.099  1.00  0.00    -0.370 N 
HETATM   12  H6  UNL     1      26.425   5.474  50.778  1.00  0.00     0.161 HD
BRANCH  11  13
HETATM   13  C7  UNL     1      27.131   4.370  49.120  1.00  0.00     0.160 C 
BRANCH  13  14
HETATM   14  C8  UNL     1      27.822   5.520  48.498  1.00  0.00    -0.039 A 
HETATM   15  C9  UNL     1      26.948   6.585  48.248  1.00  0.00     0.012 A 
HETATM   16  C10 UNL     1      27.350   7.768  47.663  1.00  0.00     0.044 A 
HETATM   17  C11 UNL     1      28.671   7.937  47.298  1.00  0.00     0.138 A 
HETATM   18  F1  UNL     1      29.114   9.081  46.722  1.00  0.00    -0.204 F 
HETATM   19  C12 UNL     1      29.532   6.888  47.544  1.00  0.00     0.073 A 
HETATM   20 CL1  UNL     1      31.228   7.009  47.115  1.00  0.00    -0.081 Cl
HETATM   21  C13 UNL     1      29.136   5.703  48.128  1.00  0.00     0.035 A 
ENDBRANCH  13  14
ENDBRANCH  11  13
ENDBRANCH   7  11
BRANCH  10  22
HETATM   22  C17 UNL     1      26.077   1.206  53.863  1.00  0.00     0.166 C 
BRANCH  22  23
HETATM   23  N4  UNL     1      27.026   0.294  53.258  1.00  0.00    -0.351 N 
HETATM   24  C18 UNL     1      26.810  -0.441  52.025  1.00  0.00     0.153 C 
HETATM   25  C19 UNL     1      28.249   0.148  53.972  1.00  0.00     0.247 C 
HETATM   26  O2  UNL     1      28.409   0.799  55.039  1.00  0.00    -0.271 OA
BRANCH  25  27
HETATM   27  C20 UNL     1      29.306  -0.765  53.445  1.00  0.00     0.369 C 
BRANCH  27  28
HETATM   28  N5  UNL     1      28.914  -2.139  53.621  1.00  0.00     0.087 N 
HETATM   29  H20 UNL     1      29.320  -2.594  54.466  1.00  0.00     0.313 HD
HETATM   30  H21 UNL     1      27.902  -2.286  53.545  1.00  0.00     0.313 HD
ENDBRANCH  27  28
ENDBRANCH  25  27
ENDBRANCH  22  23
ENDBRANCH  10  22
BRANCH   1  31
HETATM   31  O1  UNL     1      23.497   0.234  53.894  1.00  0.00    -0.355 OA
HETATM   32  C1  UNL     1      22.835  -0.970  53.667  1.00  0.00     0.210 C 
ENDBRANCH   1  31
TORSDOF 8
ENDMDL
MODEL 9
REMARK VINA RESULT:      -7.7      5.099      8.764
REMARK  8 active torsions:
REMARK  status: ('A' for Active; 'I' for Inactive)
REMARK    1  A    between atoms: O1_2  and  C2_3 
REMARK    2  A    between atoms: C6_9  and  N3_10 
REMARK    3  A    between atoms: N3_10  and  C7_11 
REMARK    4  A    between atoms: C7_11  and  C8_12 
REMARK    5  A    between atoms: C16_22  and  C17_23 
REMARK    6  A    between atoms: C17_23  and  N4_24 
REMARK       I    between atoms: N4_24  and  C19_26 
REMARK    7  A    between atoms: C19_26  and  C20_28 
REMARK    8  A    between atoms: C20_28  and  N5_29 
ROOT
HETATM    1  C2  UNL     1      29.954   7.096  47.038  1.00  0.00     0.078 A 
HETATM    2  C3  UNL     1      28.757   7.773  47.113  1.00  0.00     0.070 A 
HETATM    3  C4  UNL     1      27.656   7.259  47.761  1.00  0.00     0.074 A 
HETATM    4  N1  UNL     1      26.521   7.963  47.801  1.00  0.00    -0.241 NA
HETATM    5  C5  UNL     1      25.453   7.457  48.433  1.00  0.00     0.235 A 
HETATM    6  N2  UNL     1      25.531   6.252  49.019  1.00  0.00    -0.224 NA
HETATM    7  C6  UNL     1      26.621   5.473  49.033  1.00  0.00     0.137 A 
HETATM    8  C14 UNL     1      27.698   6.024  48.375  1.00  0.00     0.039 A 
HETATM    9  C15 UNL     1      28.884   5.354  48.300  1.00  0.00     0.029 A 
HETATM   10  C16 UNL     1      29.994   5.857  47.655  1.00  0.00    -0.006 A 
ENDROOT
BRANCH   7  11
HETATM   11  N3  UNL     1      26.651   4.201  49.667  1.00  0.00    -0.370 N 
HETATM   12  H6  UNL     1      27.537   3.853  50.088  1.00  0.00     0.161 HD
BRANCH  11  13
HETATM   13  C7  UNL     1      25.517   3.309  49.789  1.00  0.00     0.160 C 
BRANCH  13  14
HETATM   14  C8  UNL     1      25.513   2.504  51.030  1.00  0.00    -0.039 A 
HETATM   15  C9  UNL     1      26.762   2.511  51.664  1.00  0.00     0.012 A 
HETATM   16  C10 UNL     1      27.016   1.826  52.834  1.00  0.00     0.044 A 
HETATM   17  C11 UNL     1      26.010   1.092  53.430  1.00  0.00     0.138 A 
HETATM   18  F1  UNL     1      26.211   0.404  54.580  1.00  0.00    -0.204 F 
HETATM   19  C12 UNL     1      24.779   1.086  52.806  1.00  0.00     0.073 A 
HETATM   20 CL1  UNL     1      23.441   0.183  53.489  1.00  0.00    -0.081 Cl
HETATM   21  C13 UNL     1      24.520   1.768  51.636  1.00  0.00     0.035 A 
ENDBRANCH  13  14
ENDBRANCH  11  13
ENDBRANCH   7  11
BRANCH  10  22
HETATM   22  C17 UNL     1      31.281   5.124  47.576  1.00  0.00     0.166 C 
BRANCH  22  23
HETATM   23  N4  UNL     1      32.263   5.586  48.537  1.00  0.00    -0.351 N 
HETATM   24  C18 UNL     1      31.967   6.027  49.888  1.00  0.00     0.153 C 
HETATM   25  C19 UNL     1      33.605   5.583  48.064  1.00  0.00     0.247 C 
HETATM   26  O2  UNL     1      33.832   5.195  46.887  1.00  0.00    -0.271 OA
BRANCH  25  27
HETATM   27  C20 UNL     1      34.705   6.038  48.966  1.00  0.00     0.369 C 
BRANCH  27  28
HETATM   28  N5  UNL     1      35.433   4.907  49.477  1.00  0.00     0.087 N 
HETATM   29  H20 UNL     1      36.353   5.147  49.902  1.00  0.00     0.313 HD
HETATM   30  H21 UNL     1      34.869   4.299  50.081  1.00  0.00     0.313 HD
ENDBRANCH  27  28
ENDBRANCH  25  27
ENDBRANCH  22  23
ENDBRANCH  10  22
BRANCH   1  31
HETATM   31  O1  UNL     1      31.050   7.605  46.394  1.00  0.00    -0.355 OA
HETATM   32  C1  UNL     1      31.223   7.789  45.025  1.00  0.00     0.210 C 
ENDBRANCH   1  31
TORSDOF 8
ENDMDL
