MODEL 1
REMARK VINA RESULT:      -6.9      0.000      0.000
REMARK  4 active torsions:
REMARK  status: ('A' for Active; 'I' for Inactive)
REMARK    1  A    between atoms: C5_5  and  N5_27 
REMARK    2  A    between atoms: N1_7  and  C7_8 
REMARK    3  A    between atoms: C9_11  and  C16_20 
REMARK    4  A    between atoms: C20_24  and  C21_25 
ROOT
HETATM    1  C7  UNL     1      22.833   7.732  50.828  1.00  0.00     0.271 A 
HETATM    2  N2  UNL     1      21.461   7.470  51.031  1.00  0.00    -0.247 NA
HETATM    3  C8  UNL     1      21.367   6.112  50.628  1.00  0.00     0.127 A 
HETATM    4  C9  UNL     1      22.680   5.905  50.298  1.00  0.00     0.015 A 
HETATM    5  C10 UNL     1      24.005   5.969  50.056  1.00  0.00     0.077 A 
HETATM    6  C11 UNL     1      25.241   5.420  49.654  1.00  0.00     0.011 A 
HETATM    7  C12 UNL     1      25.910   6.114  48.659  1.00  0.00     0.017 A 
HETATM    8  C13 UNL     1      27.131   5.600  48.296  1.00  0.00     0.020 A 
HETATM    9  C14 UNL     1      27.584   4.458  48.937  1.00  0.00     0.116 A 
HETATM   10  N3  UNL     1      26.906   3.791  49.916  1.00  0.00    -0.272 NA
HETATM   11  C15 UNL     1      25.718   4.264  50.293  1.00  0.00     0.130 A 
HETATM   12  N4  UNL     1      24.124   7.331  50.451  1.00  0.00    -0.234 NA
ENDROOT
BRANCH   4  13
HETATM   13  C16 UNL     1      22.299   5.184  49.061  1.00  0.00     0.140 C 
HETATM   14  C17 UNL     1      21.071   5.499  48.344  1.00  0.00    -0.001 C 
HETATM   15  C18 UNL     1      21.038   4.656  47.257  1.00  0.00    -0.026 C 
HETATM   16  C19 UNL     1      22.102   3.626  46.923  1.00  0.00     0.059 C 
HETATM   17  C20 UNL     1      22.314   2.839  48.221  1.00  0.00     0.145 C 
HETATM   18  N5  UNL     1      22.174   3.716  49.354  1.00  0.00    -0.384 N 
BRANCH  17  19
HETATM   19  C21 UNL     1      21.266   1.750  48.219  1.00  0.00     0.256 C 
HETATM   20  O1  UNL     1      21.797   0.647  48.216  1.00  0.00    -0.305 OA
ENDBRANCH  17  19
BRANCH  18  21
HETATM   21  C5  UNL     1      21.929   3.048  50.638  1.00  0.00     0.032 A 
HETATM   22  C4  UNL     1      21.223   2.637  51.882  1.00  0.00     0.052 A 
HETATM   23  C3  UNL     1      21.833   1.465  52.553  1.00  0.00     0.033 A 
HETATM   24  C6  UNL     1      22.752   2.200  51.289  1.00  0.00     0.141 A 
HETATM   25  C2  UNL     1      23.078   0.933  52.647  1.00  0.00     0.040 A 
HETATM   26  C1  UNL     1      23.947   0.013  53.365  1.00  0.00     0.035 C 
HETATM   27  N1  UNL     1      24.003   1.396  51.701  1.00  0.00    -0.247 N 
ENDBRANCH  18  21
ENDBRANCH   4  13
TORSDOF 4
ENDMDL
MODEL 2
REMARK VINA RESULT:      -6.8      2.903      5.856
REMARK  4 active torsions:
REMARK  status: ('A' for Active; 'I' for Inactive)
REMARK    1  A    between atoms: C5_5  and  N5_27 
REMARK    2  A    between atoms: N1_7  and  C7_8 
REMARK    3  A    between atoms: C9_11  and  C16_20 
REMARK    4  A    between atoms: C20_24  and  C21_25 
ROOT
HETATM    1  C7  UNL     1      21.741   1.355  47.931  1.00  0.00     0.271 A 
HETATM    2  N2  UNL     1      22.664   2.316  47.468  1.00  0.00    -0.247 NA
HETATM    3  C8  UNL     1      23.185   2.822  48.686  1.00  0.00     0.127 A 
HETATM    4  C9  UNL     1      22.463   2.048  49.555  1.00  0.00     0.015 A 
HETATM    5  C10 UNL     1      21.644   1.174  50.175  1.00  0.00     0.077 A 
HETATM    6  C11 UNL     1      21.098   0.551  51.317  1.00  0.00     0.011 A 
HETATM    7  C12 UNL     1      19.716   0.567  51.406  1.00  0.00     0.017 A 
HETATM    8  C13 UNL     1      19.184  -0.075  52.497  1.00  0.00     0.020 A 
HETATM    9  C14 UNL     1      20.050  -0.671  53.400  1.00  0.00     0.116 A 
HETATM   10  N3  UNL     1      21.411  -0.673  53.291  1.00  0.00    -0.272 NA
HETATM   11  C15 UNL     1      21.960  -0.061  52.242  1.00  0.00     0.130 A 
HETATM   12  N4  UNL     1      21.104   0.653  48.967  1.00  0.00    -0.234 NA
ENDROOT
BRANCH   4  13
HETATM   13  C16 UNL     1      22.188   3.213  50.431  1.00  0.00     0.140 C 
HETATM   14  C17 UNL     1      22.019   4.553  49.884  1.00  0.00    -0.001 C 
HETATM   15  C18 UNL     1      21.774   5.374  50.960  1.00  0.00    -0.026 C 
HETATM   16  C19 UNL     1      21.705   4.916  52.405  1.00  0.00     0.059 C 
HETATM   17  C20 UNL     1      22.978   4.092  52.623  1.00  0.00     0.145 C 
HETATM   18  N5  UNL     1      23.306   3.371  51.421  1.00  0.00    -0.384 N 
BRANCH  17  19
HETATM   19  C21 UNL     1      24.054   5.085  52.995  1.00  0.00     0.256 C 
HETATM   20  O1  UNL     1      23.904   5.464  54.150  1.00  0.00    -0.305 OA
ENDBRANCH  17  19
BRANCH  18  21
HETATM   21  C5  UNL     1      24.691   2.892  51.335  1.00  0.00     0.032 A 
HETATM   22  C4  UNL     1      26.131   2.852  50.962  1.00  0.00     0.052 A 
HETATM   23  C3  UNL     1      26.927   1.891  51.761  1.00  0.00     0.033 A 
HETATM   24  C6  UNL     1      25.210   1.783  51.904  1.00  0.00     0.141 A 
HETATM   25  C2  UNL     1      26.686   0.721  52.403  1.00  0.00     0.040 A 
HETATM   26  C1  UNL     1      27.268  -0.467  53.011  1.00  0.00     0.035 C 
HETATM   27  N1  UNL     1      25.334   0.427  52.629  1.00  0.00    -0.247 N 
ENDBRANCH  18  21
ENDBRANCH   4  13
TORSDOF 4
ENDMDL
MODEL 3
REMARK VINA RESULT:      -6.7      2.148      5.843
REMARK  4 active torsions:
REMARK  status: ('A' for Active; 'I' for Inactive)
REMARK    1  A    between atoms: C5_5  and  N5_27 
REMARK    2  A    between atoms: N1_7  and  C7_8 
REMARK    3  A    between atoms: C9_11  and  C16_20 
REMARK    4  A    between atoms: C20_24  and  C21_25 
ROOT
HETATM    1  C7  UNL     1      21.744   1.680  47.790  1.00  0.00     0.271 A 
HETATM    2  N2  UNL     1      22.097   2.739  46.927  1.00  0.00    -0.247 NA
HETATM    3  C8  UNL     1      22.793   3.605  47.809  1.00  0.00     0.127 A 
HETATM    4  C9  UNL     1      22.689   2.860  48.954  1.00  0.00     0.015 A 
HETATM    5  C10 UNL     1      22.451   1.943  49.913  1.00  0.00     0.077 A 
HETATM    6  C11 UNL     1      22.544   1.442  51.228  1.00  0.00     0.011 A 
HETATM    7  C12 UNL     1      21.342   1.101  51.827  1.00  0.00     0.017 A 
HETATM    8  C13 UNL     1      21.436   0.577  53.093  1.00  0.00     0.020 A 
HETATM    9  C14 UNL     1      22.694   0.435  53.656  1.00  0.00     0.116 A 
HETATM   10  N3  UNL     1      23.866   0.778  53.046  1.00  0.00    -0.272 NA
HETATM   11  C15 UNL     1      23.811   1.288  51.816  1.00  0.00     0.130 A 
HETATM   12  N4  UNL     1      21.746   1.059  49.049  1.00  0.00    -0.234 NA
ENDROOT
BRANCH   4  13
HETATM   13  C16 UNL     1      22.352   4.060  49.756  1.00  0.00     0.140 C 
HETATM   14  C17 UNL     1      21.770   5.246  49.143  1.00  0.00    -0.001 C 
HETATM   15  C18 UNL     1      21.583   6.149  50.163  1.00  0.00    -0.026 C 
HETATM   16  C19 UNL     1      21.932   5.899  51.620  1.00  0.00     0.059 C 
HETATM   17  C20 UNL     1      23.375   5.385  51.600  1.00  0.00     0.145 C 
HETATM   18  N5  UNL     1      23.591   4.578  50.428  1.00  0.00    -0.384 N 
BRANCH  17  19
HETATM   19  C21 UNL     1      24.251   6.615  51.607  1.00  0.00     0.256 C 
HETATM   20  O1  UNL     1      23.645   7.574  51.145  1.00  0.00    -0.305 OA
ENDBRANCH  17  19
BRANCH  18  21
HETATM   21  C5  UNL     1      24.997   4.376  50.056  1.00  0.00     0.032 A 
HETATM   22  C4  UNL     1      26.314   3.701  49.899  1.00  0.00     0.052 A 
HETATM   23  C3  UNL     1      27.223   4.382  48.948  1.00  0.00     0.033 A 
HETATM   24  C6  UNL     1      25.810   5.251  49.428  1.00  0.00     0.141 A 
HETATM   25  C2  UNL     1      27.415   5.656  48.524  1.00  0.00     0.040 A 
HETATM   26  C1  UNL     1      28.308   6.581  47.842  1.00  0.00     0.035 C 
HETATM   27  N1  UNL     1      26.373   6.549  48.812  1.00  0.00    -0.247 N 
ENDBRANCH  18  21
ENDBRANCH   4  13
TORSDOF 4
ENDMDL
MODEL 4
REMARK VINA RESULT:      -6.5      8.148     11.516
REMARK  4 active torsions:
REMARK  status: ('A' for Active; 'I' for Inactive)
REMARK    1  A    between atoms: C5_5  and  N5_27 
REMARK    2  A    between atoms: N1_7  and  C7_8 
REMARK    3  A    between atoms: C9_11  and  C16_20 
REMARK    4  A    between atoms: C20_24  and  C21_25 
ROOT
HETATM    1  C7  UNL     1      32.600   3.627  46.898  1.00  0.00     0.271 A 
HETATM    2  N2  UNL     1      32.189   4.028  48.187  1.00  0.00    -0.247 NA
HETATM    3  C8  UNL     1      32.143   5.439  48.045  1.00  0.00     0.127 A 
HETATM    4  C9  UNL     1      32.524   5.526  46.733  1.00  0.00     0.015 A 
HETATM    5  C10 UNL     1      32.906   5.330  45.455  1.00  0.00     0.077 A 
HETATM    6  C11 UNL     1      33.242   5.771  44.158  1.00  0.00     0.011 A 
HETATM    7  C12 UNL     1      34.464   5.334  43.673  1.00  0.00     0.017 A 
HETATM    8  C13 UNL     1      34.772   5.732  42.395  1.00  0.00     0.020 A 
HETATM    9  C14 UNL     1      33.860   6.519  41.711  1.00  0.00     0.116 A 
HETATM   10  N3  UNL     1      32.660   6.937  42.210  1.00  0.00    -0.272 NA
HETATM   11  C15 UNL     1      32.329   6.568  43.447  1.00  0.00     0.130 A 
HETATM   12  N4  UNL     1      32.964   3.913  45.573  1.00  0.00    -0.234 NA
ENDROOT
BRANCH   4  13
HETATM   13  C16 UNL     1      33.434   6.658  47.027  1.00  0.00     0.140 C 
HETATM   14  C17 UNL     1      34.014   6.844  48.351  1.00  0.00    -0.001 C 
HETATM   15  C18 UNL     1      34.801   7.968  48.267  1.00  0.00    -0.026 C 
HETATM   16  C19 UNL     1      34.990   8.806  47.015  1.00  0.00     0.059 C 
HETATM   17  C20 UNL     1      33.571   9.090  46.510  1.00  0.00     0.145 C 
HETATM   18  N5  UNL     1      32.724   7.954  46.765  1.00  0.00    -0.384 N 
BRANCH  17  19
HETATM   19  C21 UNL     1      33.106  10.319  47.255  1.00  0.00     0.256 C 
HETATM   20  O1  UNL     1      33.096  11.292  46.512  1.00  0.00    -0.305 OA
ENDBRANCH  17  19
BRANCH  18  21
HETATM   21  C5  UNL     1      31.282   8.228  46.731  1.00  0.00     0.032 A 
HETATM   22  C4  UNL     1      29.908   8.397  46.185  1.00  0.00     0.052 A 
HETATM   23  C3  UNL     1      28.853   8.426  47.225  1.00  0.00     0.033 A 
HETATM   24  C6  UNL     1      30.486   8.547  47.773  1.00  0.00     0.141 A 
HETATM   25  C2  UNL     1      28.775   8.800  48.526  1.00  0.00     0.040 A 
HETATM   26  C1  UNL     1      27.897   9.140  49.636  1.00  0.00     0.035 C 
HETATM   27  N1  UNL     1      30.005   8.960  49.180  1.00  0.00    -0.247 N 
ENDBRANCH  18  21
ENDBRANCH   4  13
TORSDOF 4
ENDMDL
MODEL 5
REMARK VINA RESULT:      -6.2      6.906     11.367
REMARK  4 active torsions:
REMARK  status: ('A' for Active; 'I' for Inactive)
REMARK    1  A    between atoms: C5_5  and  N5_27 
REMARK    2  A    between atoms: N1_7  and  C7_8 
REMARK    3  A    between atoms: C9_11  and  C16_20 
REMARK    4  A    between atoms: C20_24  and  C21_25 
ROOT
HETATM    1  C7  UNL     1      33.892   5.784  49.078  1.00  0.00     0.271 A 
HETATM    2  N2  UNL     1      35.029   6.393  48.508  1.00  0.00    -0.247 NA
HETATM    3  C8  UNL     1      34.437   7.300  47.590  1.00  0.00     0.127 A 
HETATM    4  C9  UNL     1      33.121   7.016  47.842  1.00  0.00     0.015 A 
HETATM    5  C10 UNL     1      31.931   6.556  48.279  1.00  0.00     0.077 A 
HETATM    6  C11 UNL     1      30.521   6.528  48.298  1.00  0.00     0.011 A 
HETATM    7  C12 UNL     1      29.943   5.284  48.100  1.00  0.00     0.017 A 
HETATM    8  C13 UNL     1      28.572   5.251  48.158  1.00  0.00     0.020 A 
HETATM    9  C14 UNL     1      27.893   6.434  48.404  1.00  0.00     0.116 A 
HETATM   10  N3  UNL     1      28.485   7.649  48.596  1.00  0.00    -0.272 NA
HETATM   11  C15 UNL     1      29.815   7.716  48.548  1.00  0.00     0.130 A 
HETATM   12  N4  UNL     1      32.501   5.636  49.203  1.00  0.00    -0.234 NA
ENDROOT
BRANCH   4  13
HETATM   13  C16 UNL     1      32.801   7.013  46.395  1.00  0.00     0.140 C 
HETATM   14  C17 UNL     1      33.801   6.661  45.395  1.00  0.00    -0.001 C 
HETATM   15  C18 UNL     1      33.170   6.754  44.176  1.00  0.00    -0.026 C 
HETATM   16  C19 UNL     1      31.718   7.148  43.978  1.00  0.00     0.059 C 
HETATM   17  C20 UNL     1      31.541   8.438  44.787  1.00  0.00     0.145 C 
HETATM   18  N5  UNL     1      32.348   8.382  45.978  1.00  0.00    -0.384 N 
BRANCH  17  19
HETATM   19  C21 UNL     1      31.966   9.561  43.870  1.00  0.00     0.256 C 
HETATM   20  O1  UNL     1      31.339   9.514  42.819  1.00  0.00    -0.305 OA
ENDBRANCH  17  19
BRANCH  18  21
HETATM   21  C5  UNL     1      32.612   9.677  46.616  1.00  0.00     0.032 A 
HETATM   22  C4  UNL     1      33.337  10.920  47.000  1.00  0.00     0.052 A 
HETATM   23  C3  UNL     1      32.464  11.958  47.596  1.00  0.00     0.033 A 
HETATM   24  C6  UNL     1      31.780  10.383  47.410  1.00  0.00     0.141 A 
HETATM   25  C2  UNL     1      31.314  11.970  48.316  1.00  0.00     0.040 A 
HETATM   26  C1  UNL     1      30.431  12.751  49.170  1.00  0.00     0.035 C 
HETATM   27  N1  UNL     1      30.584  10.773  48.304  1.00  0.00    -0.247 N 
ENDBRANCH  18  21
ENDBRANCH   4  13
TORSDOF 4
ENDMDL
MODEL 6
REMARK VINA RESULT:      -6.1      2.839      5.639
REMARK  4 active torsions:
REMARK  status: ('A' for Active; 'I' for Inactive)
REMARK    1  A    between atoms: C5_5  and  N5_27 
REMARK    2  A    between atoms: N1_7  and  C7_8 
REMARK    3  A    between atoms: C9_11  and  C16_20 
REMARK    4  A    between atoms: C20_24  and  C21_25 
ROOT
HETATM    1  C7  UNL     1      21.180   2.396  47.325  1.00  0.00     0.271 A 
HETATM    2  N2  UNL     1      22.580   2.217  47.319  1.00  0.00    -0.247 NA
HETATM    3  C8  UNL     1      22.911   2.513  48.666  1.00  0.00     0.127 A 
HETATM    4  C9  UNL     1      21.652   2.782  49.133  1.00  0.00     0.015 A 
HETATM    5  C10 UNL     1      20.333   2.985  49.328  1.00  0.00     0.077 A 
HETATM    6  C11 UNL     1      19.211   3.301  50.122  1.00  0.00     0.011 A 
HETATM    7  C12 UNL     1      18.409   4.326  49.647  1.00  0.00     0.017 A 
HETATM    8  C13 UNL     1      17.296   4.607  50.400  1.00  0.00     0.020 A 
HETATM    9  C14 UNL     1      17.069   3.862  51.546  1.00  0.00     0.116 A 
HETATM   10  N3  UNL     1      17.875   2.855  51.995  1.00  0.00    -0.272 NA
HETATM   11  C15 UNL     1      18.963   2.556  51.287  1.00  0.00     0.130 A 
HETATM   12  N4  UNL     1      19.976   2.697  47.982  1.00  0.00    -0.234 NA
ENDROOT
BRANCH   4  13
HETATM   13  C16 UNL     1      22.136   3.969  49.876  1.00  0.00     0.140 C 
HETATM   14  C17 UNL     1      23.266   4.757  49.401  1.00  0.00    -0.001 C 
HETATM   15  C18 UNL     1      23.434   5.771  50.315  1.00  0.00    -0.026 C 
HETATM   16  C19 UNL     1      22.578   5.977  51.552  1.00  0.00     0.059 C 
HETATM   17  C20 UNL     1      22.548   4.612  52.247  1.00  0.00     0.145 C 
HETATM   18  N5  UNL     1      22.544   3.561  51.263  1.00  0.00    -0.384 N 
BRANCH  17  19
HETATM   19  C21 UNL     1      23.783   4.564  53.116  1.00  0.00     0.256 C 
HETATM   20  O1  UNL     1      23.768   5.479  53.930  1.00  0.00    -0.305 OA
ENDBRANCH  17  19
BRANCH  18  21
HETATM   21  C5  UNL     1      22.940   2.237  51.757  1.00  0.00     0.032 A 
HETATM   22  C4  UNL     1      23.760   1.010  51.951  1.00  0.00     0.052 A 
HETATM   23  C3  UNL     1      23.332   0.184  53.104  1.00  0.00     0.033 A 
HETATM   24  C6  UNL     1      22.262   1.448  52.616  1.00  0.00     0.141 A 
HETATM   25  C2  UNL     1      22.167  -0.049  53.758  1.00  0.00     0.040 A 
HETATM   26  C1  UNL     1      21.456  -0.915  54.688  1.00  0.00     0.035 C 
HETATM   27  N1  UNL     1      21.141   0.871  53.506  1.00  0.00    -0.247 N 
ENDBRANCH  18  21
ENDBRANCH   4  13
TORSDOF 4
ENDMDL
MODEL 7
REMARK VINA RESULT:      -6.1      2.415      5.241
REMARK  4 active torsions:
REMARK  status: ('A' for Active; 'I' for Inactive)
REMARK    1  A    between atoms: C5_5  and  N5_27 
REMARK    2  A    between atoms: N1_7  and  C7_8 
REMARK    3  A    between atoms: C9_11  and  C16_20 
REMARK    4  A    between atoms: C20_24  and  C21_25 
ROOT
HETATM    1  C7  UNL     1      27.208   4.376  49.220  1.00  0.00     0.271 A 
HETATM    2  N2  UNL     1      26.680   3.103  49.521  1.00  0.00    -0.247 NA
HETATM    3  C8  UNL     1      25.285   3.360  49.496  1.00  0.00     0.127 A 
HETATM    4  C9  UNL     1      25.327   4.693  49.186  1.00  0.00     0.015 A 
HETATM    5  C10 UNL     1      25.649   5.966  48.877  1.00  0.00     0.077 A 
HETATM    6  C11 UNL     1      25.334   7.303  48.556  1.00  0.00     0.011 A 
HETATM    7  C12 UNL     1      25.930   8.267  49.353  1.00  0.00     0.017 A 
HETATM    8  C13 UNL     1      25.654   9.570  49.015  1.00  0.00     0.020 A 
HETATM    9  C14 UNL     1      24.822   9.809  47.933  1.00  0.00     0.116 A 
HETATM   10  N3  UNL     1      24.245   8.841  47.162  1.00  0.00    -0.272 NA
HETATM   11  C15 UNL     1      24.494   7.566  47.461  1.00  0.00     0.130 A 
HETATM   12  N4  UNL     1      27.052   5.734  48.900  1.00  0.00    -0.234 NA
ENDROOT
BRANCH   4  13
HETATM   13  C16 UNL     1      24.282   5.004  50.190  1.00  0.00     0.140 C 
HETATM   14  C17 UNL     1      24.130   4.210  51.402  1.00  0.00    -0.001 C 
HETATM   15  C18 UNL     1      23.086   4.773  52.098  1.00  0.00    -0.026 C 
HETATM   16  C19 UNL     1      22.291   5.984  51.642  1.00  0.00     0.059 C 
HETATM   17  C20 UNL     1      21.882   5.671  50.199  1.00  0.00     0.145 C 
HETATM   18  N5  UNL     1      22.929   4.930  49.544  1.00  0.00    -0.384 N 
BRANCH  17  19
HETATM   19  C21 UNL     1      20.603   4.874  50.296  1.00  0.00     0.256 C 
HETATM   20  O1  UNL     1      19.639   5.576  50.016  1.00  0.00    -0.305 OA
ENDBRANCH  17  19
BRANCH  18  21
HETATM   21  C5  UNL     1      22.520   4.207  48.333  1.00  0.00     0.032 A 
HETATM   22  C4  UNL     1      22.151   3.068  47.448  1.00  0.00     0.052 A 
HETATM   23  C3  UNL     1      21.496   3.484  46.186  1.00  0.00     0.033 A 
HETATM   24  C6  UNL     1      22.235   4.732  47.124  1.00  0.00     0.141 A 
HETATM   25  C2  UNL     1      21.535   4.574  45.380  1.00  0.00     0.040 A 
HETATM   26  C1  UNL     1      21.218   5.118  44.068  1.00  0.00     0.035 C 
HETATM   27  N1  UNL     1      22.104   5.722  45.948  1.00  0.00    -0.247 N 
ENDBRANCH  18  21
ENDBRANCH   4  13
TORSDOF 4
ENDMDL
MODEL 8
REMARK VINA RESULT:      -6.1      5.665      8.668
REMARK  4 active torsions:
REMARK  status: ('A' for Active; 'I' for Inactive)
REMARK    1  A    between atoms: C5_5  and  N5_27 
REMARK    2  A    between atoms: N1_7  and  C7_8 
REMARK    3  A    between atoms: C9_11  and  C16_20 
REMARK    4  A    between atoms: C20_24  and  C21_25 
ROOT
HETATM    1  C7  UNL     1      27.542   4.732  48.756  1.00  0.00     0.271 A 
HETATM    2  N2  UNL     1      26.246   5.287  48.701  1.00  0.00    -0.247 NA
HETATM    3  C8  UNL     1      26.519   6.608  48.260  1.00  0.00     0.127 A 
HETATM    4  C9  UNL     1      27.881   6.512  48.156  1.00  0.00     0.015 A 
HETATM    5  C10 UNL     1      29.181   6.150  48.137  1.00  0.00     0.077 A 
HETATM    6  C11 UNL     1      30.552   6.389  47.909  1.00  0.00     0.011 A 
HETATM    7  C12 UNL     1      31.394   6.114  48.974  1.00  0.00     0.017 A 
HETATM    8  C13 UNL     1      32.732   6.310  48.738  1.00  0.00     0.020 A 
HETATM    9  C14 UNL     1      33.124   6.757  47.486  1.00  0.00     0.116 A 
HETATM   10  N3  UNL     1      32.275   7.021  46.451  1.00  0.00    -0.272 NA
HETATM   11  C15 UNL     1      30.969   6.840  46.645  1.00  0.00     0.130 A 
HETATM   12  N4  UNL     1      28.933   4.822  48.582  1.00  0.00    -0.234 NA
ENDROOT
BRANCH   4  13
HETATM   13  C16 UNL     1      28.066   7.834  48.799  1.00  0.00     0.140 C 
HETATM   14  C17 UNL     1      27.037   8.417  49.651  1.00  0.00    -0.001 C 
HETATM   15  C18 UNL     1      27.537   9.625  50.078  1.00  0.00    -0.026 C 
HETATM   16  C19 UNL     1      28.897  10.185  49.704  1.00  0.00     0.059 C 
HETATM   17  C20 UNL     1      28.968  10.071  48.177  1.00  0.00     0.145 C 
HETATM   18  N5  UNL     1      28.287   8.879  47.744  1.00  0.00    -0.384 N 
BRANCH  17  19
HETATM   19  C21 UNL     1      28.311  11.321  47.640  1.00  0.00     0.256 C 
HETATM   20  O1  UNL     1      29.159  12.133  47.291  1.00  0.00    -0.305 OA
ENDBRANCH  17  19
BRANCH  18  21
HETATM   21  C5  UNL     1      27.906   8.855  46.326  1.00  0.00     0.032 A 
HETATM   22  C4  UNL     1      28.050   8.816  44.845  1.00  0.00     0.052 A 
HETATM   23  C3  UNL     1      26.793   8.483  44.134  1.00  0.00     0.033 A 
HETATM   24  C6  UNL     1      26.658   8.855  45.814  1.00  0.00     0.141 A 
HETATM   25  C2  UNL     1      25.467   8.647  44.367  1.00  0.00     0.040 A 
HETATM   26  C1  UNL     1      24.130   8.641  43.793  1.00  0.00     0.035 C 
HETATM   27  N1  UNL     1      25.123   8.960  45.689  1.00  0.00    -0.247 N 
ENDBRANCH  18  21
ENDBRANCH   4  13
TORSDOF 4
ENDMDL
MODEL 9
REMARK VINA RESULT:      -6.0      1.955      2.561
REMARK  4 active torsions:
REMARK  status: ('A' for Active; 'I' for Inactive)
REMARK    1  A    between atoms: C5_5  and  N5_27 
REMARK    2  A    between atoms: N1_7  and  C7_8 
REMARK    3  A    between atoms: C9_11  and  C16_20 
REMARK    4  A    between atoms: C20_24  and  C21_25 
ROOT
HETATM    1  C7  UNL     1      21.883   7.854  50.467  1.00  0.00     0.271 A 
HETATM    2  N2  UNL     1      20.520   7.813  50.105  1.00  0.00    -0.247 NA
HETATM    3  C8  UNL     1      20.507   6.750  49.164  1.00  0.00     0.127 A 
HETATM    4  C9  UNL     1      21.837   6.425  49.204  1.00  0.00     0.015 A 
HETATM    5  C10 UNL     1      23.161   6.310  49.436  1.00  0.00     0.077 A 
HETATM    6  C11 UNL     1      24.426   5.717  49.247  1.00  0.00     0.011 A 
HETATM    7  C12 UNL     1      25.449   6.583  48.896  1.00  0.00     0.017 A 
HETATM    8  C13 UNL     1      26.688   6.011  48.751  1.00  0.00     0.020 A 
HETATM    9  C14 UNL     1      26.814   4.647  48.962  1.00  0.00     0.116 A 
HETATM   10  N3  UNL     1      25.791   3.812  49.308  1.00  0.00    -0.272 NA
HETATM   11  C15 UNL     1      24.574   4.336  49.458  1.00  0.00     0.130 A 
HETATM   12  N4  UNL     1      23.200   7.375  50.379  1.00  0.00    -0.234 NA
ENDROOT
BRANCH   4  13
HETATM   13  C16 UNL     1      21.896   6.306  47.728  1.00  0.00     0.140 C 
HETATM   14  C17 UNL     1      21.106   7.173  46.863  1.00  0.00    -0.001 C 
HETATM   15  C18 UNL     1      21.406   6.798  45.574  1.00  0.00    -0.026 C 
HETATM   16  C19 UNL     1      22.376   5.695  45.192  1.00  0.00     0.059 C 
HETATM   17  C20 UNL     1      21.952   4.484  46.030  1.00  0.00     0.145 C 
HETATM   18  N5  UNL     1      21.482   4.922  47.319  1.00  0.00    -0.384 N 
BRANCH  17  19
HETATM   19  C21 UNL     1      20.865   3.795  45.239  1.00  0.00     0.256 C 
HETATM   20  O1  UNL     1      21.238   3.592  44.090  1.00  0.00    -0.305 OA
ENDBRANCH  17  19
BRANCH  18  21
HETATM   21  C5  UNL     1      20.662   3.948  48.051  1.00  0.00     0.032 A 
HETATM   22  C4  UNL     1      19.452   3.227  48.532  1.00  0.00     0.052 A 
HETATM   23  C3  UNL     1      19.751   1.933  49.186  1.00  0.00     0.033 A 
HETATM   24  C6  UNL     1      21.093   2.975  48.880  1.00  0.00     0.141 A 
HETATM   25  C2  UNL     1      20.788   1.411  49.888  1.00  0.00     0.040 A 
HETATM   26  C1  UNL     1      21.231   0.351  50.783  1.00  0.00     0.035 C 
HETATM   27  N1  UNL     1      21.999   2.110  49.781  1.00  0.00    -0.247 N 
ENDBRANCH  18  21
ENDBRANCH   4  13
TORSDOF 4
ENDMDL
