MODEL 1
REMARK VINA RESULT:      -8.2      0.000      0.000
REMARK  0 active torsions:
REMARK  status: ('A' for Active; 'I' for Inactive)
ROOT
HETATM    1  C1  UNL     1      23.161   4.681  48.636  1.00  0.00     0.044 C 
HETATM    2  C2  UNL     1      23.473   3.455  49.595  1.00  0.00     0.140 C 
HETATM    3  C3  UNL     1      22.591   2.373  49.167  1.00  0.00     0.004 C 
HETATM    4  C4  UNL     1      21.711   1.353  49.317  1.00  0.00     0.000 C 
HETATM    5  C5  UNL     1      20.994   0.607  50.348  1.00  0.00     0.024 C 
HETATM    6  C6  UNL     1      20.880   0.583  51.668  1.00  0.00     0.144 C 
HETATM    7  O1  UNL     1      21.095   0.937  53.007  1.00  0.00    -0.302 OA
HETATM    8  C7  UNL     1      21.988   0.152  53.776  1.00  0.00     0.199 A 
HETATM    9  N1  UNL     1      21.777  -0.746  54.781  1.00  0.00    -0.214 NA
HETATM   10  C8  UNL     1      22.839  -1.354  55.332  1.00  0.00     0.258 A 
HETATM   11  N2  UNL     1      24.119  -1.148  54.968  1.00  0.00    -0.161 NA
HETATM   12  N3  UNL     1      24.371  -0.280  53.991  1.00  0.00    -0.237 N 
HETATM   13  C9  UNL     1      25.518   0.137  53.422  1.00  0.00     0.155 A 
HETATM   14  C10 UNL     1      25.142   1.069  52.452  1.00  0.00     0.088 A 
HETATM   15  C11 UNL     1      23.779   1.167  52.486  1.00  0.00     0.074 A 
HETATM   16  C12 UNL     1      23.314   0.314  53.456  1.00  0.00     0.114 A 
HETATM   17  O2  UNL     1      25.815   1.773  51.628  1.00  0.00    -0.347 OA
HETATM   18  C13 UNL     1      26.495   2.482  50.796  1.00  0.00     0.207 C 
HETATM   19  C14 UNL     1      25.751   3.653  50.113  1.00  0.00     0.142 C 
HETATM   20  C15 UNL     1      26.790   4.419  49.333  1.00  0.00     0.042 C 
HETATM   21  O3  UNL     1      24.787   3.180  49.293  1.00  0.00    -0.375 OA
ENDROOT
TORSDOF 0
ENDMDL
MODEL 2
REMARK VINA RESULT:      -8.0      2.285      5.239
REMARK  0 active torsions:
REMARK  status: ('A' for Active; 'I' for Inactive)
ROOT
HETATM    1  C1  UNL     1      20.375   0.700  50.993  1.00  0.00     0.044 C 
HETATM    2  C2  UNL     1      21.658   0.705  51.928  1.00  0.00     0.140 C 
HETATM    3  C3  UNL     1      22.105   2.092  51.992  1.00  0.00     0.004 C 
HETATM    4  C4  UNL     1      22.996   3.115  51.964  1.00  0.00     0.000 C 
HETATM    5  C5  UNL     1      24.423   3.380  51.800  1.00  0.00     0.024 C 
HETATM    6  C6  UNL     1      25.550   2.711  51.605  1.00  0.00     0.144 C 
HETATM    7  O1  UNL     1      26.406   1.618  51.416  1.00  0.00    -0.302 OA
HETATM    8  C7  UNL     1      27.140   1.137  52.528  1.00  0.00     0.199 A 
HETATM    9  N1  UNL     1      28.463   1.219  52.850  1.00  0.00    -0.214 NA
HETATM   10  C8  UNL     1      28.881   0.661  53.996  1.00  0.00     0.258 A 
HETATM   11  N2  UNL     1      28.087   0.015  54.872  1.00  0.00    -0.161 NA
HETATM   12  N3  UNL     1      26.789  -0.089  54.597  1.00  0.00    -0.237 N 
HETATM   13  C9  UNL     1      25.766  -0.668  55.256  1.00  0.00     0.155 A 
HETATM   14  C10 UNL     1      24.637  -0.456  54.462  1.00  0.00     0.088 A 
HETATM   15  C11 UNL     1      25.039   0.245  53.359  1.00  0.00     0.074 A 
HETATM   16  C12 UNL     1      26.390   0.466  53.462  1.00  0.00     0.114 A 
HETATM   17  O2  UNL     1      23.414  -0.789  54.599  1.00  0.00    -0.347 OA
HETATM   18  C13 UNL     1      22.178  -1.125  54.739  1.00  0.00     0.207 C 
HETATM   19  C14 UNL     1      21.281  -1.008  53.485  1.00  0.00     0.142 C 
HETATM   20  C15 UNL     1      19.950  -1.612  53.856  1.00  0.00     0.042 C 
HETATM   21  O3  UNL     1      21.139   0.290  53.132  1.00  0.00    -0.375 OA
ENDROOT
TORSDOF 0
ENDMDL
MODEL 3
REMARK VINA RESULT:      -7.8      1.806      4.685
REMARK  0 active torsions:
REMARK  status: ('A' for Active; 'I' for Inactive)
ROOT
HETATM    1  C1  UNL     1      21.207   1.690  49.056  1.00  0.00     0.044 C 
HETATM    2  C2  UNL     1      22.133   1.483  50.328  1.00  0.00     0.140 C 
HETATM    3  C3  UNL     1      22.908   2.712  50.466  1.00  0.00     0.004 C 
HETATM    4  C4  UNL     1      24.016   3.468  50.663  1.00  0.00     0.000 C 
HETATM    5  C5  UNL     1      25.449   3.347  50.920  1.00  0.00     0.024 C 
HETATM    6  C6  UNL     1      26.358   2.398  51.095  1.00  0.00     0.144 C 
HETATM    7  O1  UNL     1      26.900   1.111  51.211  1.00  0.00    -0.302 OA
HETATM    8  C7  UNL     1      27.139   0.596  52.509  1.00  0.00     0.199 A 
HETATM    9  N1  UNL     1      28.292   0.382  53.205  1.00  0.00    -0.214 NA
HETATM   10  C8  UNL     1      28.209  -0.124  54.445  1.00  0.00     0.258 A 
HETATM   11  N2  UNL     1      27.059  -0.443  55.071  1.00  0.00    -0.161 NA
HETATM   12  N3  UNL     1      25.910  -0.250  54.428  1.00  0.00    -0.237 N 
HETATM   13  C9  UNL     1      24.629  -0.473  54.776  1.00  0.00     0.155 A 
HETATM   14  C10 UNL     1      23.864  -0.080  53.676  1.00  0.00     0.088 A 
HETATM   15  C11 UNL     1      24.730   0.364  52.714  1.00  0.00     0.074 A 
HETATM   16  C12 UNL     1      26.007   0.249  53.204  1.00  0.00     0.114 A 
HETATM   17  O2  UNL     1      22.608  -0.077  53.457  1.00  0.00    -0.347 OA
HETATM   18  C13 UNL     1      21.339  -0.074  53.237  1.00  0.00     0.207 C 
HETATM   19  C14 UNL     1      20.889   0.115  51.770  1.00  0.00     0.142 C 
HETATM   20  C15 UNL     1      19.395  -0.088  51.753  1.00  0.00     0.042 C 
HETATM   21  O3  UNL     1      21.210   1.356  51.339  1.00  0.00    -0.375 OA
ENDROOT
TORSDOF 0
ENDMDL
MODEL 4
REMARK VINA RESULT:      -7.7      3.826      6.595
REMARK  0 active torsions:
REMARK  status: ('A' for Active; 'I' for Inactive)
ROOT
HETATM    1  C1  UNL     1      27.335   1.315  52.520  1.00  0.00     0.044 C 
HETATM    2  C2  UNL     1      26.108   2.167  51.983  1.00  0.00     0.140 C 
HETATM    3  C3  UNL     1      26.451   2.551  50.617  1.00  0.00     0.004 C 
HETATM    4  C4  UNL     1      26.581   3.383  49.554  1.00  0.00     0.000 C 
HETATM    5  C5  UNL     1      26.349   4.770  49.156  1.00  0.00     0.024 C 
HETATM    6  C6  UNL     1      25.876   5.894  49.674  1.00  0.00     0.144 C 
HETATM    7  O1  UNL     1      25.322   6.767  50.620  1.00  0.00    -0.302 OA
HETATM    8  C7  UNL     1      23.935   7.047  50.546  1.00  0.00     0.199 A 
HETATM    9  N1  UNL     1      23.250   8.160  50.156  1.00  0.00    -0.214 NA
HETATM   10  C8  UNL     1      21.909   8.134  50.188  1.00  0.00     0.258 A 
HETATM   11  N2  UNL     1      21.169   7.078  50.581  1.00  0.00    -0.161 NA
HETATM   12  N3  UNL     1      21.797   5.971  50.971  1.00  0.00    -0.237 N 
HETATM   13  C9  UNL     1      21.346   4.783  51.415  1.00  0.00     0.155 A 
HETATM   14  C10 UNL     1      22.486   4.020  51.679  1.00  0.00     0.088 A 
HETATM   15  C11 UNL     1      23.574   4.793  51.377  1.00  0.00     0.074 A 
HETATM   16  C12 UNL     1      23.121   6.012  50.935  1.00  0.00     0.114 A 
HETATM   17  O2  UNL     1      22.646   2.834  52.118  1.00  0.00    -0.347 OA
HETATM   18  C13 UNL     1      22.806   1.635  52.561  1.00  0.00     0.207 C 
HETATM   19  C14 UNL     1      24.225   1.258  53.045  1.00  0.00     0.142 C 
HETATM   20  C15 UNL     1      24.113  -0.113  53.663  1.00  0.00     0.042 C 
HETATM   21  O3  UNL     1      25.086   1.246  52.002  1.00  0.00    -0.375 OA
ENDROOT
TORSDOF 0
ENDMDL
MODEL 5
REMARK VINA RESULT:      -7.5      3.187      4.897
REMARK  0 active torsions:
REMARK  status: ('A' for Active; 'I' for Inactive)
ROOT
HETATM    1  C1  UNL     1      25.836  -1.225  53.106  1.00  0.00     0.044 C 
HETATM    2  C2  UNL     1      24.643  -0.179  53.101  1.00  0.00     0.140 C 
HETATM    3  C3  UNL     1      23.730  -0.604  54.158  1.00  0.00     0.004 C 
HETATM    4  C4  UNL     1      22.533  -0.895  54.725  1.00  0.00     0.000 C 
HETATM    5  C5  UNL     1      21.104  -0.922  54.422  1.00  0.00     0.024 C 
HETATM    6  C6  UNL     1      20.289  -0.651  53.413  1.00  0.00     0.144 C 
HETATM    7  O1  UNL     1      19.879  -0.250  52.135  1.00  0.00    -0.302 OA
HETATM    8  C7  UNL     1      19.372   1.063  51.972  1.00  0.00     0.199 A 
HETATM    9  N1  UNL     1      18.109   1.531  51.756  1.00  0.00    -0.214 NA
HETATM   10  C8  UNL     1      17.926   2.856  51.644  1.00  0.00     0.258 A 
HETATM   11  N2  UNL     1      18.904   3.778  51.728  1.00  0.00    -0.161 NA
HETATM   12  N3  UNL     1      20.152   3.365  51.937  1.00  0.00    -0.237 N 
HETATM   13  C9  UNL     1      21.318   4.028  52.058  1.00  0.00     0.155 A 
HETATM   14  C10 UNL     1      22.291   3.047  52.258  1.00  0.00     0.088 A 
HETATM   15  C11 UNL     1      21.659   1.834  52.247  1.00  0.00     0.074 A 
HETATM   16  C12 UNL     1      20.318   2.055  52.046  1.00  0.00     0.114 A 
HETATM   17  O2  UNL     1      23.554   3.109  52.426  1.00  0.00    -0.347 OA
HETATM   18  C13 UNL     1      24.829   3.172  52.597  1.00  0.00     0.207 C 
HETATM   19  C14 UNL     1      25.616   1.851  52.444  1.00  0.00     0.142 C 
HETATM   20  C15 UNL     1      27.078   2.215  52.519  1.00  0.00     0.042 C 
HETATM   21  O3  UNL     1      25.284   0.992  53.434  1.00  0.00    -0.375 OA
ENDROOT
TORSDOF 0
ENDMDL
MODEL 6
REMARK VINA RESULT:      -7.4      2.296      4.436
REMARK  0 active torsions:
REMARK  status: ('A' for Active; 'I' for Inactive)
ROOT
HETATM    1  C1  UNL     1      28.645   2.649  53.078  1.00  0.00     0.044 C 
HETATM    2  C2  UNL     1      27.217   2.027  52.773  1.00  0.00     0.140 C 
HETATM    3  C3  UNL     1      26.794   2.595  51.496  1.00  0.00     0.004 C 
HETATM    4  C4  UNL     1      25.945   3.177  50.614  1.00  0.00     0.000 C 
HETATM    5  C5  UNL     1      24.575   3.674  50.508  1.00  0.00     0.024 C 
HETATM    6  C6  UNL     1      23.487   3.778  51.258  1.00  0.00     0.144 C 
HETATM    7  O1  UNL     1      22.656   3.664  52.380  1.00  0.00    -0.302 OA
HETATM    8  C7  UNL     1      21.726   2.595  52.422  1.00  0.00     0.199 A 
HETATM    9  N1  UNL     1      20.369   2.564  52.289  1.00  0.00    -0.214 NA
HETATM   10  C8  UNL     1      19.742   1.381  52.373  1.00  0.00     0.258 A 
HETATM   11  N2  UNL     1      20.355   0.198  52.581  1.00  0.00    -0.161 NA
HETATM   12  N3  UNL     1      21.679   0.184  52.718  1.00  0.00    -0.237 N 
HETATM   13  C9  UNL     1      22.556  -0.815  52.938  1.00  0.00     0.155 A 
HETATM   14  C10 UNL     1      23.812  -0.208  52.996  1.00  0.00     0.088 A 
HETATM   15  C11 UNL     1      23.627   1.134  52.807  1.00  0.00     0.074 A 
HETATM   16  C12 UNL     1      22.284   1.359  52.634  1.00  0.00     0.114 A 
HETATM   17  O2  UNL     1      24.984  -0.673  53.186  1.00  0.00    -0.347 OA
HETATM   18  C13 UNL     1      26.168  -1.143  53.376  1.00  0.00     0.207 C 
HETATM   19  C14 UNL     1      27.276  -0.119  53.714  1.00  0.00     0.142 C 
HETATM   20  C15 UNL     1      28.507  -0.921  54.054  1.00  0.00     0.042 C 
HETATM   21  O3  UNL     1      27.506   0.688  52.654  1.00  0.00    -0.375 OA
ENDROOT
TORSDOF 0
ENDMDL
MODEL 7
REMARK VINA RESULT:      -7.2      1.796      3.655
REMARK  0 active torsions:
REMARK  status: ('A' for Active; 'I' for Inactive)
ROOT
HETATM    1  C1  UNL     1      26.777   3.387  49.432  1.00  0.00     0.044 C 
HETATM    2  C2  UNL     1      25.591   3.011  50.418  1.00  0.00     0.140 C 
HETATM    3  C3  UNL     1      26.204   2.807  51.727  1.00  0.00     0.004 C 
HETATM    4  C4  UNL     1      26.439   2.181  52.907  1.00  0.00     0.000 C 
HETATM    5  C5  UNL     1      26.033   1.006  53.675  1.00  0.00     0.024 C 
HETATM    6  C6  UNL     1      25.207  -0.024  53.567  1.00  0.00     0.144 C 
HETATM    7  O1  UNL     1      24.242  -0.874  53.011  1.00  0.00    -0.302 OA
HETATM    8  C7  UNL     1      22.901  -0.750  53.454  1.00  0.00     0.199 A 
HETATM    9  N1  UNL     1      22.128  -1.546  54.247  1.00  0.00    -0.214 NA
HETATM   10  C8  UNL     1      20.867  -1.165  54.505  1.00  0.00     0.258 A 
HETATM   11  N2  UNL     1      20.292  -0.040  54.036  1.00  0.00    -0.161 NA
HETATM   12  N3  UNL     1      21.011   0.765  53.257  1.00  0.00    -0.237 N 
HETATM   13  C9  UNL     1      20.721   1.928  52.644  1.00  0.00     0.155 A 
HETATM   14  C10 UNL     1      21.881   2.293  51.957  1.00  0.00     0.088 A 
HETATM   15  C11 UNL     1      22.818   1.324  52.194  1.00  0.00     0.074 A 
HETATM   16  C12 UNL     1      22.254   0.376  53.011  1.00  0.00     0.114 A 
HETATM   17  O2  UNL     1      22.165   3.290  51.215  1.00  0.00    -0.347 OA
HETATM   18  C13 UNL     1      22.451   4.298  50.466  1.00  0.00     0.207 C 
HETATM   19  C14 UNL     1      23.730   4.183  49.605  1.00  0.00     0.142 C 
HETATM   20  C15 UNL     1      23.749   5.395  48.708  1.00  0.00     0.042 C 
HETATM   21  O3  UNL     1      24.825   4.154  50.397  1.00  0.00    -0.375 OA
ENDROOT
TORSDOF 0
ENDMDL
MODEL 8
REMARK VINA RESULT:      -7.2      2.208      5.364
REMARK  0 active torsions:
REMARK  status: ('A' for Active; 'I' for Inactive)
ROOT
HETATM    1  C1  UNL     1      17.989   0.647  51.187  1.00  0.00     0.044 C 
HETATM    2  C2  UNL     1      19.416   0.678  51.881  1.00  0.00     0.140 C 
HETATM    3  C3  UNL     1      19.727   2.087  52.101  1.00  0.00     0.004 C 
HETATM    4  C4  UNL     1      20.489   3.209  52.097  1.00  0.00     0.000 C 
HETATM    5  C5  UNL     1      21.827   3.676  51.744  1.00  0.00     0.024 C 
HETATM    6  C6  UNL     1      22.960   3.193  51.253  1.00  0.00     0.144 C 
HETATM    7  O1  UNL     1      23.870   2.259  50.742  1.00  0.00    -0.302 OA
HETATM    8  C7  UNL     1      24.843   1.718  51.619  1.00  0.00     0.199 A 
HETATM    9  N1  UNL     1      26.188   1.921  51.724  1.00  0.00    -0.214 NA
HETATM   10  C8  UNL     1      26.865   1.258  52.674  1.00  0.00     0.258 A 
HETATM   11  N2  UNL     1      26.316   0.394  53.550  1.00  0.00    -0.161 NA
HETATM   12  N3  UNL     1      25.006   0.166  53.482  1.00  0.00    -0.237 N 
HETATM   13  C9  UNL     1      24.188  -0.630  54.197  1.00  0.00     0.155 A 
HETATM   14  C10 UNL     1      22.915  -0.450  53.650  1.00  0.00     0.088 A 
HETATM   15  C11 UNL     1      23.032   0.451  52.628  1.00  0.00     0.074 A 
HETATM   16  C12 UNL     1      24.351   0.826  52.539  1.00  0.00     0.114 A 
HETATM   17  O2  UNL     1      21.778  -0.955  53.932  1.00  0.00    -0.347 OA
HETATM   18  C13 UNL     1      20.630  -1.463  54.218  1.00  0.00     0.207 C 
HETATM   19  C14 UNL     1      19.509  -1.279  53.170  1.00  0.00     0.142 C 
HETATM   20  C15 UNL     1      18.337  -2.097  53.652  1.00  0.00     0.042 C 
HETATM   21  O3  UNL     1      19.174   0.027  53.069  1.00  0.00    -0.375 OA
ENDROOT
TORSDOF 0
ENDMDL
MODEL 9
REMARK VINA RESULT:      -7.0      2.109      4.324
REMARK  0 active torsions:
REMARK  status: ('A' for Active; 'I' for Inactive)
ROOT
HETATM    1  C1  UNL     1      21.761   4.007  48.683  1.00  0.00     0.044 C 
HETATM    2  C2  UNL     1      21.640   3.166  50.023  1.00  0.00     0.140 C 
HETATM    3  C3  UNL     1      22.391   3.905  51.033  1.00  0.00     0.004 C 
HETATM    4  C4  UNL     1      23.264   4.078  52.056  1.00  0.00     0.000 C 
HETATM    5  C5  UNL     1      24.172   3.326  52.919  1.00  0.00     0.024 C 
HETATM    6  C6  UNL     1      24.566   2.075  53.109  1.00  0.00     0.144 C 
HETATM    7  O1  UNL     1      24.649   0.688  52.929  1.00  0.00    -0.302 OA
HETATM    8  C7  UNL     1      23.926  -0.150  53.815  1.00  0.00     0.199 A 
HETATM    9  N1  UNL     1      24.332  -0.966  54.831  1.00  0.00    -0.214 NA
HETATM   10  C8  UNL     1      23.402  -1.651  55.514  1.00  0.00     0.258 A 
HETATM   11  N2  UNL     1      22.077  -1.598  55.276  1.00  0.00    -0.161 NA
HETATM   12  N3  UNL     1      21.638  -0.815  54.293  1.00  0.00    -0.237 N 
HETATM   13  C9  UNL     1      20.403  -0.562  53.819  1.00  0.00     0.155 A 
HETATM   14  C10 UNL     1      20.579   0.340  52.768  1.00  0.00     0.088 A 
HETATM   15  C11 UNL     1      21.920   0.588  52.662  1.00  0.00     0.074 A 
HETATM   16  C12 UNL     1      22.566  -0.145  53.626  1.00  0.00     0.114 A 
HETATM   17  O2  UNL     1      19.758   0.905  51.973  1.00  0.00    -0.347 OA
HETATM   18  C13 UNL     1      18.929   1.477  51.170  1.00  0.00     0.207 C 
HETATM   19  C14 UNL     1      19.529   2.150  49.914  1.00  0.00     0.142 C 
HETATM   20  C15 UNL     1      18.361   2.587  49.066  1.00  0.00     0.042 C 
HETATM   21  O3  UNL     1      20.288   3.211  50.271  1.00  0.00    -0.375 OA
ENDROOT
TORSDOF 0
ENDMDL
