MODEL 1
REMARK VINA RESULT:      -7.3      0.000      0.000
REMARK  4 active torsions:
REMARK  status: ('A' for Active; 'I' for Inactive)
REMARK    1  A    between atoms: N3_14  and  C9_15 
REMARK    2  A    between atoms: C9_15  and  C10_16 
REMARK    3  A    between atoms: C10_16  and  C11_17 
REMARK    4  A    between atoms: C11_17  and  N4_18 
ROOT
HETATM    1  O1  UNL     1      21.712   1.977  51.535  1.00  0.00    -0.271 OA
HETATM    2  C1  UNL     1      22.759   1.949  52.240  1.00  0.00     0.244 C 
HETATM    3  C2  UNL     1      23.048   0.571  52.638  1.00  0.00     0.278 C 
HETATM    4  O2  UNL     1      24.228   0.547  53.413  1.00  0.00    -0.344 OA
HETATM    5  C3  UNL     1      25.199   1.531  53.408  1.00  0.00     0.075 C 
HETATM    6  C4  UNL     1      26.448   1.293  53.798  1.00  0.00     0.025 A 
HETATM    7  C5  UNL     1      27.506   2.285  53.814  1.00  0.00     0.130 A 
HETATM    8  N1  UNL     1      28.688   1.998  54.199  1.00  0.00    -0.254 NA
HETATM    9  C6  UNL     1      29.039   0.693  54.635  1.00  0.00     0.228 A 
HETATM   10  N2  UNL     1      28.144  -0.228  54.643  1.00  0.00    -0.262 NA
HETATM   11  C7  UNL     1      26.784  -0.078  54.246  1.00  0.00     0.217 A 
HETATM   12 BR1  UNL     1      26.417  -1.297  52.781  1.00  0.00    -0.061 Br
HETATM   13  C8  UNL     1      24.923   2.908  52.974  1.00  0.00     0.191 C 
HETATM   14  N3  UNL     1      23.540   3.074  52.595  1.00  0.00    -0.344 N 
ENDROOT
BRANCH  14  15
HETATM   15  C9  UNL     1      22.860   4.357  52.543  1.00  0.00     0.128 C 
BRANCH  15  16
HETATM   16  C10 UNL     1      22.959   5.002  51.195  1.00  0.00     0.050 C 
BRANCH  16  17
HETATM   17  C11 UNL     1      24.347   5.336  50.760  1.00  0.00     0.274 C 
BRANCH  17  18
HETATM   18  N4  UNL     1      24.695   4.918  49.442  1.00  0.00     0.092 N 
HETATM   19  C12 UNL     1      25.537   5.786  48.700  1.00  0.00     0.298 C 
HETATM   20  C13 UNL     1      27.003   5.568  48.817  1.00  0.00     0.198 C 
HETATM   21  O3  UNL     1      27.398   4.244  48.922  1.00  0.00    -0.388 OA
HETATM   22  C14 UNL     1      26.595   3.518  49.793  1.00  0.00     0.198 C 
HETATM   23  C15 UNL     1      25.149   3.563  49.369  1.00  0.00     0.298 C 
ENDBRANCH  17  18
ENDBRANCH  16  17
ENDBRANCH  15  16
ENDBRANCH  14  15
TORSDOF 4
ENDMDL
MODEL 2
REMARK VINA RESULT:      -7.3      2.954      5.883
REMARK  4 active torsions:
REMARK  status: ('A' for Active; 'I' for Inactive)
REMARK    1  A    between atoms: N3_14  and  C9_15 
REMARK    2  A    between atoms: C9_15  and  C10_16 
REMARK    3  A    between atoms: C10_16  and  C11_17 
REMARK    4  A    between atoms: C11_17  and  N4_18 
ROOT
HETATM    1  O1  UNL     1      23.940   4.113  49.642  1.00  0.00    -0.271 OA
HETATM    2  C1  UNL     1      23.590   3.331  50.569  1.00  0.00     0.244 C 
HETATM    3  C2  UNL     1      22.151   3.457  50.802  1.00  0.00     0.278 C 
HETATM    4  O2  UNL     1      21.765   2.568  51.830  1.00  0.00    -0.344 OA
HETATM    5  C3  UNL     1      22.479   1.451  52.221  1.00  0.00     0.075 C 
HETATM    6  C4  UNL     1      21.908   0.436  52.863  1.00  0.00     0.025 A 
HETATM    7  C5  UNL     1      22.607  -0.759  53.296  1.00  0.00     0.130 A 
HETATM    8  N1  UNL     1      22.006  -1.702  53.910  1.00  0.00    -0.254 NA
HETATM    9  C6  UNL     1      20.619  -1.639  54.205  1.00  0.00     0.228 A 
HETATM   10  N2  UNL     1      19.946  -0.606  53.847  1.00  0.00    -0.262 NA
HETATM   11  C7  UNL     1      20.460   0.530  53.157  1.00  0.00     0.217 A 
HETATM   12 BR1  UNL     1      19.516   0.723  51.472  1.00  0.00    -0.061 Br
HETATM   13  C8  UNL     1      23.918   1.304  51.956  1.00  0.00     0.191 C 
HETATM   14  N3  UNL     1      24.451   2.462  51.279  1.00  0.00    -0.344 N 
ENDROOT
BRANCH  14  15
HETATM   15  C9  UNL     1      25.859   2.818  51.266  1.00  0.00     0.128 C 
BRANCH  15  16
HETATM   16  C10 UNL     1      26.745   1.662  51.616  1.00  0.00     0.050 C 
BRANCH  16  17
HETATM   17  C11 UNL     1      27.584   1.863  52.834  1.00  0.00     0.274 C 
BRANCH  17  18
HETATM   18  N4  UNL     1      27.404   0.898  53.869  1.00  0.00     0.092 N 
HETATM   19  C12 UNL     1      26.718  -0.293  53.517  1.00  0.00     0.298 C 
HETATM   20  C13 UNL     1      27.544  -1.430  53.031  1.00  0.00     0.198 C 
HETATM   21  O3  UNL     1      28.777  -1.572  53.648  1.00  0.00    -0.388 OA
HETATM   22  C14 UNL     1      29.432  -0.357  53.808  1.00  0.00     0.198 C 
HETATM   23  C15 UNL     1      28.598   0.613  54.605  1.00  0.00     0.298 C 
ENDBRANCH  17  18
ENDBRANCH  16  17
ENDBRANCH  15  16
ENDBRANCH  14  15
TORSDOF 4
ENDMDL
MODEL 3
REMARK VINA RESULT:      -7.1      2.788      5.952
REMARK  4 active torsions:
REMARK  status: ('A' for Active; 'I' for Inactive)
REMARK    1  A    between atoms: N3_14  and  C9_15 
REMARK    2  A    between atoms: C9_15  and  C10_16 
REMARK    3  A    between atoms: C10_16  and  C11_17 
REMARK    4  A    between atoms: C11_17  and  N4_18 
ROOT
HETATM    1  O1  UNL     1      21.520   3.573  52.459  1.00  0.00    -0.271 OA
HETATM    2  C1  UNL     1      22.438   3.720  51.604  1.00  0.00     0.244 C 
HETATM    3  C2  UNL     1      22.393   5.078  51.062  1.00  0.00     0.278 C 
HETATM    4  O2  UNL     1      23.431   5.238  50.119  1.00  0.00    -0.344 OA
HETATM    5  C3  UNL     1      24.570   4.457  50.052  1.00  0.00     0.075 C 
HETATM    6  C4  UNL     1      25.683   4.879  49.462  1.00  0.00     0.025 A 
HETATM    7  C5  UNL     1      26.905   4.103  49.362  1.00  0.00     0.130 A 
HETATM    8  N1  UNL     1      27.945   4.562  48.783  1.00  0.00    -0.254 NA
HETATM    9  C6  UNL     1      27.969   5.856  48.200  1.00  0.00     0.228 A 
HETATM   10  N2  UNL     1      26.918   6.590  48.256  1.00  0.00    -0.262 NA
HETATM   11  C7  UNL     1      25.679   6.233  48.864  1.00  0.00     0.217 A 
HETATM   12 BR1  UNL     1      25.278   7.510  50.270  1.00  0.00    -0.061 Br
HETATM   13  C8  UNL     1      24.631   3.105  50.628  1.00  0.00     0.191 C 
HETATM   14  N3  UNL     1      23.372   2.728  51.223  1.00  0.00    -0.344 N 
ENDROOT
BRANCH  14  15
HETATM   15  C9  UNL     1      22.972   1.354  51.476  1.00  0.00     0.128 C 
BRANCH  15  16
HETATM   16  C10 UNL     1      23.303   0.908  52.867  1.00  0.00     0.050 C 
BRANCH  16  17
HETATM   17  C11 UNL     1      24.476  -0.009  52.969  1.00  0.00     0.274 C 
BRANCH  17  18
HETATM   18  N4  UNL     1      25.754   0.613  52.849  1.00  0.00     0.092 N 
HETATM   19  C12 UNL     1      26.336   1.106  54.044  1.00  0.00     0.298 C 
HETATM   20  C13 UNL     1      27.211   0.174  54.804  1.00  0.00     0.198 C 
HETATM   21  O3  UNL     1      27.985  -0.676  54.029  1.00  0.00    -0.388 OA
HETATM   22  C14 UNL     1      27.272  -1.223  52.970  1.00  0.00     0.198 C 
HETATM   23  C15 UNL     1      26.695  -0.147  52.085  1.00  0.00     0.298 C 
ENDBRANCH  17  18
ENDBRANCH  16  17
ENDBRANCH  15  16
ENDBRANCH  14  15
TORSDOF 4
ENDMDL
MODEL 4
REMARK VINA RESULT:      -7.0      1.813      2.295
REMARK  4 active torsions:
REMARK  status: ('A' for Active; 'I' for Inactive)
REMARK    1  A    between atoms: N3_14  and  C9_15 
REMARK    2  A    between atoms: C9_15  and  C10_16 
REMARK    3  A    between atoms: C10_16  and  C11_17 
REMARK    4  A    between atoms: C11_17  and  N4_18 
ROOT
HETATM    1  O1  UNL     1      21.642   1.854  51.569  1.00  0.00    -0.271 OA
HETATM    2  C1  UNL     1      22.701   1.861  52.256  1.00  0.00     0.244 C 
HETATM    3  C2  UNL     1      23.021   0.498  52.682  1.00  0.00     0.278 C 
HETATM    4  O2  UNL     1      24.214   0.513  53.437  1.00  0.00    -0.344 OA
HETATM    5  C3  UNL     1      25.168   1.513  53.392  1.00  0.00     0.075 C 
HETATM    6  C4  UNL     1      26.427   1.306  53.766  1.00  0.00     0.025 A 
HETATM    7  C5  UNL     1      27.468   2.316  53.741  1.00  0.00     0.130 A 
HETATM    8  N1  UNL     1      28.661   2.059  54.112  1.00  0.00    -0.254 NA
HETATM    9  C6  UNL     1      29.041   0.771  54.573  1.00  0.00     0.228 A 
HETATM   10  N2  UNL     1      28.164  -0.165  54.618  1.00  0.00    -0.262 NA
HETATM   11  C7  UNL     1      26.794  -0.047  54.242  1.00  0.00     0.217 A 
HETATM   12 BR1  UNL     1      26.425  -1.308  52.812  1.00  0.00    -0.061 Br
HETATM   13  C8  UNL     1      24.860   2.874  52.930  1.00  0.00     0.191 C 
HETATM   14  N3  UNL     1      23.469   3.007  52.571  1.00  0.00    -0.344 N 
ENDROOT
BRANCH  14  15
HETATM   15  C9  UNL     1      22.766   4.277  52.499  1.00  0.00     0.128 C 
BRANCH  15  16
HETATM   16  C10 UNL     1      23.289   5.160  51.409  1.00  0.00     0.050 C 
BRANCH  16  17
HETATM   17  C11 UNL     1      22.539   5.079  50.122  1.00  0.00     0.274 C 
BRANCH  17  18
HETATM   18  N4  UNL     1      23.300   4.653  48.994  1.00  0.00     0.092 N 
HETATM   19  C12 UNL     1      23.616   3.272  48.923  1.00  0.00     0.298 C 
HETATM   20  C13 UNL     1      22.653   2.393  48.209  1.00  0.00     0.198 C 
HETATM   21  O3  UNL     1      22.048   2.959  47.097  1.00  0.00    -0.388 OA
HETATM   22  C14 UNL     1      21.639   4.267  47.325  1.00  0.00     0.198 C 
HETATM   23  C15 UNL     1      22.797   5.137  47.744  1.00  0.00     0.298 C 
ENDBRANCH  17  18
ENDBRANCH  16  17
ENDBRANCH  15  16
ENDBRANCH  14  15
TORSDOF 4
ENDMDL
MODEL 5
REMARK VINA RESULT:      -7.0      2.411      4.619
REMARK  4 active torsions:
REMARK  status: ('A' for Active; 'I' for Inactive)
REMARK    1  A    between atoms: N3_14  and  C9_15 
REMARK    2  A    between atoms: C9_15  and  C10_16 
REMARK    3  A    between atoms: C10_16  and  C11_17 
REMARK    4  A    between atoms: C11_17  and  N4_18 
ROOT
HETATM    1  O1  UNL     1      28.068   0.927  53.092  1.00  0.00    -0.271 OA
HETATM    2  C1  UNL     1      26.837   0.795  52.844  1.00  0.00     0.244 C 
HETATM    3  C2  UNL     1      26.358  -0.473  53.394  1.00  0.00     0.278 C 
HETATM    4  O2  UNL     1      24.978  -0.606  53.125  1.00  0.00    -0.344 OA
HETATM    5  C3  UNL     1      24.122   0.440  52.835  1.00  0.00     0.075 C 
HETATM    6  C4  UNL     1      22.807   0.346  53.006  1.00  0.00     0.025 A 
HETATM    7  C5  UNL     1      21.864   1.410  52.719  1.00  0.00     0.130 A 
HETATM    8  N1  UNL     1      20.610   1.262  52.903  1.00  0.00    -0.254 NA
HETATM    9  C6  UNL     1      20.063   0.050  53.400  1.00  0.00     0.228 A 
HETATM   10  N2  UNL     1      20.849  -0.928  53.673  1.00  0.00    -0.262 NA
HETATM   11  C7  UNL     1      22.266  -0.930  53.526  1.00  0.00     0.217 A 
HETATM   12 BR1  UNL     1      23.077  -1.266  55.257  1.00  0.00    -0.061 Br
HETATM   13  C8  UNL     1      24.603   1.729  52.317  1.00  0.00     0.191 C 
HETATM   14  N3  UNL     1      26.036   1.726  52.142  1.00  0.00    -0.344 N 
ENDROOT
BRANCH  14  15
HETATM   15  C9  UNL     1      26.750   2.643  51.271  1.00  0.00     0.128 C 
BRANCH  15  16
HETATM   16  C10 UNL     1      25.971   2.985  50.038  1.00  0.00     0.050 C 
BRANCH  16  17
HETATM   17  C11 UNL     1      26.198   4.364  49.515  1.00  0.00     0.274 C 
BRANCH  17  18
HETATM   18  N4  UNL     1      25.021   5.127  49.262  1.00  0.00     0.092 N 
HETATM   19  C12 UNL     1      23.934   4.937  50.153  1.00  0.00     0.298 C 
HETATM   20  C13 UNL     1      23.874   5.825  51.344  1.00  0.00     0.198 C 
HETATM   21  O3  UNL     1      24.294   7.128  51.132  1.00  0.00    -0.388 OA
HETATM   22  C14 UNL     1      25.455   7.194  50.371  1.00  0.00     0.198 C 
HETATM   23  C15 UNL     1      25.272   6.517  49.036  1.00  0.00     0.298 C 
ENDBRANCH  17  18
ENDBRANCH  16  17
ENDBRANCH  15  16
ENDBRANCH  14  15
TORSDOF 4
ENDMDL
MODEL 6
REMARK VINA RESULT:      -6.9      3.760      6.681
REMARK  4 active torsions:
REMARK  status: ('A' for Active; 'I' for Inactive)
REMARK    1  A    between atoms: N3_14  and  C9_15 
REMARK    2  A    between atoms: C9_15  and  C10_16 
REMARK    3  A    between atoms: C10_16  and  C11_17 
REMARK    4  A    between atoms: C11_17  and  N4_18 
ROOT
HETATM    1  O1  UNL     1      21.488  -0.931  55.164  1.00  0.00    -0.271 OA
HETATM    2  C1  UNL     1      21.486  -0.568  53.955  1.00  0.00     0.244 C 
HETATM    3  C2  UNL     1      20.109  -0.492  53.466  1.00  0.00     0.278 C 
HETATM    4  O2  UNL     1      20.116  -0.072  52.118  1.00  0.00    -0.344 OA
HETATM    5  C3  UNL     1      21.153   0.605  51.504  1.00  0.00     0.075 C 
HETATM    6  C4  UNL     1      20.969   1.338  50.410  1.00  0.00     0.025 A 
HETATM    7  C5  UNL     1      22.019   2.067  49.724  1.00  0.00     0.130 A 
HETATM    8  N1  UNL     1      21.782   2.756  48.677  1.00  0.00    -0.254 NA
HETATM    9  C6  UNL     1      20.480   2.850  48.120  1.00  0.00     0.228 A 
HETATM   10  N2  UNL     1      19.509   2.227  48.682  1.00  0.00    -0.262 NA
HETATM   11  C7  UNL     1      19.600   1.418  49.852  1.00  0.00     0.217 A 
HETATM   12 BR1  UNL     1      18.436   2.157  51.219  1.00  0.00    -0.061 Br
HETATM   13  C8  UNL     1      22.531   0.561  52.013  1.00  0.00     0.191 C 
HETATM   14  N3  UNL     1      22.635  -0.277  53.183  1.00  0.00    -0.344 N 
ENDROOT
BRANCH  14  15
HETATM   15  C9  UNL     1      23.878  -0.866  53.653  1.00  0.00     0.128 C 
BRANCH  15  16
HETATM   16  C10 UNL     1      25.084  -0.145  53.135  1.00  0.00     0.050 C 
BRANCH  16  17
HETATM   17  C11 UNL     1      26.372  -0.881  53.300  1.00  0.00     0.274 C 
BRANCH  17  18
HETATM   18  N4  UNL     1      27.534  -0.194  52.841  1.00  0.00     0.092 N 
HETATM   19  C12 UNL     1      27.407   1.202  52.627  1.00  0.00     0.298 C 
HETATM   20  C13 UNL     1      27.719   2.093  53.776  1.00  0.00     0.198 C 
HETATM   21  O3  UNL     1      28.763   1.672  54.584  1.00  0.00    -0.388 OA
HETATM   22  C14 UNL     1      28.707   0.310  54.856  1.00  0.00     0.198 C 
HETATM   23  C15 UNL     1      28.717  -0.501  53.585  1.00  0.00     0.298 C 
ENDBRANCH  17  18
ENDBRANCH  16  17
ENDBRANCH  15  16
ENDBRANCH  14  15
TORSDOF 4
ENDMDL
MODEL 7
REMARK VINA RESULT:      -6.8      1.515      1.876
REMARK  4 active torsions:
REMARK  status: ('A' for Active; 'I' for Inactive)
REMARK    1  A    between atoms: N3_14  and  C9_15 
REMARK    2  A    between atoms: C9_15  and  C10_16 
REMARK    3  A    between atoms: C10_16  and  C11_17 
REMARK    4  A    between atoms: C11_17  and  N4_18 
ROOT
HETATM    1  O1  UNL     1      21.180   1.119  50.995  1.00  0.00    -0.271 OA
HETATM    2  C1  UNL     1      22.297   1.464  51.473  1.00  0.00     0.244 C 
HETATM    3  C2  UNL     1      22.466   0.877  52.802  1.00  0.00     0.278 C 
HETATM    4  O2  UNL     1      23.722   1.256  53.323  1.00  0.00    -0.344 OA
HETATM    5  C3  UNL     1      24.796   1.688  52.567  1.00  0.00     0.075 C 
HETATM    6  C4  UNL     1      26.046   1.627  53.016  1.00  0.00     0.025 A 
HETATM    7  C5  UNL     1      27.210   2.065  52.268  1.00  0.00     0.130 A 
HETATM    8  N1  UNL     1      28.387   1.982  52.751  1.00  0.00    -0.254 NA
HETATM    9  C6  UNL     1      28.631   1.457  54.047  1.00  0.00     0.228 A 
HETATM   10  N2  UNL     1      27.641   1.053  54.758  1.00  0.00    -0.262 NA
HETATM   11  C7  UNL     1      26.269   1.075  54.371  1.00  0.00     0.217 A 
HETATM   12 BR1  UNL     1      25.579  -0.739  54.402  1.00  0.00    -0.061 Br
HETATM   13  C8  UNL     1      24.635   2.245  51.216  1.00  0.00     0.191 C 
HETATM   14  N3  UNL     1      23.245   2.293  50.828  1.00  0.00    -0.344 N 
ENDROOT
BRANCH  14  15
HETATM   15  C9  UNL     1      22.723   3.157  49.783  1.00  0.00     0.128 C 
BRANCH  15  16
HETATM   16  C10 UNL     1      23.802   3.700  48.898  1.00  0.00     0.050 C 
BRANCH  16  17
HETATM   17  C11 UNL     1      24.126   5.140  49.118  1.00  0.00     0.274 C 
BRANCH  17  18
HETATM   18  N4  UNL     1      25.295   5.395  49.895  1.00  0.00     0.092 N 
HETATM   19  C12 UNL     1      26.449   4.633  49.577  1.00  0.00     0.298 C 
HETATM   20  C13 UNL     1      27.378   5.204  48.567  1.00  0.00     0.198 C 
HETATM   21  O3  UNL     1      27.524   6.582  48.609  1.00  0.00    -0.388 OA
HETATM   22  C14 UNL     1      26.310   7.239  48.772  1.00  0.00     0.198 C 
HETATM   23  C15 UNL     1      25.608   6.784  50.027  1.00  0.00     0.298 C 
ENDBRANCH  17  18
ENDBRANCH  16  17
ENDBRANCH  15  16
ENDBRANCH  14  15
TORSDOF 4
ENDMDL
MODEL 8
REMARK VINA RESULT:      -6.6      2.425      3.092
REMARK  4 active torsions:
REMARK  status: ('A' for Active; 'I' for Inactive)
REMARK    1  A    between atoms: N3_14  and  C9_15 
REMARK    2  A    between atoms: C9_15  and  C10_16 
REMARK    3  A    between atoms: C10_16  and  C11_17 
REMARK    4  A    between atoms: C11_17  and  N4_18 
ROOT
HETATM    1  O1  UNL     1      23.307   3.101  49.475  1.00  0.00    -0.271 OA
HETATM    2  C1  UNL     1      24.173   2.942  50.380  1.00  0.00     0.244 C 
HETATM    3  C2  UNL     1      23.581   2.223  51.508  1.00  0.00     0.278 C 
HETATM    4  O2  UNL     1      24.560   2.036  52.508  1.00  0.00    -0.344 OA
HETATM    5  C3  UNL     1      25.926   2.079  52.298  1.00  0.00     0.075 C 
HETATM    6  C4  UNL     1      26.787   1.498  53.127  1.00  0.00     0.025 A 
HETATM    7  C5  UNL     1      28.228   1.511  52.956  1.00  0.00     0.130 A 
HETATM    8  N1  UNL     1      29.006   0.934  53.787  1.00  0.00    -0.254 NA
HETATM    9  C6  UNL     1      28.511   0.247  54.926  1.00  0.00     0.228 A 
HETATM   10  N2  UNL     1      27.245   0.200  55.130  1.00  0.00    -0.262 NA
HETATM   11  C7  UNL     1      26.242   0.788  54.306  1.00  0.00     0.217 A 
HETATM   12 BR1  UNL     1      25.054  -0.610  53.669  1.00  0.00    -0.061 Br
HETATM   13  C8  UNL     1      26.524   2.769  51.145  1.00  0.00     0.191 C 
HETATM   14  N3  UNL     1      25.514   3.388  50.320  1.00  0.00    -0.344 N 
ENDROOT
BRANCH  14  15
HETATM   15  C9  UNL     1      25.778   4.473  49.391  1.00  0.00     0.128 C 
BRANCH  15  16
HETATM   16  C10 UNL     1      25.577   5.821  50.013  1.00  0.00     0.050 C 
BRANCH  16  17
HETATM   17  C11 UNL     1      25.057   6.868  49.086  1.00  0.00     0.274 C 
BRANCH  17  18
HETATM   18  N4  UNL     1      26.049   7.659  48.434  1.00  0.00     0.092 N 
HETATM   19  C12 UNL     1      25.584   8.754  47.662  1.00  0.00     0.298 C 
HETATM   20  C13 UNL     1      25.449  10.061  48.357  1.00  0.00     0.198 C 
HETATM   21  O3  UNL     1      26.421  10.328  49.309  1.00  0.00    -0.388 OA
HETATM   22  C14 UNL     1      26.692   9.227  50.112  1.00  0.00     0.198 C 
HETATM   23  C15 UNL     1      27.131   8.044  49.288  1.00  0.00     0.298 C 
ENDBRANCH  17  18
ENDBRANCH  16  17
ENDBRANCH  15  16
ENDBRANCH  14  15
TORSDOF 4
ENDMDL
MODEL 9
REMARK VINA RESULT:      -6.5      3.359      4.878
REMARK  4 active torsions:
REMARK  status: ('A' for Active; 'I' for Inactive)
REMARK    1  A    between atoms: N3_14  and  C9_15 
REMARK    2  A    between atoms: C9_15  and  C10_16 
REMARK    3  A    between atoms: C10_16  and  C11_17 
REMARK    4  A    between atoms: C11_17  and  N4_18 
ROOT
HETATM    1  O1  UNL     1      23.984   5.945  48.320  1.00  0.00    -0.271 OA
HETATM    2  C1  UNL     1      24.462   5.183  49.206  1.00  0.00     0.244 C 
HETATM    3  C2  UNL     1      23.390   4.724  50.089  1.00  0.00     0.278 C 
HETATM    4  O2  UNL     1      23.930   3.861  51.068  1.00  0.00    -0.344 OA
HETATM    5  C3  UNL     1      25.129   3.183  50.952  1.00  0.00     0.075 C 
HETATM    6  C4  UNL     1      25.396   2.092  51.663  1.00  0.00     0.025 A 
HETATM    7  C5  UNL     1      26.636   1.342  51.583  1.00  0.00     0.130 A 
HETATM    8  N1  UNL     1      26.836   0.300  52.290  1.00  0.00    -0.254 NA
HETATM    9  C6  UNL     1      25.859  -0.189  53.198  1.00  0.00     0.228 A 
HETATM   10  N2  UNL     1      24.742   0.432  53.313  1.00  0.00    -0.262 NA
HETATM   11  C7  UNL     1      24.359   1.606  52.601  1.00  0.00     0.217 A 
HETATM   12 BR1  UNL     1      22.754   1.224  51.577  1.00  0.00    -0.061 Br
HETATM   13  C8  UNL     1      26.195   3.620  50.038  1.00  0.00     0.191 C 
HETATM   14  N3  UNL     1      25.824   4.823  49.332  1.00  0.00    -0.344 N 
ENDROOT
BRANCH  14  15
HETATM   15  C9  UNL     1      26.777   5.728  48.712  1.00  0.00     0.128 C 
BRANCH  15  16
HETATM   16  C10 UNL     1      28.118   5.093  48.507  1.00  0.00     0.050 C 
BRANCH  16  17
HETATM   17  C11 UNL     1      29.186   6.024  48.039  1.00  0.00     0.274 C 
BRANCH  17  18
HETATM   18  N4  UNL     1      30.502   5.732  48.504  1.00  0.00     0.092 N 
HETATM   19  C12 UNL     1      31.341   5.001  47.624  1.00  0.00     0.298 C 
HETATM   20  C13 UNL     1      32.186   5.788  46.687  1.00  0.00     0.198 C 
HETATM   21  O3  UNL     1      32.690   6.973  47.198  1.00  0.00    -0.388 OA
HETATM   22  C14 UNL     1      31.739   7.686  47.919  1.00  0.00     0.198 C 
HETATM   23  C15 UNL     1      31.184   6.863  49.054  1.00  0.00     0.298 C 
ENDBRANCH  17  18
ENDBRANCH  16  17
ENDBRANCH  15  16
ENDBRANCH  14  15
TORSDOF 4
ENDMDL
