MODEL 1
REMARK VINA RESULT:      -6.0      0.000      0.000
REMARK  9 active torsions:
REMARK  status: ('A' for Active; 'I' for Inactive)
REMARK    1  A    between atoms: C2_2  and  C3_3 
REMARK    2  A    between atoms: C3_3  and  C4_4 
REMARK    3  A    between atoms: C4_4  and  N1_5 
REMARK       I    between atoms: N1_5  and  C6_7 
REMARK    4  A    between atoms: C6_7  and  C7_9 
REMARK    5  A    between atoms: C10_12  and  N2_13 
REMARK    6  A    between atoms: N2_13  and  C11_14 
REMARK    7  A    between atoms: N2_13  and  C13_17 
REMARK    8  A    between atoms: C11_14  and  C12_15 
REMARK    9  A    between atoms: C13_17  and  C14_18 
ROOT
HETATM    1  C7  UNL     1      24.780   3.489  50.366  1.00  0.00     0.032 A 
HETATM    2  C8  UNL     1      26.079   3.043  50.183  1.00  0.00     0.019 A 
HETATM    3  C9  UNL     1      26.721   2.380  51.203  1.00  0.00     0.030 A 
HETATM    4  C10 UNL     1      26.174   2.108  52.436  1.00  0.00     0.030 A 
HETATM    5  C15 UNL     1      24.885   2.580  52.542  1.00  0.00     0.030 A 
HETATM    6  C16 UNL     1      24.178   3.245  51.583  1.00  0.00     0.019 A 
ENDROOT
BRANCH   1   7
HETATM    7  C6  UNL     1      24.021   4.198  49.344  1.00  0.00     0.253 C 
HETATM    8  N1  UNL     1      24.089   5.530  48.879  1.00  0.00    -0.349 N 
HETATM    9  C5  UNL     1      23.111   5.792  47.827  1.00  0.00     0.153 C 
HETATM   10  O1  UNL     1      23.237   3.267  48.955  1.00  0.00    -0.267 OA
BRANCH   8  11
HETATM   11  C4  UNL     1      24.970   6.601  49.304  1.00  0.00     0.152 C 
BRANCH  11  12
HETATM   12  C3  UNL     1      26.352   6.474  48.828  1.00  0.00    -0.012 C 
BRANCH  12  13
HETATM   13  C2  UNL     1      27.492   6.189  48.260  1.00  0.00    -0.033 C 
HETATM   14  C1  UNL     1      28.712   5.302  48.368  1.00  0.00     0.036 C 
ENDBRANCH  12  13
ENDBRANCH  11  12
ENDBRANCH   8  11
ENDBRANCH   1   7
BRANCH   4  15
HETATM   15  N2  UNL     1      26.908   1.436  53.484  1.00  0.00    -0.379 N 
BRANCH  15  16
HETATM   16  C11 UNL     1      28.312   1.777  53.499  1.00  0.00     0.138 C 
BRANCH  16  17
HETATM   17  C12 UNL     1      29.088   0.826  54.359  1.00  0.00     0.134 C 
HETATM   18 CL1  UNL     1      30.052  -0.357  53.480  1.00  0.00    -0.129 Cl
ENDBRANCH  16  17
ENDBRANCH  15  16
BRANCH  15  19
HETATM   19  C13 UNL     1      26.182   0.536  54.315  1.00  0.00     0.138 C 
BRANCH  19  20
HETATM   20  C14 UNL     1      25.657  -0.701  53.669  1.00  0.00     0.134 C 
HETATM   21 CL2  UNL     1      26.763  -1.476  52.559  1.00  0.00    -0.129 Cl
ENDBRANCH  19  20
ENDBRANCH  15  19
ENDBRANCH   4  15
TORSDOF 9
ENDMDL
MODEL 2
REMARK VINA RESULT:      -6.0      2.092      3.623
REMARK  9 active torsions:
REMARK  status: ('A' for Active; 'I' for Inactive)
REMARK    1  A    between atoms: C2_2  and  C3_3 
REMARK    2  A    between atoms: C3_3  and  C4_4 
REMARK    3  A    between atoms: C4_4  and  N1_5 
REMARK       I    between atoms: N1_5  and  C6_7 
REMARK    4  A    between atoms: C6_7  and  C7_9 
REMARK    5  A    between atoms: C10_12  and  N2_13 
REMARK    6  A    between atoms: N2_13  and  C11_14 
REMARK    7  A    between atoms: N2_13  and  C13_17 
REMARK    8  A    between atoms: C11_14  and  C12_15 
REMARK    9  A    between atoms: C13_17  and  C14_18 
ROOT
HETATM    1  C7  UNL     1      24.238   3.425  51.179  1.00  0.00     0.032 A 
HETATM    2  C8  UNL     1      24.018   3.297  52.542  1.00  0.00     0.019 A 
HETATM    3  C9  UNL     1      24.939   2.635  53.320  1.00  0.00     0.030 A 
HETATM    4  C10 UNL     1      26.102   2.064  52.856  1.00  0.00     0.030 A 
HETATM    5  C15 UNL     1      26.250   2.232  51.497  1.00  0.00     0.030 A 
HETATM    6  C16 UNL     1      25.389   2.873  50.656  1.00  0.00     0.019 A 
ENDROOT
BRANCH   1   7
HETATM    7  C6  UNL     1      23.321   4.110  50.277  1.00  0.00     0.253 C 
HETATM    8  N1  UNL     1      22.490   3.630  49.242  1.00  0.00    -0.349 N 
HETATM    9  C5  UNL     1      21.741   4.706  48.600  1.00  0.00     0.153 C 
HETATM   10  O1  UNL     1      23.467   5.315  50.677  1.00  0.00    -0.267 OA
BRANCH   8  11
HETATM   11  C4  UNL     1      22.308   2.269  48.773  1.00  0.00     0.152 C 
BRANCH  11  12
HETATM   12  C3  UNL     1      21.805   1.340  49.791  1.00  0.00    -0.012 C 
BRANCH  12  13
HETATM   13  C2  UNL     1      21.549   0.586  50.826  1.00  0.00    -0.033 C 
HETATM   14  C1  UNL     1      22.048   0.205  52.201  1.00  0.00     0.036 C 
ENDBRANCH  12  13
ENDBRANCH  11  12
ENDBRANCH   8  11
ENDBRANCH   1   7
BRANCH   4  15
HETATM   15  N2  UNL     1      27.017   1.349  53.717  1.00  0.00    -0.379 N 
BRANCH  15  16
HETATM   16  C11 UNL     1      28.373   1.842  53.633  1.00  0.00     0.138 C 
BRANCH  16  17
HETATM   17  C12 UNL     1      29.315   0.960  54.395  1.00  0.00     0.134 C 
HETATM   18 CL1  UNL     1      29.985  -0.385  53.477  1.00  0.00    -0.129 Cl
ENDBRANCH  16  17
ENDBRANCH  15  16
BRANCH  15  19
HETATM   19  C13 UNL     1      26.486   0.274  54.485  1.00  0.00     0.138 C 
BRANCH  19  20
HETATM   20  C14 UNL     1      25.777  -0.802  53.734  1.00  0.00     0.134 C 
HETATM   21 CL2  UNL     1      26.742  -1.607  52.519  1.00  0.00    -0.129 Cl
ENDBRANCH  19  20
ENDBRANCH  15  19
ENDBRANCH   4  15
TORSDOF 9
ENDMDL
MODEL 3
REMARK VINA RESULT:      -5.9      1.924      3.036
REMARK  9 active torsions:
REMARK  status: ('A' for Active; 'I' for Inactive)
REMARK    1  A    between atoms: C2_2  and  C3_3 
REMARK    2  A    between atoms: C3_3  and  C4_4 
REMARK    3  A    between atoms: C4_4  and  N1_5 
REMARK       I    between atoms: N1_5  and  C6_7 
REMARK    4  A    between atoms: C6_7  and  C7_9 
REMARK    5  A    between atoms: C10_12  and  N2_13 
REMARK    6  A    between atoms: N2_13  and  C11_14 
REMARK    7  A    between atoms: N2_13  and  C13_17 
REMARK    8  A    between atoms: C11_14  and  C12_15 
REMARK    9  A    between atoms: C13_17  and  C14_18 
ROOT
HETATM    1  C7  UNL     1      23.674   3.419  52.159  1.00  0.00     0.032 A 
HETATM    2  C8  UNL     1      24.412   3.513  53.329  1.00  0.00     0.019 A 
HETATM    3  C9  UNL     1      25.304   2.517  53.653  1.00  0.00     0.030 A 
HETATM    4  C10 UNL     1      25.541   1.392  52.898  1.00  0.00     0.030 A 
HETATM    5  C15 UNL     1      24.773   1.369  51.754  1.00  0.00     0.030 A 
HETATM    6  C16 UNL     1      23.869   2.311  51.360  1.00  0.00     0.019 A 
ENDROOT
BRANCH   1   7
HETATM    7  C6  UNL     1      22.709   4.424  51.733  1.00  0.00     0.253 C 
HETATM    8  N1  UNL     1      22.878   5.723  51.206  1.00  0.00    -0.349 N 
HETATM    9  C5  UNL     1      21.599   6.369  50.925  1.00  0.00     0.153 C 
HETATM   10  O1  UNL     1      21.616   3.804  51.968  1.00  0.00    -0.267 OA
BRANCH   8  11
HETATM   11  C4  UNL     1      24.106   6.444  50.930  1.00  0.00     0.152 C 
BRANCH  11  12
HETATM   12  C3  UNL     1      25.021   5.753  50.015  1.00  0.00    -0.012 C 
BRANCH  12  13
HETATM   13  C2  UNL     1      25.942   5.058  49.404  1.00  0.00    -0.033 C 
HETATM   14  C1  UNL     1      26.723   3.765  49.461  1.00  0.00     0.036 C 
ENDBRANCH  12  13
ENDBRANCH  11  12
ENDBRANCH   8  11
ENDBRANCH   1   7
BRANCH   4  15
HETATM   15  N2  UNL     1      26.466   0.359  53.305  1.00  0.00    -0.379 N 
BRANCH  15  16
HETATM   16  C11 UNL     1      25.834  -0.926  53.491  1.00  0.00     0.138 C 
BRANCH  16  17
HETATM   17  C12 UNL     1      24.955  -0.924  54.704  1.00  0.00     0.134 C 
HETATM   18 CL1  UNL     1      23.227  -0.846  54.373  1.00  0.00    -0.129 Cl
ENDBRANCH  16  17
ENDBRANCH  15  16
BRANCH  15  19
HETATM   19  C13 UNL     1      27.826   0.739  53.490  1.00  0.00     0.138 C 
BRANCH  19  20
HETATM   20  C14 UNL     1      28.657  -0.143  54.361  1.00  0.00     0.134 C 
HETATM   21 CL2  UNL     1      29.735  -1.217  53.501  1.00  0.00    -0.129 Cl
ENDBRANCH  19  20
ENDBRANCH  15  19
ENDBRANCH   4  15
TORSDOF 9
ENDMDL
MODEL 4
REMARK VINA RESULT:      -5.9      2.243      2.717
REMARK  9 active torsions:
REMARK  status: ('A' for Active; 'I' for Inactive)
REMARK    1  A    between atoms: C2_2  and  C3_3 
REMARK    2  A    between atoms: C3_3  and  C4_4 
REMARK    3  A    between atoms: C4_4  and  N1_5 
REMARK       I    between atoms: N1_5  and  C6_7 
REMARK    4  A    between atoms: C6_7  and  C7_9 
REMARK    5  A    between atoms: C10_12  and  N2_13 
REMARK    6  A    between atoms: N2_13  and  C11_14 
REMARK    7  A    between atoms: N2_13  and  C13_17 
REMARK    8  A    between atoms: C11_14  and  C12_15 
REMARK    9  A    between atoms: C13_17  and  C14_18 
ROOT
HETATM    1  C7  UNL     1      23.247   4.044  51.641  1.00  0.00     0.032 A 
HETATM    2  C8  UNL     1      23.186   2.917  50.835  1.00  0.00     0.019 A 
HETATM    3  C9  UNL     1      23.754   1.741  51.267  1.00  0.00     0.030 A 
HETATM    4  C10 UNL     1      24.402   1.570  52.468  1.00  0.00     0.030 A 
HETATM    5  C15 UNL     1      24.421   2.730  53.212  1.00  0.00     0.030 A 
HETATM    6  C16 UNL     1      23.885   3.933  52.859  1.00  0.00     0.019 A 
ENDROOT
BRANCH   1   7
HETATM    7  C6  UNL     1      22.674   5.331  51.269  1.00  0.00     0.253 C 
HETATM    8  N1  UNL     1      23.273   6.537  50.843  1.00  0.00    -0.349 N 
HETATM    9  C5  UNL     1      22.281   7.577  50.583  1.00  0.00     0.153 C 
HETATM   10  O1  UNL     1      21.431   5.083  51.434  1.00  0.00    -0.267 OA
BRANCH   8  11
HETATM   11  C4  UNL     1      24.678   6.839  50.648  1.00  0.00     0.152 C 
BRANCH  11  12
HETATM   12  C3  UNL     1      25.406   5.847  49.850  1.00  0.00    -0.012 C 
BRANCH  12  13
HETATM   13  C2  UNL     1      26.164   4.909  49.349  1.00  0.00    -0.033 C 
HETATM   14  C1  UNL     1      26.592   3.471  49.530  1.00  0.00     0.036 C 
ENDBRANCH  12  13
ENDBRANCH  11  12
ENDBRANCH   8  11
ENDBRANCH   1   7
BRANCH   4  15
HETATM   15  N2  UNL     1      25.010   0.317  52.856  1.00  0.00    -0.379 N 
BRANCH  15  16
HETATM   16  C11 UNL     1      26.238   0.042  52.147  1.00  0.00     0.138 C 
BRANCH  16  17
HETATM   17  C12 UNL     1      26.921  -1.171  52.703  1.00  0.00     0.134 C 
HETATM   18 CL1  UNL     1      28.528  -0.885  53.363  1.00  0.00    -0.129 Cl
ENDBRANCH  16  17
ENDBRANCH  15  16
BRANCH  15  19
HETATM   19  C13 UNL     1      24.327  -0.465  53.830  1.00  0.00     0.138 C 
BRANCH  19  20
HETATM   20  C14 UNL     1      22.928  -0.870  53.507  1.00  0.00     0.134 C 
HETATM   21 CL2  UNL     1      21.695  -0.068  54.450  1.00  0.00    -0.129 Cl
ENDBRANCH  19  20
ENDBRANCH  15  19
ENDBRANCH   4  15
TORSDOF 9
ENDMDL
MODEL 5
REMARK VINA RESULT:      -5.8      3.535      7.187
REMARK  9 active torsions:
REMARK  status: ('A' for Active; 'I' for Inactive)
REMARK    1  A    between atoms: C2_2  and  C3_3 
REMARK    2  A    between atoms: C3_3  and  C4_4 
REMARK    3  A    between atoms: C4_4  and  N1_5 
REMARK       I    between atoms: N1_5  and  C6_7 
REMARK    4  A    between atoms: C6_7  and  C7_9 
REMARK    5  A    between atoms: C10_12  and  N2_13 
REMARK    6  A    between atoms: N2_13  and  C11_14 
REMARK    7  A    between atoms: N2_13  and  C13_17 
REMARK    8  A    between atoms: C11_14  and  C12_15 
REMARK    9  A    between atoms: C13_17  and  C14_18 
ROOT
HETATM    1  C7  UNL     1      26.172   2.239  52.841  1.00  0.00     0.032 A 
HETATM    2  C8  UNL     1      25.060   2.815  53.436  1.00  0.00     0.019 A 
HETATM    3  C9  UNL     1      24.111   3.429  52.652  1.00  0.00     0.030 A 
HETATM    4  C10 UNL     1      24.163   3.531  51.281  1.00  0.00     0.030 A 
HETATM    5  C15 UNL     1      25.293   2.936  50.764  1.00  0.00     0.030 A 
HETATM    6  C16 UNL     1      26.279   2.309  51.467  1.00  0.00     0.019 A 
ENDROOT
BRANCH   1   7
HETATM    7  C6  UNL     1      27.227   1.567  53.589  1.00  0.00     0.253 C 
HETATM    8  N1  UNL     1      27.475   0.198  53.837  1.00  0.00    -0.349 N 
HETATM    9  C5  UNL     1      28.669   0.000  54.654  1.00  0.00     0.153 C 
HETATM   10  O1  UNL     1      27.904   2.575  53.984  1.00  0.00    -0.267 OA
BRANCH   8  11
HETATM   11  C4  UNL     1      26.722  -0.961  53.398  1.00  0.00     0.152 C 
BRANCH  11  12
HETATM   12  C3  UNL     1      25.280  -0.878  53.652  1.00  0.00    -0.012 C 
BRANCH  12  13
HETATM   13  C2  UNL     1      23.994  -0.655  53.687  1.00  0.00    -0.033 C 
HETATM   14  C1  UNL     1      22.832  -0.127  52.876  1.00  0.00     0.036 C 
ENDBRANCH  12  13
ENDBRANCH  11  12
ENDBRANCH   8  11
ENDBRANCH   1   7
BRANCH   4  15
HETATM   15  N2  UNL     1      23.152   4.218  50.510  1.00  0.00    -0.379 N 
BRANCH  15  16
HETATM   16  C11 UNL     1      23.161   3.853  49.113  1.00  0.00     0.138 C 
BRANCH  16  17
HETATM   17  C12 UNL     1      21.995   2.973  48.778  1.00  0.00     0.134 C 
HETATM   18 CL1  UNL     1      22.027   1.377  49.523  1.00  0.00    -0.129 Cl
ENDBRANCH  16  17
ENDBRANCH  15  16
BRANCH  15  19
HETATM   19  C13 UNL     1      22.328   5.152  51.201  1.00  0.00     0.138 C 
BRANCH  19  20
HETATM   20  C14 UNL     1      22.523   6.593  50.870  1.00  0.00     0.134 C 
HETATM   21 CL2  UNL     1      24.145   7.192  51.127  1.00  0.00    -0.129 Cl
ENDBRANCH  19  20
ENDBRANCH  15  19
ENDBRANCH   4  15
TORSDOF 9
ENDMDL
MODEL 6
REMARK VINA RESULT:      -5.8      3.173      6.918
REMARK  9 active torsions:
REMARK  status: ('A' for Active; 'I' for Inactive)
REMARK    1  A    between atoms: C2_2  and  C3_3 
REMARK    2  A    between atoms: C3_3  and  C4_4 
REMARK    3  A    between atoms: C4_4  and  N1_5 
REMARK       I    between atoms: N1_5  and  C6_7 
REMARK    4  A    between atoms: C6_7  and  C7_9 
REMARK    5  A    between atoms: C10_12  and  N2_13 
REMARK    6  A    between atoms: N2_13  and  C11_14 
REMARK    7  A    between atoms: N2_13  and  C13_17 
REMARK    8  A    between atoms: C11_14  and  C12_15 
REMARK    9  A    between atoms: C13_17  and  C14_18 
ROOT
HETATM    1  C7  UNL     1      26.207   2.283  52.828  1.00  0.00     0.032 A 
HETATM    2  C8  UNL     1      25.033   2.798  53.356  1.00  0.00     0.019 A 
HETATM    3  C9  UNL     1      24.143   3.445  52.531  1.00  0.00     0.030 A 
HETATM    4  C10 UNL     1      24.315   3.639  51.180  1.00  0.00     0.030 A 
HETATM    5  C15 UNL     1      25.500   3.101  50.730  1.00  0.00     0.030 A 
HETATM    6  C16 UNL     1      26.434   2.446  51.477  1.00  0.00     0.019 A 
ENDROOT
BRANCH   1   7
HETATM    7  C6  UNL     1      27.207   1.581  53.623  1.00  0.00     0.253 C 
HETATM    8  N1  UNL     1      27.418   0.206  53.864  1.00  0.00    -0.349 N 
HETATM    9  C5  UNL     1      28.560  -0.025  54.743  1.00  0.00     0.153 C 
HETATM   10  O1  UNL     1      27.878   2.572  54.071  1.00  0.00    -0.267 OA
BRANCH   8  11
HETATM   11  C4  UNL     1      26.671  -0.933  53.366  1.00  0.00     0.152 C 
BRANCH  11  12
HETATM   12  C3  UNL     1      25.215  -0.810  53.501  1.00  0.00    -0.012 C 
BRANCH  12  13
HETATM   13  C2  UNL     1      23.928  -0.619  53.392  1.00  0.00    -0.033 C 
HETATM   14  C1  UNL     1      22.612  -0.790  54.115  1.00  0.00     0.036 C 
ENDBRANCH  12  13
ENDBRANCH  11  12
ENDBRANCH   8  11
ENDBRANCH   1   7
BRANCH   4  15
HETATM   15  N2  UNL     1      23.360   4.358  50.367  1.00  0.00    -0.379 N 
BRANCH  15  16
HETATM   16  C11 UNL     1      23.770   5.713  50.078  1.00  0.00     0.138 C 
BRANCH  16  17
HETATM   17  C12 UNL     1      24.341   5.819  48.697  1.00  0.00     0.134 C 
HETATM   18 CL1  UNL     1      26.092   5.997  48.626  1.00  0.00    -0.129 Cl
ENDBRANCH  16  17
ENDBRANCH  15  16
BRANCH  15  19
HETATM   19  C13 UNL     1      22.170   3.669  49.996  1.00  0.00     0.138 C 
BRANCH  19  20
HETATM   20  C14 UNL     1      22.336   2.304  49.418  1.00  0.00     0.134 C 
HETATM   21 CL2  UNL     1      22.003   0.993  50.525  1.00  0.00    -0.129 Cl
ENDBRANCH  19  20
ENDBRANCH  15  19
ENDBRANCH   4  15
TORSDOF 9
ENDMDL
MODEL 7
REMARK VINA RESULT:      -5.4      5.224      7.700
REMARK  9 active torsions:
REMARK  status: ('A' for Active; 'I' for Inactive)
REMARK    1  A    between atoms: C2_2  and  C3_3 
REMARK    2  A    between atoms: C3_3  and  C4_4 
REMARK    3  A    between atoms: C4_4  and  N1_5 
REMARK       I    between atoms: N1_5  and  C6_7 
REMARK    4  A    between atoms: C6_7  and  C7_9 
REMARK    5  A    between atoms: C10_12  and  N2_13 
REMARK    6  A    between atoms: N2_13  and  C11_14 
REMARK    7  A    between atoms: N2_13  and  C13_17 
REMARK    8  A    between atoms: C11_14  and  C12_15 
REMARK    9  A    between atoms: C13_17  and  C14_18 
ROOT
HETATM    1  C7  UNL     1      30.510   7.351  48.214  1.00  0.00     0.032 A 
HETATM    2  C8  UNL     1      30.984   7.362  46.911  1.00  0.00     0.019 A 
HETATM    3  C9  UNL     1      31.812   6.352  46.480  1.00  0.00     0.030 A 
HETATM    4  C10 UNL     1      32.233   5.292  47.249  1.00  0.00     0.030 A 
HETATM    5  C15 UNL     1      31.723   5.350  48.527  1.00  0.00     0.030 A 
HETATM    6  C16 UNL     1      30.899   6.311  49.033  1.00  0.00     0.019 A 
ENDROOT
BRANCH   1   7
HETATM    7  C6  UNL     1      29.628   8.375  48.759  1.00  0.00     0.253 C 
HETATM    8  N1  UNL     1      28.232   8.561  48.657  1.00  0.00    -0.349 N 
HETATM    9  C5  UNL     1      27.786   9.750  49.379  1.00  0.00     0.153 C 
HETATM   10  O1  UNL     1      30.477   9.098  49.382  1.00  0.00    -0.267 OA
BRANCH   8  11
HETATM   11  C4  UNL     1      27.251   7.753  47.958  1.00  0.00     0.152 C 
BRANCH  11  12
HETATM   12  C3  UNL     1      27.211   6.349  48.381  1.00  0.00    -0.012 C 
BRANCH  12  13
HETATM   13  C2  UNL     1      27.405   5.093  48.681  1.00  0.00    -0.033 C 
HETATM   14  C1  UNL     1      26.772   3.895  49.351  1.00  0.00     0.036 C 
ENDBRANCH  12  13
ENDBRANCH  11  12
ENDBRANCH   8  11
ENDBRANCH   1   7
BRANCH   4  15
HETATM   15  N2  UNL     1      33.133   4.276  46.752  1.00  0.00    -0.379 N 
BRANCH  15  16
HETATM   16  C11 UNL     1      34.515   4.698  46.748  1.00  0.00     0.138 C 
BRANCH  16  17
HETATM   17  C12 UNL     1      35.042   4.832  48.144  1.00  0.00     0.134 C 
HETATM   18 CL1  UNL     1      35.432   6.475  48.640  1.00  0.00    -0.129 Cl
ENDBRANCH  16  17
ENDBRANCH  15  16
BRANCH  15  19
HETATM   19  C13 UNL     1      32.556   3.048  46.320  1.00  0.00     0.138 C 
BRANCH  19  20
HETATM   20  C14 UNL     1      32.810   1.850  47.173  1.00  0.00     0.134 C 
HETATM   21 CL2  UNL     1      31.999   0.393  46.652  1.00  0.00    -0.129 Cl
ENDBRANCH  19  20
ENDBRANCH  15  19
ENDBRANCH   4  15
TORSDOF 9
ENDMDL
MODEL 8
REMARK VINA RESULT:      -5.4      3.760      6.870
REMARK  9 active torsions:
REMARK  status: ('A' for Active; 'I' for Inactive)
REMARK    1  A    between atoms: C2_2  and  C3_3 
REMARK    2  A    between atoms: C3_3  and  C4_4 
REMARK    3  A    between atoms: C4_4  and  N1_5 
REMARK       I    between atoms: N1_5  and  C6_7 
REMARK    4  A    between atoms: C6_7  and  C7_9 
REMARK    5  A    between atoms: C10_12  and  N2_13 
REMARK    6  A    between atoms: N2_13  and  C11_14 
REMARK    7  A    between atoms: N2_13  and  C13_17 
REMARK    8  A    between atoms: C11_14  and  C12_15 
REMARK    9  A    between atoms: C13_17  and  C14_18 
ROOT
HETATM    1  C7  UNL     1      25.310   4.044  49.386  1.00  0.00     0.032 A 
HETATM    2  C8  UNL     1      26.640   3.659  49.303  1.00  0.00     0.019 A 
HETATM    3  C9  UNL     1      27.588   4.572  48.903  1.00  0.00     0.030 A 
HETATM    4  C10 UNL     1      27.333   5.880  48.563  1.00  0.00     0.030 A 
HETATM    5  C15 UNL     1      25.995   6.187  48.670  1.00  0.00     0.030 A 
HETATM    6  C16 UNL     1      24.993   5.346  49.057  1.00  0.00     0.019 A 
ENDROOT
BRANCH   1   7
HETATM    7  C6  UNL     1      24.238   3.150  49.802  1.00  0.00     0.253 C 
HETATM    8  N1  UNL     1      24.038   2.412  50.989  1.00  0.00    -0.349 N 
HETATM    9  C5  UNL     1      22.799   1.640  50.950  1.00  0.00     0.153 C 
HETATM   10  O1  UNL     1      23.486   3.202  48.770  1.00  0.00    -0.267 OA
BRANCH   8  11
HETATM   11  C4  UNL     1      24.876   2.339  52.171  1.00  0.00     0.152 C 
BRANCH  11  12
HETATM   12  C3  UNL     1      25.793   1.194  52.194  1.00  0.00    -0.012 C 
BRANCH  12  13
HETATM   13  C2  UNL     1      26.499   0.112  52.008  1.00  0.00    -0.033 C 
HETATM   14  C1  UNL     1      27.144  -1.053  52.723  1.00  0.00     0.036 C 
ENDBRANCH  12  13
ENDBRANCH  11  12
ENDBRANCH   8  11
ENDBRANCH   1   7
BRANCH   4  15
HETATM   15  N2  UNL     1      28.367   6.786  48.116  1.00  0.00    -0.379 N 
BRANCH  15  16
HETATM   16  C11 UNL     1      27.911   8.152  48.003  1.00  0.00     0.138 C 
BRANCH  16  17
HETATM   17  C12 UNL     1      28.385   8.976  49.161  1.00  0.00     0.134 C 
HETATM   18 CL1  UNL     1      27.203   9.206  50.446  1.00  0.00    -0.129 Cl
ENDBRANCH  16  17
ENDBRANCH  15  16
BRANCH  15  19
HETATM   19  C13 UNL     1      29.645   6.227  47.830  1.00  0.00     0.138 C 
BRANCH  19  20
HETATM   20  C14 UNL     1      30.583   7.068  47.032  1.00  0.00     0.134 C 
HETATM   21 CL2  UNL     1      31.719   8.000  47.978  1.00  0.00    -0.129 Cl
ENDBRANCH  19  20
ENDBRANCH  15  19
ENDBRANCH   4  15
TORSDOF 9
ENDMDL
MODEL 9
REMARK VINA RESULT:      -5.3      3.984      7.098
REMARK  9 active torsions:
REMARK  status: ('A' for Active; 'I' for Inactive)
REMARK    1  A    between atoms: C2_2  and  C3_3 
REMARK    2  A    between atoms: C3_3  and  C4_4 
REMARK    3  A    between atoms: C4_4  and  N1_5 
REMARK       I    between atoms: N1_5  and  C6_7 
REMARK    4  A    between atoms: C6_7  and  C7_9 
REMARK    5  A    between atoms: C10_12  and  N2_13 
REMARK    6  A    between atoms: N2_13  and  C11_14 
REMARK    7  A    between atoms: N2_13  and  C13_17 
REMARK    8  A    between atoms: C11_14  and  C12_15 
REMARK    9  A    between atoms: C13_17  and  C14_18 
ROOT
HETATM    1  C7  UNL     1      24.660   2.214  51.792  1.00  0.00     0.032 A 
HETATM    2  C8  UNL     1      24.014   2.274  50.567  1.00  0.00     0.019 A 
HETATM    3  C9  UNL     1      22.999   3.182  50.377  1.00  0.00     0.030 A 
HETATM    4  C10 UNL     1      22.545   4.071  51.324  1.00  0.00     0.030 A 
HETATM    5  C15 UNL     1      23.233   3.952  52.511  1.00  0.00     0.030 A 
HETATM    6  C16 UNL     1      24.248   3.082  52.782  1.00  0.00     0.019 A 
ENDROOT
BRANCH   1   7
HETATM    7  C6  UNL     1      25.746   1.287  52.086  1.00  0.00     0.253 C 
HETATM    8  N1  UNL     1      25.836   0.202  52.985  1.00  0.00    -0.349 N 
HETATM    9  C5  UNL     1      27.145  -0.442  52.934  1.00  0.00     0.153 C 
HETATM   10  O1  UNL     1      26.641   1.725  51.286  1.00  0.00    -0.267 OA
BRANCH   8  11
HETATM   11  C4  UNL     1      24.834  -0.312  53.899  1.00  0.00     0.152 C 
BRANCH  11  12
HETATM   12  C3  UNL     1      23.511  -0.510  53.299  1.00  0.00    -0.012 C 
BRANCH  12  13
HETATM   13  C2  UNL     1      22.272  -0.487  52.887  1.00  0.00    -0.033 C 
HETATM   14  C1  UNL     1      21.341   0.146  51.878  1.00  0.00     0.036 C 
ENDBRANCH  12  13
ENDBRANCH  11  12
ENDBRANCH   8  11
ENDBRANCH   1   7
BRANCH   4  15
HETATM   15  N2  UNL     1      21.450   4.981  51.078  1.00  0.00    -0.379 N 
BRANCH  15  16
HETATM   16  C11 UNL     1      21.812   6.366  51.271  1.00  0.00     0.138 C 
BRANCH  16  17
HETATM   17  C12 UNL     1      22.832   6.802  50.263  1.00  0.00     0.134 C 
HETATM   18 CL1  UNL     1      24.439   7.112  50.915  1.00  0.00    -0.129 Cl
ENDBRANCH  16  17
ENDBRANCH  15  16
BRANCH  15  19
HETATM   19  C13 UNL     1      20.195   4.411  50.719  1.00  0.00     0.138 C 
BRANCH  19  20
HETATM   20  C14 UNL     1      19.551   3.517  51.725  1.00  0.00     0.134 C 
HETATM   21 CL2  UNL     1      18.482   2.308  51.053  1.00  0.00    -0.129 Cl
ENDBRANCH  19  20
ENDBRANCH  15  19
ENDBRANCH   4  15
TORSDOF 9
ENDMDL
