MODEL 1
REMARK VINA RESULT:      -7.2      0.000      0.000
REMARK  9 active torsions:
REMARK  status: ('A' for Active; 'I' for Inactive)
REMARK    1  A    between atoms: C3_4  and  C4_5 
REMARK    2  A    between atoms: C4_5  and  N1_6 
REMARK    3  A    between atoms: N1_6  and  P1_7 
REMARK    4  A    between atoms: C8_13  and  C9_14 
REMARK    5  A    between atoms: C9_14  and  C10_15 
REMARK    6  A    between atoms: C10_15  and  C11_17 
REMARK       I    between atoms: C11_17  and  N4_19 
REMARK    7  A    between atoms: N4_19  and  C12_20 
REMARK    8  A    between atoms: C12_20  and  C13_21 
REMARK    9  A    between atoms: C13_21  and  N5_22 
ROOT
HETATM    1  C9  UNL     1      21.008   0.192  53.145  1.00  0.00     0.039 C 
ENDROOT
BRANCH   1   2
HETATM    2  C8  UNL     1      20.960   1.079  51.959  1.00  0.00     0.122 A 
HETATM    3  P1  UNL     1      21.729   2.651  52.335  1.00  0.00     0.074 P 
HETATM    4  N2  UNL     1      20.585   3.917  52.035  1.00  0.00    -0.240 NA
HETATM    5  H7  UNL     1      22.119   2.618  53.708  1.00  0.00     0.101 HD
HETATM    6  C5  UNL     1      19.419   3.670  51.642  1.00  0.00     0.233 A 
HETATM    7  N3  UNL     1      18.906   2.399  51.404  1.00  0.00    -0.250 NA
HETATM    8  C6  UNL     1      19.556   1.298  51.548  1.00  0.00     0.025 A 
HETATM    9  C7  UNL     1      18.869   0.017  51.256  1.00  0.00     0.066 C 
BRANCH   3  10
HETATM   10  N1  UNL     1      23.060   2.886  51.536  1.00  0.00    -0.283 NA
BRANCH  10  11
HETATM   11  C4  UNL     1      23.471   2.253  50.352  1.00  0.00     0.177 C 
BRANCH  11  12
HETATM   12  C3  UNL     1      23.213   2.976  49.101  1.00  0.00     0.014 C 
HETATM   13  C2  UNL     1      22.347   2.617  48.137  1.00  0.00     0.005 C 
HETATM   14  C1  UNL     1      21.928   3.184  46.811  1.00  0.00     0.061 C 
HETATM   15 CL1  UNL     1      21.477   1.112  48.491  1.00  0.00    -0.090 Cl
ENDBRANCH  11  12
ENDBRANCH  10  11
ENDBRANCH   3  10
ENDBRANCH   1   2
BRANCH   1  16
HETATM   16  C10 UNL     1      21.148  -0.836  54.001  1.00  0.00     0.181 C 
HETATM   17  F1  UNL     1      20.573  -1.874  54.706  1.00  0.00    -0.201 F 
BRANCH  16  18
HETATM   18  C11 UNL     1      22.580  -0.886  54.345  1.00  0.00     0.279 C 
HETATM   19  O1  UNL     1      22.812  -1.476  55.452  1.00  0.00    -0.265 OA
HETATM   20  N4  UNL     1      23.767  -0.418  53.706  1.00  0.00    -0.353 N 
HETATM   21  H14 UNL     1      23.454   0.053  52.811  1.00  0.00     0.162 HD
BRANCH  20  22
HETATM   22  C12 UNL     1      24.860  -0.786  54.559  1.00  0.00     0.153 C 
BRANCH  22  23
HETATM   23  C13 UNL     1      26.217  -0.720  53.933  1.00  0.00     0.292 C 
BRANCH  23  24
HETATM   24  N5  UNL     1      26.973   0.458  54.178  1.00  0.00     0.094 N 
HETATM   25  C14 UNL     1      28.178   0.195  54.888  1.00  0.00     0.298 C 
HETATM   26  C15 UNL     1      29.311   1.125  54.490  1.00  0.00     0.198 C 
HETATM   27  O2  UNL     1      28.789   2.400  54.317  1.00  0.00    -0.388 OA
HETATM   28  C16 UNL     1      28.008   2.415  53.159  1.00  0.00     0.198 C 
HETATM   29  C17 UNL     1      27.295   1.098  52.926  1.00  0.00     0.298 C 
ENDBRANCH  23  24
ENDBRANCH  22  23
ENDBRANCH  20  22
ENDBRANCH  16  18
ENDBRANCH   1  16
TORSDOF 9
ENDMDL
MODEL 2
REMARK VINA RESULT:      -7.0      6.873      9.327
REMARK  9 active torsions:
REMARK  status: ('A' for Active; 'I' for Inactive)
REMARK    1  A    between atoms: C3_4  and  C4_5 
REMARK    2  A    between atoms: C4_5  and  N1_6 
REMARK    3  A    between atoms: N1_6  and  P1_7 
REMARK    4  A    between atoms: C8_13  and  C9_14 
REMARK    5  A    between atoms: C9_14  and  C10_15 
REMARK    6  A    between atoms: C10_15  and  C11_17 
REMARK       I    between atoms: C11_17  and  N4_19 
REMARK    7  A    between atoms: N4_19  and  C12_20 
REMARK    8  A    between atoms: C12_20  and  C13_21 
REMARK    9  A    between atoms: C13_21  and  N5_22 
ROOT
HETATM    1  C9  UNL     1      28.096   6.287  48.228  1.00  0.00     0.039 C 
ENDROOT
BRANCH   1   2
HETATM    2  C8  UNL     1      29.396   6.874  47.828  1.00  0.00     0.122 A 
HETATM    3  P1  UNL     1      30.739   5.819  48.366  1.00  0.00     0.074 P 
HETATM    4  N2  UNL     1      31.808   6.745  49.367  1.00  0.00    -0.240 NA
HETATM    5  H7  UNL     1      30.164   4.730  49.089  1.00  0.00     0.101 HD
HETATM    6  C5  UNL     1      31.579   7.950  49.635  1.00  0.00     0.233 A 
HETATM    7  N3  UNL     1      30.482   8.677  49.185  1.00  0.00    -0.250 NA
HETATM    8  C6  UNL     1      29.549   8.218  48.427  1.00  0.00     0.025 A 
HETATM    9  C7  UNL     1      28.440   9.118  48.032  1.00  0.00     0.066 C 
BRANCH   3  10
HETATM   10  N1  UNL     1      31.510   5.156  47.171  1.00  0.00    -0.283 NA
BRANCH  10  11
HETATM   11  C4  UNL     1      32.423   4.090  47.227  1.00  0.00     0.177 C 
BRANCH  11  12
HETATM   12  C3  UNL     1      32.002   2.836  46.590  1.00  0.00     0.014 C 
HETATM   13  C2  UNL     1      32.280   1.592  47.020  1.00  0.00     0.005 C 
HETATM   14  C1  UNL     1      31.965   0.202  46.547  1.00  0.00     0.061 C 
HETATM   15 CL1  UNL     1      33.254   1.556  48.503  1.00  0.00    -0.090 Cl
ENDBRANCH  11  12
ENDBRANCH  10  11
ENDBRANCH   3  10
ENDBRANCH   1   2
BRANCH   1  16
HETATM   16  C10 UNL     1      26.801   6.047  48.499  1.00  0.00     0.181 C 
HETATM   17  F1  UNL     1      25.477   6.419  48.368  1.00  0.00    -0.201 F 
BRANCH  16  18
HETATM   18  C11 UNL     1      26.774   4.811  49.301  1.00  0.00     0.279 C 
HETATM   19  O1  UNL     1      27.576   3.916  48.874  1.00  0.00    -0.265 OA
HETATM   20  N4  UNL     1      26.044   4.398  50.456  1.00  0.00    -0.353 N 
HETATM   21  H14 UNL     1      25.415   5.210  50.713  1.00  0.00     0.162 HD
BRANCH  20  22
HETATM   22  C12 UNL     1      26.480   3.064  50.755  1.00  0.00     0.153 C 
BRANCH  22  23
HETATM   23  C13 UNL     1      25.471   2.194  51.436  1.00  0.00     0.292 C 
BRANCH  23  24
HETATM   24  N5  UNL     1      25.934   1.426  52.537  1.00  0.00     0.094 N 
HETATM   25  C14 UNL     1      24.999   0.431  52.939  1.00  0.00     0.298 C 
HETATM   26  C15 UNL     1      25.669  -0.828  53.463  1.00  0.00     0.198 C 
HETATM   27  O2  UNL     1      26.763  -0.453  54.231  1.00  0.00    -0.388 OA
HETATM   28  C16 UNL     1      27.756   0.049  53.388  1.00  0.00     0.198 C 
HETATM   29  C17 UNL     1      27.182   0.789  52.196  1.00  0.00     0.298 C 
ENDBRANCH  23  24
ENDBRANCH  22  23
ENDBRANCH  20  22
ENDBRANCH  16  18
ENDBRANCH   1  16
TORSDOF 9
ENDMDL
MODEL 3
REMARK VINA RESULT:      -7.0      2.794      3.963
REMARK  9 active torsions:
REMARK  status: ('A' for Active; 'I' for Inactive)
REMARK    1  A    between atoms: C3_4  and  C4_5 
REMARK    2  A    between atoms: C4_5  and  N1_6 
REMARK    3  A    between atoms: N1_6  and  P1_7 
REMARK    4  A    between atoms: C8_13  and  C9_14 
REMARK    5  A    between atoms: C9_14  and  C10_15 
REMARK    6  A    between atoms: C10_15  and  C11_17 
REMARK       I    between atoms: C11_17  and  N4_19 
REMARK    7  A    between atoms: N4_19  and  C12_20 
REMARK    8  A    between atoms: C12_20  and  C13_21 
REMARK    9  A    between atoms: C13_21  and  N5_22 
ROOT
HETATM    1  C9  UNL     1      23.166   1.968  52.873  1.00  0.00     0.039 C 
ENDROOT
BRANCH   1   2
HETATM    2  C8  UNL     1      22.557   0.700  52.405  1.00  0.00     0.122 A 
HETATM    3  P1  UNL     1      20.854   0.975  51.929  1.00  0.00     0.074 P 
HETATM    4  N2  UNL     1      19.839  -0.087  52.848  1.00  0.00    -0.240 NA
HETATM    5  H7  UNL     1      20.551   2.345  52.197  1.00  0.00     0.101 HD
HETATM    6  C5  UNL     1      20.314  -0.870  53.706  1.00  0.00     0.233 A 
HETATM    7  N3  UNL     1      21.664  -0.988  54.024  1.00  0.00    -0.250 NA
HETATM    8  C6  UNL     1      22.615  -0.314  53.480  1.00  0.00     0.025 A 
HETATM    9  C7  UNL     1      24.008  -0.553  53.929  1.00  0.00     0.066 C 
BRANCH   3  10
HETATM   10  N1  UNL     1      20.615   0.797  50.387  1.00  0.00    -0.283 NA
BRANCH  10  11
HETATM   11  C4  UNL     1      21.570   0.864  49.360  1.00  0.00     0.177 C 
BRANCH  11  12
HETATM   12  C3  UNL     1      21.325   1.853  48.303  1.00  0.00     0.014 C 
HETATM   13  C2  UNL     1      22.109   2.902  47.997  1.00  0.00     0.005 C 
HETATM   14  C1  UNL     1      22.062   4.013  46.988  1.00  0.00     0.061 C 
HETATM   15 CL1  UNL     1      23.554   3.030  49.019  1.00  0.00    -0.090 Cl
ENDBRANCH  11  12
ENDBRANCH  10  11
ENDBRANCH   3  10
ENDBRANCH   1   2
BRANCH   1  16
HETATM   16  C10 UNL     1      23.971   3.018  53.113  1.00  0.00     0.181 C 
HETATM   17  F1  UNL     1      24.107   4.358  53.417  1.00  0.00    -0.201 F 
BRANCH  16  18
HETATM   18  C11 UNL     1      25.349   2.506  53.015  1.00  0.00     0.279 C 
HETATM   19  O1  UNL     1      25.613   1.983  51.882  1.00  0.00    -0.265 OA
HETATM   20  N4  UNL     1      26.456   2.468  53.915  1.00  0.00    -0.353 N 
HETATM   21  H14 UNL     1      26.122   2.919  54.813  1.00  0.00     0.162 HD
BRANCH  20  22
HETATM   22  C12 UNL     1      27.532   1.833  53.210  1.00  0.00     0.153 C 
BRANCH  22  23
HETATM   23  C13 UNL     1      28.526   1.113  54.065  1.00  0.00     0.292 C 
BRANCH  23  24
HETATM   24  N5  UNL     1      28.483  -0.307  54.032  1.00  0.00     0.094 N 
HETATM   25  C14 UNL     1      27.360  -0.801  53.311  1.00  0.00     0.298 C 
HETATM   26  C15 UNL     1      27.655  -2.100  52.580  1.00  0.00     0.198 C 
HETATM   27  O2  UNL     1      28.445  -2.893  53.402  1.00  0.00    -0.388 OA
HETATM   28  C16 UNL     1      29.721  -2.332  53.480  1.00  0.00     0.198 C 
HETATM   29  C17 UNL     1      29.690  -0.817  53.431  1.00  0.00     0.298 C 
ENDBRANCH  23  24
ENDBRANCH  22  23
ENDBRANCH  20  22
ENDBRANCH  16  18
ENDBRANCH   1  16
TORSDOF 9
ENDMDL
MODEL 4
REMARK VINA RESULT:      -6.9      4.646      7.277
REMARK  9 active torsions:
REMARK  status: ('A' for Active; 'I' for Inactive)
REMARK    1  A    between atoms: C3_4  and  C4_5 
REMARK    2  A    between atoms: C4_5  and  N1_6 
REMARK    3  A    between atoms: N1_6  and  P1_7 
REMARK    4  A    between atoms: C8_13  and  C9_14 
REMARK    5  A    between atoms: C9_14  and  C10_15 
REMARK    6  A    between atoms: C10_15  and  C11_17 
REMARK       I    between atoms: C11_17  and  N4_19 
REMARK    7  A    between atoms: N4_19  and  C12_20 
REMARK    8  A    between atoms: C12_20  and  C13_21 
REMARK    9  A    between atoms: C13_21  and  N5_22 
ROOT
HETATM    1  C9  UNL     1      24.372   3.490  51.915  1.00  0.00     0.039 C 
ENDROOT
BRANCH   1   2
HETATM    2  C8  UNL     1      25.243   2.290  51.919  1.00  0.00     0.122 A 
HETATM    3  P1  UNL     1      25.368   1.626  53.577  1.00  0.00     0.074 P 
HETATM    4  N2  UNL     1      27.041   1.562  54.027  1.00  0.00    -0.240 NA
HETATM    5  H7  UNL     1      24.631   2.492  54.441  1.00  0.00     0.101 HD
HETATM    6  C5  UNL     1      27.944   1.963  53.254  1.00  0.00     0.233 A 
HETATM    7  N3  UNL     1      27.737   2.493  51.984  1.00  0.00    -0.250 NA
HETATM    8  C6  UNL     1      26.590   2.642  51.422  1.00  0.00     0.025 A 
HETATM    9  C7  UNL     1      26.531   3.225  50.060  1.00  0.00     0.066 C 
BRANCH   3  10
HETATM   10  N1  UNL     1      24.685   0.221  53.725  1.00  0.00    -0.283 NA
BRANCH  10  11
HETATM   11  C4  UNL     1      23.478  -0.209  53.150  1.00  0.00     0.177 C 
BRANCH  11  12
HETATM   12  C3  UNL     1      22.286   0.592  53.457  1.00  0.00     0.014 C 
HETATM   13  C2  UNL     1      21.476   1.187  52.563  1.00  0.00     0.005 C 
HETATM   14  C1  UNL     1      20.236   2.030  52.641  1.00  0.00     0.061 C 
HETATM   15 CL1  UNL     1      21.968   0.930  50.878  1.00  0.00    -0.090 Cl
ENDBRANCH  11  12
ENDBRANCH  10  11
ENDBRANCH   3  10
ENDBRANCH   1   2
BRANCH   1  16
HETATM   16  C10 UNL     1      23.360   4.367  52.027  1.00  0.00     0.181 C 
HETATM   17  F1  UNL     1      22.101   4.664  52.509  1.00  0.00    -0.201 F 
BRANCH  16  18
HETATM   18  C11 UNL     1      23.790   5.579  51.308  1.00  0.00     0.279 C 
HETATM   19  O1  UNL     1      23.643   5.494  50.044  1.00  0.00    -0.265 OA
HETATM   20  N4  UNL     1      24.337   6.832  51.720  1.00  0.00    -0.353 N 
HETATM   21  H14 UNL     1      24.417   6.785  52.775  1.00  0.00     0.162 HD
BRANCH  20  22
HETATM   22  C12 UNL     1      24.540   7.599  50.525  1.00  0.00     0.153 C 
BRANCH  22  23
HETATM   23  C13 UNL     1      25.712   8.528  50.548  1.00  0.00     0.292 C 
BRANCH  23  24
HETATM   24  N5  UNL     1      26.569   8.499  49.415  1.00  0.00     0.094 N 
HETATM   25  C14 UNL     1      27.788   9.198  49.636  1.00  0.00     0.298 C 
HETATM   26  C15 UNL     1      28.965   8.574  48.904  1.00  0.00     0.198 C 
HETATM   27  O2  UNL     1      28.532   8.170  47.648  1.00  0.00    -0.388 OA
HETATM   28  C16 UNL     1      27.690   7.066  47.794  1.00  0.00     0.198 C 
HETATM   29  C17 UNL     1      26.866   7.133  49.065  1.00  0.00     0.298 C 
ENDBRANCH  23  24
ENDBRANCH  22  23
ENDBRANCH  20  22
ENDBRANCH  16  18
ENDBRANCH   1  16
TORSDOF 9
ENDMDL
MODEL 5
REMARK VINA RESULT:      -6.8      5.131      7.767
REMARK  9 active torsions:
REMARK  status: ('A' for Active; 'I' for Inactive)
REMARK    1  A    between atoms: C3_4  and  C4_5 
REMARK    2  A    between atoms: C4_5  and  N1_6 
REMARK    3  A    between atoms: N1_6  and  P1_7 
REMARK    4  A    between atoms: C8_13  and  C9_14 
REMARK    5  A    between atoms: C9_14  and  C10_15 
REMARK    6  A    between atoms: C10_15  and  C11_17 
REMARK       I    between atoms: C11_17  and  N4_19 
REMARK    7  A    between atoms: N4_19  and  C12_20 
REMARK    8  A    between atoms: C12_20  and  C13_21 
REMARK    9  A    between atoms: C13_21  and  N5_22 
ROOT
HETATM    1  C9  UNL     1      23.971   3.436  51.939  1.00  0.00     0.039 C 
ENDROOT
BRANCH   1   2
HETATM    2  C8  UNL     1      24.785   2.223  51.687  1.00  0.00     0.122 A 
HETATM    3  P1  UNL     1      24.909   1.244  53.181  1.00  0.00     0.074 P 
HETATM    4  N2  UNL     1      26.584   1.024  53.566  1.00  0.00    -0.240 NA
HETATM    5  H7  UNL     1      24.227   1.954  54.215  1.00  0.00     0.101 HD
HETATM    6  C5  UNL     1      27.491   1.530  52.863  1.00  0.00     0.233 A 
HETATM    7  N3  UNL     1      27.287   2.305  51.725  1.00  0.00    -0.250 NA
HETATM    8  C6  UNL     1      26.138   2.609  51.232  1.00  0.00     0.025 A 
HETATM    9  C7  UNL     1      26.083   3.449  50.012  1.00  0.00     0.066 C 
BRANCH   3  10
HETATM   10  N1  UNL     1      24.164  -0.134  53.070  1.00  0.00    -0.283 NA
BRANCH  10  11
HETATM   11  C4  UNL     1      23.307  -0.722  54.014  1.00  0.00     0.177 C 
BRANCH  11  12
HETATM   12  C3  UNL     1      22.039  -1.257  53.503  1.00  0.00     0.014 C 
HETATM   13  C2  UNL     1      20.807  -0.806  53.800  1.00  0.00     0.005 C 
HETATM   14  C1  UNL     1      19.408  -1.184  53.408  1.00  0.00     0.061 C 
HETATM   15 CL1  UNL     1      20.807   0.566  54.925  1.00  0.00    -0.090 Cl
ENDBRANCH  11  12
ENDBRANCH  10  11
ENDBRANCH   3  10
ENDBRANCH   1   2
BRANCH   1  16
HETATM   16  C10 UNL     1      22.984   4.322  52.157  1.00  0.00     0.181 C 
HETATM   17  F1  UNL     1      21.744   4.602  52.696  1.00  0.00    -0.201 F 
BRANCH  16  18
HETATM   18  C11 UNL     1      23.429   5.586  51.545  1.00  0.00     0.279 C 
HETATM   19  O1  UNL     1      22.929   5.791  50.390  1.00  0.00    -0.265 OA
HETATM   20  N4  UNL     1      24.300   6.635  51.967  1.00  0.00    -0.353 N 
HETATM   21  H14 UNL     1      24.655   6.357  52.925  1.00  0.00     0.162 HD
BRANCH  20  22
HETATM   22  C12 UNL     1      24.316   7.601  50.906  1.00  0.00     0.153 C 
BRANCH  22  23
HETATM   23  C13 UNL     1      25.632   7.781  50.218  1.00  0.00     0.292 C 
BRANCH  23  24
HETATM   24  N5  UNL     1      26.041   9.119  49.968  1.00  0.00     0.094 N 
HETATM   25  C14 UNL     1      27.441   9.302  50.144  1.00  0.00     0.298 C 
HETATM   26  C15 UNL     1      28.024  10.333  49.192  1.00  0.00     0.198 C 
HETATM   27  O2  UNL     1      27.122  11.384  49.082  1.00  0.00    -0.388 OA
HETATM   28  C16 UNL     1      26.009  10.950  48.360  1.00  0.00     0.198 C 
HETATM   29  C17 UNL     1      25.683   9.493  48.622  1.00  0.00     0.298 C 
ENDBRANCH  23  24
ENDBRANCH  22  23
ENDBRANCH  20  22
ENDBRANCH  16  18
ENDBRANCH   1  16
TORSDOF 9
ENDMDL
MODEL 6
REMARK VINA RESULT:      -6.7      5.969      8.357
REMARK  9 active torsions:
REMARK  status: ('A' for Active; 'I' for Inactive)
REMARK    1  A    between atoms: C3_4  and  C4_5 
REMARK    2  A    between atoms: C4_5  and  N1_6 
REMARK    3  A    between atoms: N1_6  and  P1_7 
REMARK    4  A    between atoms: C8_13  and  C9_14 
REMARK    5  A    between atoms: C9_14  and  C10_15 
REMARK    6  A    between atoms: C10_15  and  C11_17 
REMARK       I    between atoms: C11_17  and  N4_19 
REMARK    7  A    between atoms: N4_19  and  C12_20 
REMARK    8  A    between atoms: C12_20  and  C13_21 
REMARK    9  A    between atoms: C13_21  and  N5_22 
ROOT
HETATM    1  C9  UNL     1      24.785   5.183  50.754  1.00  0.00     0.039 C 
ENDROOT
BRANCH   1   2
HETATM    2  C8  UNL     1      24.855   3.704  50.822  1.00  0.00     0.122 A 
HETATM    3  P1  UNL     1      24.253   3.131  52.407  1.00  0.00     0.074 P 
HETATM    4  N2  UNL     1      25.492   2.188  53.168  1.00  0.00    -0.240 NA
HETATM    5  H7  UNL     1      23.929   4.285  53.184  1.00  0.00     0.101 HD
HETATM    6  C5  UNL     1      26.609   2.012  52.625  1.00  0.00     0.233 A 
HETATM    7  N3  UNL     1      26.992   2.528  51.391  1.00  0.00    -0.250 NA
HETATM    8  C6  UNL     1      26.252   3.255  50.630  1.00  0.00     0.025 A 
HETATM    9  C7  UNL     1      26.804   3.734  49.340  1.00  0.00     0.066 C 
BRANCH   3  10
HETATM   10  N1  UNL     1      22.911   2.324  52.295  1.00  0.00    -0.283 NA
BRANCH  10  11
HETATM   11  C4  UNL     1      22.735   1.021  51.802  1.00  0.00     0.177 C 
BRANCH  11  12
HETATM   12  C3  UNL     1      21.779   0.172  52.525  1.00  0.00     0.014 C 
HETATM   13  C2  UNL     1      22.066  -0.668  53.535  1.00  0.00     0.005 C 
HETATM   14  C1  UNL     1      21.277  -1.608  54.401  1.00  0.00     0.061 C 
HETATM   15 CL1  UNL     1      23.786  -0.693  53.970  1.00  0.00    -0.090 Cl
ENDBRANCH  11  12
ENDBRANCH  10  11
ENDBRANCH   3  10
ENDBRANCH   1   2
BRANCH   1  16
HETATM   16  C10 UNL     1      24.421   6.475  50.815  1.00  0.00     0.181 C 
HETATM   17  F1  UNL     1      23.507   7.428  51.218  1.00  0.00    -0.201 F 
BRANCH  16  18
HETATM   18  C11 UNL     1      25.496   7.233  50.151  1.00  0.00     0.279 C 
HETATM   19  O1  UNL     1      25.501   7.096  48.883  1.00  0.00    -0.265 OA
HETATM   20  N4  UNL     1      26.536   8.090  50.621  1.00  0.00    -0.353 N 
HETATM   21  H14 UNL     1      26.438   8.124  51.674  1.00  0.00     0.162 HD
BRANCH  20  22
HETATM   22  C12 UNL     1      27.260   8.525  49.460  1.00  0.00     0.153 C 
BRANCH  22  23
HETATM   23  C13 UNL     1      28.298   9.574  49.704  1.00  0.00     0.292 C 
BRANCH  23  24
HETATM   24  N5  UNL     1      29.618   9.273  49.275  1.00  0.00     0.094 N 
HETATM   25  C14 UNL     1      29.699   8.027  48.594  1.00  0.00     0.298 C 
HETATM   26  C15 UNL     1      30.746   8.025  47.493  1.00  0.00     0.198 C 
HETATM   27  O2  UNL     1      31.858   8.721  47.947  1.00  0.00    -0.388 OA
HETATM   28  C16 UNL     1      31.543  10.080  48.017  1.00  0.00     0.198 C 
HETATM   29  C17 UNL     1      30.097  10.318  48.404  1.00  0.00     0.298 C 
ENDBRANCH  23  24
ENDBRANCH  22  23
ENDBRANCH  20  22
ENDBRANCH  16  18
ENDBRANCH   1  16
TORSDOF 9
ENDMDL
MODEL 7
REMARK VINA RESULT:      -6.7      7.314      9.608
REMARK  9 active torsions:
REMARK  status: ('A' for Active; 'I' for Inactive)
REMARK    1  A    between atoms: C3_4  and  C4_5 
REMARK    2  A    between atoms: C4_5  and  N1_6 
REMARK    3  A    between atoms: N1_6  and  P1_7 
REMARK    4  A    between atoms: C8_13  and  C9_14 
REMARK    5  A    between atoms: C9_14  and  C10_15 
REMARK    6  A    between atoms: C10_15  and  C11_17 
REMARK       I    between atoms: C11_17  and  N4_19 
REMARK    7  A    between atoms: N4_19  and  C12_20 
REMARK    8  A    between atoms: C12_20  and  C13_21 
REMARK    9  A    between atoms: C13_21  and  N5_22 
ROOT
HETATM    1  C9  UNL     1      28.362   6.019  48.168  1.00  0.00     0.039 C 
ENDROOT
BRANCH   1   2
HETATM    2  C8  UNL     1      29.714   6.355  47.662  1.00  0.00     0.122 A 
HETATM    3  P1  UNL     1      30.941   6.034  48.926  1.00  0.00     0.074 P 
HETATM    4  N2  UNL     1      31.826   7.494  49.227  1.00  0.00    -0.240 NA
HETATM    5  H7  UNL     1      30.247   5.598  50.095  1.00  0.00     0.101 HD
HETATM    6  C5  UNL     1      31.559   8.560  48.623  1.00  0.00     0.233 A 
HETATM    7  N3  UNL     1      30.557   8.713  47.669  1.00  0.00    -0.250 NA
HETATM    8  C6  UNL     1      29.767   7.780  47.269  1.00  0.00     0.025 A 
HETATM    9  C7  UNL     1      28.744   8.099  46.244  1.00  0.00     0.066 C 
BRANCH   3  10
HETATM   10  N1  UNL     1      31.904   4.851  48.555  1.00  0.00    -0.283 NA
BRANCH  10  11
HETATM   11  C4  UNL     1      33.164   4.933  47.941  1.00  0.00     0.177 C 
BRANCH  11  12
HETATM   12  C3  UNL     1      33.269   4.379  46.586  1.00  0.00     0.014 C 
HETATM   13  C2  UNL     1      33.178   5.069  45.434  1.00  0.00     0.005 C 
HETATM   14  C1  UNL     1      33.252   4.725  43.975  1.00  0.00     0.061 C 
HETATM   15 CL1  UNL     1      32.904   6.806  45.668  1.00  0.00    -0.090 Cl
ENDBRANCH  11  12
ENDBRANCH  10  11
ENDBRANCH   3  10
ENDBRANCH   1   2
BRANCH   1  16
HETATM   16  C10 UNL     1      27.062   6.012  48.510  1.00  0.00     0.181 C 
HETATM   17  F1  UNL     1      25.823   6.620  48.459  1.00  0.00    -0.201 F 
BRANCH  16  18
HETATM   18  C11 UNL     1      26.855   4.786  49.300  1.00  0.00     0.279 C 
HETATM   19  O1  UNL     1      27.547   3.798  48.887  1.00  0.00    -0.265 OA
HETATM   20  N4  UNL     1      26.047   4.464  50.431  1.00  0.00    -0.353 N 
HETATM   21  H14 UNL     1      25.520   5.348  50.679  1.00  0.00     0.162 HD
BRANCH  20  22
HETATM   22  C12 UNL     1      26.300   3.084  50.731  1.00  0.00     0.153 C 
BRANCH  22  23
HETATM   23  C13 UNL     1      25.538   2.527  51.893  1.00  0.00     0.292 C 
BRANCH  23  24
HETATM   24  N5  UNL     1      26.300   2.161  53.035  1.00  0.00     0.094 N 
HETATM   25  C14 UNL     1      25.781   1.010  53.690  1.00  0.00     0.298 C 
HETATM   26  C15 UNL     1      26.866   0.149  54.315  1.00  0.00     0.198 C 
HETATM   27  O2  UNL     1      27.816   0.988  54.882  1.00  0.00    -0.388 OA
HETATM   28  C16 UNL     1      28.528   1.620  53.861  1.00  0.00     0.198 C 
HETATM   29  C17 UNL     1      27.666   1.907  52.648  1.00  0.00     0.298 C 
ENDBRANCH  23  24
ENDBRANCH  22  23
ENDBRANCH  20  22
ENDBRANCH  16  18
ENDBRANCH   1  16
TORSDOF 9
ENDMDL
MODEL 8
REMARK VINA RESULT:      -6.7      6.400      8.755
REMARK  9 active torsions:
REMARK  status: ('A' for Active; 'I' for Inactive)
REMARK    1  A    between atoms: C3_4  and  C4_5 
REMARK    2  A    between atoms: C4_5  and  N1_6 
REMARK    3  A    between atoms: N1_6  and  P1_7 
REMARK    4  A    between atoms: C8_13  and  C9_14 
REMARK    5  A    between atoms: C9_14  and  C10_15 
REMARK    6  A    between atoms: C10_15  and  C11_17 
REMARK       I    between atoms: C11_17  and  N4_19 
REMARK    7  A    between atoms: N4_19  and  C12_20 
REMARK    8  A    between atoms: C12_20  and  C13_21 
REMARK    9  A    between atoms: C13_21  and  N5_22 
ROOT
HETATM    1  C9  UNL     1      26.518   6.022  48.874  1.00  0.00     0.039 C 
ENDROOT
BRANCH   1   2
HETATM    2  C8  UNL     1      25.899   5.334  50.031  1.00  0.00     0.122 A 
HETATM    3  P1  UNL     1      25.939   3.561  49.787  1.00  0.00     0.074 P 
HETATM    4  N2  UNL     1      24.321   2.949  49.882  1.00  0.00    -0.240 NA
HETATM    5  H7  UNL     1      26.511   3.320  48.501  1.00  0.00     0.101 HD
HETATM    6  C5  UNL     1      23.340   3.709  50.069  1.00  0.00     0.233 A 
HETATM    7  N3  UNL     1      23.414   5.090  50.221  1.00  0.00    -0.250 NA
HETATM    8  C6  UNL     1      24.498   5.782  50.194  1.00  0.00     0.025 A 
HETATM    9  C7  UNL     1      24.414   7.252  50.368  1.00  0.00     0.066 C 
BRANCH   3  10
HETATM   10  N1  UNL     1      26.886   2.827  50.801  1.00  0.00    -0.283 NA
BRANCH  10  11
HETATM   11  C4  UNL     1      26.572   1.741  51.633  1.00  0.00     0.177 C 
BRANCH  11  12
HETATM   12  C3  UNL     1      27.461   1.516  52.780  1.00  0.00     0.014 C 
HETATM   13  C2  UNL     1      27.778   0.326  53.320  1.00  0.00     0.005 C 
HETATM   14  C1  UNL     1      28.641  -0.133  54.460  1.00  0.00     0.061 C 
HETATM   15 CL1  UNL     1      27.003  -1.049  52.512  1.00  0.00    -0.090 Cl
ENDBRANCH  11  12
ENDBRANCH  10  11
ENDBRANCH   3  10
ENDBRANCH   1   2
BRANCH   1  16
HETATM   16  C10 UNL     1      27.344   6.650  48.019  1.00  0.00     0.181 C 
HETATM   17  F1  UNL     1      27.512   7.534  46.971  1.00  0.00    -0.201 F 
BRANCH  16  18
HETATM   18  C11 UNL     1      28.704   6.192  48.355  1.00  0.00     0.279 C 
HETATM   19  O1  UNL     1      28.880   4.945  48.153  1.00  0.00    -0.265 OA
HETATM   20  N4  UNL     1      29.870   6.844  48.858  1.00  0.00    -0.353 N 
HETATM   21  H14 UNL     1      29.606   7.860  48.990  1.00  0.00     0.162 HD
BRANCH  20  22
HETATM   22  C12 UNL     1      30.883   5.834  48.968  1.00  0.00     0.153 C 
BRANCH  22  23
HETATM   23  C13 UNL     1      32.266   6.266  48.594  1.00  0.00     0.292 C 
BRANCH  23  24
HETATM   24  N5  UNL     1      32.997   5.393  47.744  1.00  0.00     0.094 N 
HETATM   25  C14 UNL     1      34.306   5.125  48.233  1.00  0.00     0.298 C 
HETATM   26  C15 UNL     1      34.782   3.721  47.903  1.00  0.00     0.198 C 
HETATM   27  O2  UNL     1      34.370   3.413  46.613  1.00  0.00    -0.388 OA
HETATM   28  C16 UNL     1      32.985   3.236  46.610  1.00  0.00     0.198 C 
HETATM   29  C17 UNL     1      32.285   4.148  47.598  1.00  0.00     0.298 C 
ENDBRANCH  23  24
ENDBRANCH  22  23
ENDBRANCH  20  22
ENDBRANCH  16  18
ENDBRANCH   1  16
TORSDOF 9
ENDMDL
MODEL 9
REMARK VINA RESULT:      -6.5      4.010      5.437
REMARK  9 active torsions:
REMARK  status: ('A' for Active; 'I' for Inactive)
REMARK    1  A    between atoms: C3_4  and  C4_5 
REMARK    2  A    between atoms: C4_5  and  N1_6 
REMARK    3  A    between atoms: N1_6  and  P1_7 
REMARK    4  A    between atoms: C8_13  and  C9_14 
REMARK    5  A    between atoms: C9_14  and  C10_15 
REMARK    6  A    between atoms: C10_15  and  C11_17 
REMARK       I    between atoms: C11_17  and  N4_19 
REMARK    7  A    between atoms: N4_19  and  C12_20 
REMARK    8  A    between atoms: C12_20  and  C13_21 
REMARK    9  A    between atoms: C13_21  and  N5_22 
ROOT
HETATM    1  C9  UNL     1      24.200   4.912  49.093  1.00  0.00     0.039 C 
ENDROOT
BRANCH   1   2
HETATM    2  C8  UNL     1      22.772   4.784  49.468  1.00  0.00     0.122 A 
HETATM    3  P1  UNL     1      22.439   5.724  50.955  1.00  0.00     0.074 P 
HETATM    4  N2  UNL     1      21.775   4.660  52.150  1.00  0.00    -0.240 NA
HETATM    5  H7  UNL     1      23.677   6.286  51.391  1.00  0.00     0.101 HD
HETATM    6  C5  UNL     1      21.614   3.436  51.924  1.00  0.00     0.233 A 
HETATM    7  N3  UNL     1      21.934   2.792  50.733  1.00  0.00    -0.250 NA
HETATM    8  C6  UNL     1      22.435   3.361  49.694  1.00  0.00     0.025 A 
HETATM    9  C7  UNL     1      22.725   2.537  48.496  1.00  0.00     0.066 C 
BRANCH   3  10
HETATM   10  N1  UNL     1      21.497   6.953  50.701  1.00  0.00    -0.283 NA
BRANCH  10  11
HETATM   11  C4  UNL     1      21.693   8.010  49.797  1.00  0.00     0.177 C 
BRANCH  11  12
HETATM   12  C3  UNL     1      23.074   8.478  49.628  1.00  0.00     0.014 C 
HETATM   13  C2  UNL     1      23.786   8.463  48.487  1.00  0.00     0.005 C 
HETATM   14  C1  UNL     1      25.172   8.878  48.087  1.00  0.00     0.061 C 
HETATM   15 CL1  UNL     1      22.895   7.796  47.105  1.00  0.00    -0.090 Cl
ENDBRANCH  11  12
ENDBRANCH  10  11
ENDBRANCH   3  10
ENDBRANCH   1   2
BRANCH   1  16
HETATM   16  C10 UNL     1      25.528   5.121  49.066  1.00  0.00     0.181 C 
HETATM   17  F1  UNL     1      26.597   5.881  48.634  1.00  0.00    -0.201 F 
BRANCH  16  18
HETATM   18  C11 UNL     1      26.125   4.047  49.879  1.00  0.00     0.279 C 
HETATM   19  O1  UNL     1      27.151   3.517  49.337  1.00  0.00    -0.265 OA
HETATM   20  N4  UNL     1      25.805   3.471  51.145  1.00  0.00    -0.353 N 
HETATM   21  H14 UNL     1      24.945   3.981  51.492  1.00  0.00     0.162 HD
BRANCH  20  22
HETATM   22  C12 UNL     1      26.786   2.453  51.387  1.00  0.00     0.153 C 
BRANCH  22  23
HETATM   23  C13 UNL     1      26.258   1.170  51.947  1.00  0.00     0.292 C 
BRANCH  23  24
HETATM   24  N5  UNL     1      26.988   0.598  53.024  1.00  0.00     0.094 N 
HETATM   25  C14 UNL     1      27.387  -0.742  52.761  1.00  0.00     0.298 C 
HETATM   26  C15 UNL     1      28.724  -1.093  53.391  1.00  0.00     0.198 C 
HETATM   27  O2  UNL     1      28.777  -0.513  54.652  1.00  0.00    -0.388 OA
HETATM   28  C16 UNL     1      28.901   0.871  54.508  1.00  0.00     0.198 C 
HETATM   29  C17 UNL     1      28.159   1.394  53.294  1.00  0.00     0.298 C 
ENDBRANCH  23  24
ENDBRANCH  22  23
ENDBRANCH  20  22
ENDBRANCH  16  18
ENDBRANCH   1  16
TORSDOF 9
ENDMDL
