MODEL 1
REMARK VINA RESULT:      -7.0      0.000      0.000
REMARK  3 active torsions:
REMARK  status: ('A' for Active; 'I' for Inactive)
REMARK    1  A    between atoms: C2_2  and  C3_3 
REMARK    2  A    between atoms: C12_16  and  C13_17 
REMARK    3  A    between atoms: C12_16  and  O1_19 
ROOT
HETATM    1  C3  UNL     1      24.415   3.782  50.165  1.00  0.00    -0.017 C 
HETATM    2  C4  UNL     1      23.492   4.403  50.938  1.00  0.00     0.102 C 
HETATM    3  N1  UNL     1      22.232   4.999  51.321  1.00  0.00    -0.288 NA
HETATM    4  C5  UNL     1      21.317   4.162  51.749  1.00  0.00     0.238 C 
HETATM    5  C6  UNL     1      20.844   2.773  52.081  1.00  0.00     0.067 C 
HETATM    6  C7  UNL     1      21.885   1.824  52.376  1.00  0.00    -0.003 C 
HETATM    7 BR1  UNL     1      20.892   0.152  52.246  1.00  0.00    -0.058 Br
HETATM    8  C8  UNL     1      22.990   1.209  52.681  1.00  0.00     0.172 A 
HETATM    9  C9  UNL     1      24.275   1.781  53.029  1.00  0.00     0.024 A 
HETATM   10  N2  UNL     1      23.432   2.795  53.005  1.00  0.00    -0.331 N 
HETATM   11  C10 UNL     1      23.773   4.121  53.280  1.00  0.00     0.212 C 
HETATM   12  N3  UNL     1      23.801   4.905  52.264  1.00  0.00    -0.232 NA
HETATM   13  C11 UNL     1      25.707   2.023  53.333  1.00  0.00     0.123 C 
HETATM   14  C12 UNL     1      26.555   1.710  52.078  1.00  0.00     0.168 C 
HETATM   15  O2  UNL     1      25.797   2.185  50.976  1.00  0.00    -0.350 OA
HETATM   16  C16 UNL     1      25.644   3.562  50.971  1.00  0.00     0.209 C 
ENDROOT
BRANCH  14  17
HETATM   17  C13 UNL     1      26.481   0.197  51.864  1.00  0.00     0.064 C 
HETATM   18  C14 UNL     1      27.006  -0.595  53.008  1.00  0.00     0.010 C 
ENDBRANCH  14  17
BRANCH  14  19
HETATM   19  O1  UNL     1      27.774   2.204  52.172  1.00  0.00    -0.360 OA
HETATM   20  C15 UNL     1      28.299   2.473  53.395  1.00  0.00     0.205 C 
ENDBRANCH  14  19
BRANCH   1  21
HETATM   21  C2  UNL     1      23.844   3.507  48.834  1.00  0.00     0.035 C 
HETATM   22  C1  UNL     1      22.848   2.365  48.882  1.00  0.00     0.010 C 
ENDBRANCH   1  21
TORSDOF 3
ENDMDL
MODEL 2
REMARK VINA RESULT:      -6.4      1.627      2.197
REMARK  3 active torsions:
REMARK  status: ('A' for Active; 'I' for Inactive)
REMARK    1  A    between atoms: C2_2  and  C3_3 
REMARK    2  A    between atoms: C12_16  and  C13_17 
REMARK    3  A    between atoms: C12_16  and  O1_19 
ROOT
HETATM    1  C3  UNL     1      26.073   3.221  50.732  1.00  0.00    -0.017 C 
HETATM    2  C4  UNL     1      25.032   4.067  50.913  1.00  0.00     0.102 C 
HETATM    3  N1  UNL     1      24.001   5.028  50.590  1.00  0.00    -0.288 NA
HETATM    4  C5  UNL     1      22.881   4.524  50.130  1.00  0.00     0.238 C 
HETATM    5  C6  UNL     1      22.024   3.358  49.720  1.00  0.00     0.067 C 
HETATM    6  C7  UNL     1      22.373   2.097  50.320  1.00  0.00    -0.003 C 
HETATM    7 BR1  UNL     1      21.387   0.868  49.173  1.00  0.00    -0.058 Br
HETATM    8  C8  UNL     1      22.833   1.128  51.058  1.00  0.00     0.172 A 
HETATM    9  C9  UNL     1      23.648   1.213  52.253  1.00  0.00     0.024 A 
HETATM   10  N2  UNL     1      23.276   2.451  51.991  1.00  0.00    -0.331 N 
HETATM   11  C10 UNL     1      23.623   3.565  52.758  1.00  0.00     0.212 C 
HETATM   12  N3  UNL     1      24.483   4.354  52.225  1.00  0.00    -0.232 NA
HETATM   13  C11 UNL     1      24.528   0.939  53.416  1.00  0.00     0.123 C 
HETATM   14  C12 UNL     1      25.900   0.436  52.912  1.00  0.00     0.168 C 
HETATM   15  O2  UNL     1      26.187   1.205  51.753  1.00  0.00    -0.350 OA
HETATM   16  C16 UNL     1      26.376   2.551  52.023  1.00  0.00     0.209 C 
ENDROOT
BRANCH  14  17
HETATM   17  C13 UNL     1      25.665  -0.947  52.303  1.00  0.00     0.064 C 
HETATM   18  C14 UNL     1      26.872  -1.816  52.310  1.00  0.00     0.010 C 
ENDBRANCH  14  17
BRANCH  14  19
HETATM   19  O1  UNL     1      26.820   0.485  53.856  1.00  0.00    -0.360 OA
HETATM   20  C15 UNL     1      26.469   0.267  55.149  1.00  0.00     0.205 C 
ENDBRANCH  14  19
BRANCH   1  21
HETATM   21  C2  UNL     1      26.486   3.235  49.316  1.00  0.00     0.035 C 
HETATM   22  C1  UNL     1      27.219   4.516  48.964  1.00  0.00     0.010 C 
ENDBRANCH   1  21
TORSDOF 3
ENDMDL
MODEL 3
REMARK VINA RESULT:      -6.3      1.889      2.962
REMARK  3 active torsions:
REMARK  status: ('A' for Active; 'I' for Inactive)
REMARK    1  A    between atoms: C2_2  and  C3_3 
REMARK    2  A    between atoms: C12_16  and  C13_17 
REMARK    3  A    between atoms: C12_16  and  O1_19 
ROOT
HETATM    1  C3  UNL     1      23.332   3.097  48.951  1.00  0.00    -0.017 C 
HETATM    2  C4  UNL     1      22.847   4.352  48.796  1.00  0.00     0.102 C 
HETATM    3  N1  UNL     1      22.055   5.438  48.262  1.00  0.00    -0.288 NA
HETATM    4  C5  UNL     1      20.849   5.557  48.762  1.00  0.00     0.238 C 
HETATM    5  C6  UNL     1      19.749   5.113  49.688  1.00  0.00     0.067 C 
HETATM    6  C7  UNL     1      20.180   4.368  50.842  1.00  0.00    -0.003 C 
HETATM    7 BR1  UNL     1      18.485   3.612  51.435  1.00  0.00    -0.058 Br
HETATM    8  C8  UNL     1      20.834   3.813  51.820  1.00  0.00     0.172 A 
HETATM    9  C9  UNL     1      22.236   3.949  52.160  1.00  0.00     0.024 A 
HETATM   10  N2  UNL     1      22.011   4.852  51.226  1.00  0.00    -0.331 N 
HETATM   11  C10 UNL     1      22.969   5.734  50.724  1.00  0.00     0.212 C 
HETATM   12  N3  UNL     1      23.376   5.485  49.532  1.00  0.00    -0.232 NA
HETATM   13  C11 UNL     1      23.601   3.798  52.724  1.00  0.00     0.123 C 
HETATM   14  C12 UNL     1      24.169   2.417  52.323  1.00  0.00     0.168 C 
HETATM   15  O2  UNL     1      23.740   2.200  50.987  1.00  0.00    -0.350 OA
HETATM   16  C16 UNL     1      24.294   3.092  50.083  1.00  0.00     0.209 C 
ENDROOT
BRANCH  14  17
HETATM   17  C13 UNL     1      23.349   1.369  53.076  1.00  0.00     0.064 C 
HETATM   18  C14 UNL     1      22.614   0.432  52.186  1.00  0.00     0.010 C 
ENDBRANCH  14  17
BRANCH  14  19
HETATM   19  O1  UNL     1      25.473   2.349  52.508  1.00  0.00    -0.360 OA
HETATM   20  C15 UNL     1      25.966   2.145  53.756  1.00  0.00     0.205 C 
ENDBRANCH  14  19
BRANCH   1  21
HETATM   21  C2  UNL     1      22.688   2.193  47.980  1.00  0.00     0.035 C 
HETATM   22  C1  UNL     1      21.391   1.625  48.524  1.00  0.00     0.010 C 
ENDBRANCH   1  21
TORSDOF 3
ENDMDL
MODEL 4
REMARK VINA RESULT:      -6.3      2.576      3.595
REMARK  3 active torsions:
REMARK  status: ('A' for Active; 'I' for Inactive)
REMARK    1  A    between atoms: C2_2  and  C3_3 
REMARK    2  A    between atoms: C12_16  and  C13_17 
REMARK    3  A    between atoms: C12_16  and  O1_19 
ROOT
HETATM    1  C3  UNL     1      21.448   3.393  49.038  1.00  0.00    -0.017 C 
HETATM    2  C4  UNL     1      20.686   3.542  50.147  1.00  0.00     0.102 C 
HETATM    3  N1  UNL     1      19.680   3.248  51.143  1.00  0.00    -0.288 NA
HETATM    4  C5  UNL     1      20.051   2.431  52.099  1.00  0.00     0.238 C 
HETATM    5  C6  UNL     1      21.073   1.553  52.768  1.00  0.00     0.067 C 
HETATM    6  C7  UNL     1      22.446   1.875  52.476  1.00  0.00    -0.003 C 
HETATM    7 BR1  UNL     1      23.335   0.259  53.105  1.00  0.00    -0.058 Br
HETATM    8  C8  UNL     1      23.571   2.426  52.127  1.00  0.00     0.172 A 
HETATM    9  C9  UNL     1      23.800   3.756  51.600  1.00  0.00     0.024 A 
HETATM   10  N2  UNL     1      22.539   3.742  51.986  1.00  0.00    -0.331 N 
HETATM   11  C10 UNL     1      21.664   4.825  51.889  1.00  0.00     0.212 C 
HETATM   12  N3  UNL     1      20.758   4.723  50.987  1.00  0.00    -0.232 NA
HETATM   13  C11 UNL     1      24.365   4.980  50.980  1.00  0.00     0.123 C 
HETATM   14  C12 UNL     1      24.709   4.691  49.501  1.00  0.00     0.168 C 
HETATM   15  O2  UNL     1      23.661   3.864  49.018  1.00  0.00    -0.350 OA
HETATM   16  C16 UNL     1      22.433   4.505  48.982  1.00  0.00     0.209 C 
ENDROOT
BRANCH  14  17
HETATM   17  C13 UNL     1      25.885   3.713  49.505  1.00  0.00     0.064 C 
HETATM   18  C14 UNL     1      27.155   4.302  49.004  1.00  0.00     0.010 C 
ENDBRANCH  14  17
BRANCH  14  19
HETATM   19  O1  UNL     1      24.906   5.800  48.815  1.00  0.00    -0.360 OA
HETATM   20  C15 UNL     1      24.960   6.992  49.463  1.00  0.00     0.205 C 
ENDBRANCH  14  19
BRANCH   1  21
HETATM   21  C2  UNL     1      21.059   2.161  48.328  1.00  0.00     0.035 C 
HETATM   22  C1  UNL     1      21.607   0.926  49.017  1.00  0.00     0.010 C 
ENDBRANCH   1  21
TORSDOF 3
ENDMDL
MODEL 5
REMARK VINA RESULT:      -6.2      2.064      2.965
REMARK  3 active torsions:
REMARK  status: ('A' for Active; 'I' for Inactive)
REMARK    1  A    between atoms: C2_2  and  C3_3 
REMARK    2  A    between atoms: C12_16  and  C13_17 
REMARK    3  A    between atoms: C12_16  and  O1_19 
ROOT
HETATM    1  C3  UNL     1      23.190   5.165  51.869  1.00  0.00    -0.017 C 
HETATM    2  C4  UNL     1      21.870   4.929  51.678  1.00  0.00     0.102 C 
HETATM    3  N1  UNL     1      20.533   5.084  51.149  1.00  0.00    -0.288 NA
HETATM    4  C5  UNL     1      20.308   4.494  50.000  1.00  0.00     0.238 C 
HETATM    5  C6  UNL     1      20.753   3.661  48.829  1.00  0.00     0.067 C 
HETATM    6  C7  UNL     1      21.873   2.793  49.082  1.00  0.00    -0.003 C 
HETATM    7 BR1  UNL     1      22.387   2.329  47.260  1.00  0.00    -0.058 Br
HETATM    8  C8  UNL     1      22.814   2.055  49.595  1.00  0.00     0.172 A 
HETATM    9  C9  UNL     1      23.086   1.782  50.992  1.00  0.00     0.024 A 
HETATM   10  N2  UNL     1      21.925   2.407  50.975  1.00  0.00    -0.331 N 
HETATM   11  C10 UNL     1      21.163   2.702  52.106  1.00  0.00     0.212 C 
HETATM   12  N3  UNL     1      21.139   3.940  52.447  1.00  0.00    -0.232 NA
HETATM   13  C11 UNL     1      23.682   1.373  52.288  1.00  0.00     0.123 C 
HETATM   14  C12 UNL     1      24.977   2.182  52.533  1.00  0.00     0.168 C 
HETATM   15  O2  UNL     1      24.702   3.494  52.066  1.00  0.00    -0.350 OA
HETATM   16  C16 UNL     1      23.728   4.145  52.806  1.00  0.00     0.209 C 
ENDROOT
BRANCH  14  17
HETATM   17  C13 UNL     1      25.997   1.702  51.499  1.00  0.00     0.064 C 
HETATM   18  C14 UNL     1      26.527   2.790  50.634  1.00  0.00     0.010 C 
ENDBRANCH  14  17
BRANCH  14  19
HETATM   19  O1  UNL     1      25.373   2.108  53.788  1.00  0.00    -0.360 OA
HETATM   20  C15 UNL     1      26.367   1.248  54.131  1.00  0.00     0.205 C 
ENDBRANCH  14  19
BRANCH   1  21
HETATM   21  C2  UNL     1      23.616   6.308  51.040  1.00  0.00     0.035 C 
HETATM   22  C1  UNL     1      23.882   5.886  49.608  1.00  0.00     0.010 C 
ENDBRANCH   1  21
TORSDOF 3
ENDMDL
MODEL 6
REMARK VINA RESULT:      -6.2      8.235      9.526
REMARK  3 active torsions:
REMARK  status: ('A' for Active; 'I' for Inactive)
REMARK    1  A    between atoms: C2_2  and  C3_3 
REMARK    2  A    between atoms: C12_16  and  C13_17 
REMARK    3  A    between atoms: C12_16  and  O1_19 
ROOT
HETATM    1  C3  UNL     1      32.222   7.981  46.207  1.00  0.00    -0.017 C 
HETATM    2  C4  UNL     1      31.920   8.690  47.321  1.00  0.00     0.102 C 
HETATM    3  N1  UNL     1      31.302   9.699  48.153  1.00  0.00    -0.288 NA
HETATM    4  C5  UNL     1      30.107   9.404  48.606  1.00  0.00     0.238 C 
HETATM    5  C6  UNL     1      28.926   8.480  48.724  1.00  0.00     0.067 C 
HETATM    6  C7  UNL     1      29.212   7.087  48.502  1.00  0.00    -0.003 C 
HETATM    7 BR1  UNL     1      27.409   6.385  48.262  1.00  0.00    -0.058 Br
HETATM    8  C8  UNL     1      29.750   5.912  48.351  1.00  0.00     0.172 A 
HETATM    9  C9  UNL     1      31.145   5.536  48.464  1.00  0.00     0.024 A 
HETATM   10  N2  UNL     1      31.077   6.779  48.900  1.00  0.00    -0.331 N 
HETATM   11  C10 UNL     1      32.164   7.518  49.371  1.00  0.00     0.212 C 
HETATM   12  N3  UNL     1      32.573   8.453  48.594  1.00  0.00    -0.232 NA
HETATM   13  C11 UNL     1      32.456   4.843  48.420  1.00  0.00     0.123 C 
HETATM   14  C12 UNL     1      32.843   4.575  46.947  1.00  0.00     0.168 C 
HETATM   15  O2  UNL     1      32.434   5.728  46.228  1.00  0.00    -0.350 OA
HETATM   16  C16 UNL     1      33.135   6.870  46.581  1.00  0.00     0.209 C 
ENDROOT
BRANCH  14  17
HETATM   17  C13 UNL     1      31.862   3.527  46.418  1.00  0.00     0.064 C 
HETATM   18  C14 UNL     1      32.257   2.128  46.729  1.00  0.00     0.010 C 
ENDBRANCH  14  17
BRANCH  14  19
HETATM   19  O1  UNL     1      34.118   4.263  46.822  1.00  0.00    -0.360 OA
HETATM   20  C15 UNL     1      34.868   4.038  47.931  1.00  0.00     0.205 C 
ENDBRANCH  14  19
BRANCH   1  21
HETATM   21  C2  UNL     1      31.494   8.536  45.051  1.00  0.00     0.035 C 
HETATM   22  C1  UNL     1      30.021   8.175  45.097  1.00  0.00     0.010 C 
ENDBRANCH   1  21
TORSDOF 3
ENDMDL
MODEL 7
REMARK VINA RESULT:      -6.2      2.979      5.069
REMARK  3 active torsions:
REMARK  status: ('A' for Active; 'I' for Inactive)
REMARK    1  A    between atoms: C2_2  and  C3_3 
REMARK    2  A    between atoms: C12_16  and  C13_17 
REMARK    3  A    between atoms: C12_16  and  O1_19 
ROOT
HETATM    1  C3  UNL     1      21.398   4.107  51.258  1.00  0.00    -0.017 C 
HETATM    2  C4  UNL     1      22.128   3.934  50.131  1.00  0.00     0.102 C 
HETATM    3  N1  UNL     1      23.127   4.185  49.117  1.00  0.00    -0.288 NA
HETATM    4  C5  UNL     1      24.329   3.731  49.382  1.00  0.00     0.238 C 
HETATM    5  C6  UNL     1      25.308   3.017  50.274  1.00  0.00     0.067 C 
HETATM    6  C7  UNL     1      24.724   2.094  51.212  1.00  0.00    -0.003 C 
HETATM    7 BR1  UNL     1      26.227   1.815  52.422  1.00  0.00    -0.058 Br
HETATM    8  C8  UNL     1      23.964   1.275  51.878  1.00  0.00     0.172 A 
HETATM    9  C9  UNL     1      22.615   0.844  51.571  1.00  0.00     0.024 A 
HETATM   10  N2  UNL     1      23.027   1.503  50.505  1.00  0.00    -0.331 N 
HETATM   11  C10 UNL     1      22.270   1.696  49.347  1.00  0.00     0.212 C 
HETATM   12  N3  UNL     1      21.832   2.889  49.168  1.00  0.00    -0.232 NA
HETATM   13  C11 UNL     1      21.243   0.279  51.601  1.00  0.00     0.123 C 
HETATM   14  C12 UNL     1      20.411   1.017  52.675  1.00  0.00     0.168 C 
HETATM   15  O2  UNL     1      20.799   2.380  52.591  1.00  0.00    -0.350 OA
HETATM   16  C16 UNL     1      20.445   2.975  51.391  1.00  0.00     0.209 C 
ENDROOT
BRANCH  14  17
HETATM   17  C13 UNL     1      20.995   0.622  54.033  1.00  0.00     0.064 C 
HETATM   18  C14 UNL     1      21.027  -0.846  54.265  1.00  0.00     0.010 C 
ENDBRANCH  14  17
BRANCH  14  19
HETATM   19  O1  UNL     1      19.118   0.795  52.535  1.00  0.00    -0.360 OA
HETATM   20  C15 UNL     1      18.688  -0.141  51.651  1.00  0.00     0.205 C 
ENDBRANCH  14  19
BRANCH   1  21
HETATM   21  C2  UNL     1      21.854   5.320  51.963  1.00  0.00     0.035 C 
HETATM   22  C1  UNL     1      23.167   5.083  52.683  1.00  0.00     0.010 C 
ENDBRANCH   1  21
TORSDOF 3
ENDMDL
MODEL 8
REMARK VINA RESULT:      -6.1      2.861      4.527
REMARK  3 active torsions:
REMARK  status: ('A' for Active; 'I' for Inactive)
REMARK    1  A    between atoms: C2_2  and  C3_3 
REMARK    2  A    between atoms: C12_16  and  C13_17 
REMARK    3  A    between atoms: C12_16  and  O1_19 
ROOT
HETATM    1  C3  UNL     1      21.188   2.357  49.396  1.00  0.00    -0.017 C 
HETATM    2  C4  UNL     1      20.540   1.748  50.417  1.00  0.00     0.102 C 
HETATM    3  N1  UNL     1      19.999   0.680  51.227  1.00  0.00    -0.288 NA
HETATM    4  C5  UNL     1      20.837   0.132  52.075  1.00  0.00     0.238 C 
HETATM    5  C6  UNL     1      22.197   0.020  52.707  1.00  0.00     0.067 C 
HETATM    6  C7  UNL     1      23.008   1.207  52.634  1.00  0.00    -0.003 C 
HETATM    7 BR1  UNL     1      24.756   0.475  53.091  1.00  0.00    -0.058 Br
HETATM    8  C8  UNL     1      23.483   2.412  52.513  1.00  0.00     0.172 A 
HETATM    9  C9  UNL     1      22.765   3.641  52.240  1.00  0.00     0.024 A 
HETATM   10  N2  UNL     1      21.836   2.733  52.469  1.00  0.00    -0.331 N 
HETATM   11  C10 UNL     1      20.462   2.978  52.448  1.00  0.00     0.212 C 
HETATM   12  N3  UNL     1      19.831   2.493  51.440  1.00  0.00    -0.232 NA
HETATM   13  C11 UNL     1      22.368   5.030  51.898  1.00  0.00     0.123 C 
HETATM   14  C12 UNL     1      22.788   5.337  50.443  1.00  0.00     0.168 C 
HETATM   15  O2  UNL     1      22.538   4.146  49.712  1.00  0.00    -0.350 OA
HETATM   16  C16 UNL     1      21.192   3.823  49.637  1.00  0.00     0.209 C 
ENDROOT
BRANCH  14  17
HETATM   17  C13 UNL     1      24.317   5.383  50.426  1.00  0.00     0.064 C 
HETATM   18  C14 UNL     1      24.927   4.584  49.331  1.00  0.00     0.010 C 
ENDBRANCH  14  17
BRANCH  14  19
HETATM   19  O1  UNL     1      22.189   6.414  49.974  1.00  0.00    -0.360 OA
HETATM   20  C15 UNL     1      21.652   7.314  50.837  1.00  0.00     0.205 C 
ENDBRANCH  14  19
BRANCH   1  21
HETATM   21  C2  UNL     1      21.696   1.342  48.454  1.00  0.00     0.035 C 
HETATM   22  C1  UNL     1      22.579   1.964  47.389  1.00  0.00     0.010 C 
ENDBRANCH   1  21
TORSDOF 3
ENDMDL
MODEL 9
REMARK VINA RESULT:      -6.0      8.992     10.917
REMARK  3 active torsions:
REMARK  status: ('A' for Active; 'I' for Inactive)
REMARK    1  A    between atoms: C2_2  and  C3_3 
REMARK    2  A    between atoms: C12_16  and  C13_17 
REMARK    3  A    between atoms: C12_16  and  O1_19 
ROOT
HETATM    1  C3  UNL     1      30.081   6.624  48.513  1.00  0.00    -0.017 C 
HETATM    2  C4  UNL     1      31.188   5.849  48.609  1.00  0.00     0.102 C 
HETATM    3  N1  UNL     1      32.032   4.681  48.496  1.00  0.00    -0.288 NA
HETATM    4  C5  UNL     1      32.606   4.509  47.329  1.00  0.00     0.238 C 
HETATM    5  C6  UNL     1      32.872   4.928  45.909  1.00  0.00     0.067 C 
HETATM    6  C7  UNL     1      32.681   6.328  45.636  1.00  0.00    -0.003 C 
HETATM    7 BR1  UNL     1      32.639   6.311  43.688  1.00  0.00    -0.058 Br
HETATM    8  C8  UNL     1      32.528   7.620  45.684  1.00  0.00     0.172 A 
HETATM    9  C9  UNL     1      32.525   8.486  46.846  1.00  0.00     0.024 A 
HETATM   10  N2  UNL     1      32.915   7.305  47.286  1.00  0.00    -0.331 N 
HETATM   11  C10 UNL     1      33.252   7.022  48.611  1.00  0.00     0.212 C 
HETATM   12  N3  UNL     1      32.403   6.308  49.255  1.00  0.00    -0.232 NA
HETATM   13  C11 UNL     1      32.387   9.617  47.796  1.00  0.00     0.123 C 
HETATM   14  C12 UNL     1      30.897  10.014  47.904  1.00  0.00     0.168 C 
HETATM   15  O2  UNL     1      30.173   8.793  47.879  1.00  0.00    -0.350 OA
HETATM   16  C16 UNL     1      30.412   7.993  48.985  1.00  0.00     0.209 C 
ENDROOT
BRANCH  14  17
HETATM   17  C13 UNL     1      30.505  10.624  46.558  1.00  0.00     0.064 C 
HETATM   18  C14 UNL     1      29.245  10.069  45.995  1.00  0.00     0.010 C 
ENDBRANCH  14  17
BRANCH  14  19
HETATM   19  O1  UNL     1      30.667  10.778  48.954  1.00  0.00    -0.360 OA
HETATM   20  C15 UNL     1      30.875  12.117  48.872  1.00  0.00     0.205 C 
ENDBRANCH  14  19
BRANCH   1  21
HETATM   21  C2  UNL     1      28.976   5.841  47.928  1.00  0.00     0.035 C 
HETATM   22  C1  UNL     1      27.626   6.363  48.380  1.00  0.00     0.010 C 
ENDBRANCH   1  21
TORSDOF 3
ENDMDL
