MODEL 1
REMARK VINA RESULT:      -8.3      0.000      0.000
REMARK  6 active torsions:
REMARK  status: ('A' for Active; 'I' for Inactive)
REMARK    1  A    between atoms: N2_5  and  C4_6 
REMARK    2  A    between atoms: C4_6  and  C5_7 
REMARK    3  A    between atoms: C5_7  and  C6_8 
REMARK    4  A    between atoms: C7_9  and  C8_10 
REMARK    5  A    between atoms: C8_10  and  N3_11 
REMARK    6  A    between atoms: N3_11  and  C9_12 
ROOT
HETATM    1  C9  UNL     1      25.459   3.193  50.881  1.00  0.00     0.130 A 
HETATM    2  C10 UNL     1      25.520   2.142  51.711  1.00  0.00    -0.003 A 
HETATM    3  C11 UNL     1      26.935   1.831  52.012  1.00  0.00     0.067 C 
HETATM    4  C12 UNL     1      27.162   1.709  53.515  1.00  0.00     0.110 C 
HETATM    5 CL1  UNL     1      28.761   2.368  53.928  1.00  0.00    -0.120 Cl
HETATM    6  C13 UNL     1      27.179   0.262  53.912  1.00  0.00     0.010 C 
HETATM    7  C14 UNL     1      26.135  -0.549  53.898  1.00  0.00     0.085 C 
HETATM    8  N4  UNL     1      24.733  -0.510  53.577  1.00  0.00    -0.375 N 
HETATM    9  C15 UNL     1      23.949   0.475  52.871  1.00  0.00     0.095 C 
HETATM   10  C16 UNL     1      24.253   1.547  52.117  1.00  0.00    -0.028 A 
HETATM   11  C17 UNL     1      22.904   2.031  51.747  1.00  0.00     0.087 A 
HETATM   12  C18 UNL     1      23.083   3.189  50.838  1.00  0.00     0.096 A 
HETATM   13  N5  UNL     1      24.202   3.713  50.447  1.00  0.00    -0.247 NA
HETATM   14  H20 UNL     1      24.188  -1.344  53.916  1.00  0.00     0.164 HD
ENDROOT
BRANCH   1  15
HETATM   15  N3  UNL     1      26.663   3.815  50.436  1.00  0.00    -0.364 N 
HETATM   16  H14 UNL     1      27.604   3.888  50.913  1.00  0.00     0.162 HD
BRANCH  15  17
HETATM   17  C8  UNL     1      26.441   4.388  49.114  1.00  0.00     0.215 C 
BRANCH  17  18
HETATM   18  C7  UNL     1      27.647   5.044  48.611  1.00  0.00    -0.087 C 
HETATM   19  C6  UNL     1      28.649   5.613  48.195  1.00  0.00    -0.103 C 
BRANCH  19  20
HETATM   20  C5  UNL     1      29.826   6.306  47.716  1.00  0.00     0.113 C 
BRANCH  20  21
HETATM   21  C4  UNL     1      31.084   6.092  48.467  1.00  0.00     0.129 C 
BRANCH  21  22
HETATM   22  N2  UNL     1      32.188   5.506  47.861  1.00  0.00    -0.408 N 
HETATM   23  C3  UNL     1      33.496   5.709  48.286  1.00  0.00     0.136 C 
HETATM   24  C2  UNL     1      34.579   5.364  47.307  1.00  0.00     0.135 C 
HETATM   25  N1  UNL     1      34.204   4.624  46.178  1.00  0.00    -0.414 N 
HETATM   26  C1  UNL     1      35.185   3.796  45.584  1.00  0.00     0.143 C 
HETATM   27  C20 UNL     1      32.859   4.362  45.896  1.00  0.00     0.135 C 
HETATM   28  C19 UNL     1      31.942   4.322  47.090  1.00  0.00     0.136 C 
ENDBRANCH  21  22
ENDBRANCH  20  21
ENDBRANCH  19  20
ENDBRANCH  17  18
ENDBRANCH  15  17
ENDBRANCH   1  15
TORSDOF 6
ENDMDL
MODEL 2
REMARK VINA RESULT:      -8.1      4.505      7.012
REMARK  6 active torsions:
REMARK  status: ('A' for Active; 'I' for Inactive)
REMARK    1  A    between atoms: N2_5  and  C4_6 
REMARK    2  A    between atoms: C4_6  and  C5_7 
REMARK    3  A    between atoms: C5_7  and  C6_8 
REMARK    4  A    between atoms: C7_9  and  C8_10 
REMARK    5  A    between atoms: C8_10  and  N3_11 
REMARK    6  A    between atoms: N3_11  and  C9_12 
ROOT
HETATM    1  C9  UNL     1      24.214   0.794  52.901  1.00  0.00     0.130 A 
HETATM    2  C10 UNL     1      22.933   0.424  53.031  1.00  0.00    -0.003 A 
HETATM    3  C11 UNL     1      22.103   1.158  52.050  1.00  0.00     0.067 C 
HETATM    4  C12 UNL     1      21.215   0.204  51.258  1.00  0.00     0.110 C 
HETATM    5 CL1  UNL     1      21.076   0.778  49.580  1.00  0.00    -0.120 Cl
HETATM    6  C13 UNL     1      19.827   0.210  51.829  1.00  0.00     0.010 C 
HETATM    7  C14 UNL     1      19.481  -0.279  53.007  1.00  0.00     0.085 C 
HETATM    8  N4  UNL     1      20.091  -0.936  54.133  1.00  0.00    -0.375 N 
HETATM    9  C15 UNL     1      21.479  -1.104  54.495  1.00  0.00     0.095 C 
HETATM   10  C16 UNL     1      22.630  -0.564  54.060  1.00  0.00    -0.028 A 
HETATM   11  C17 UNL     1      23.615  -1.239  54.935  1.00  0.00     0.087 A 
HETATM   12  C18 UNL     1      24.950  -0.679  54.614  1.00  0.00     0.096 A 
HETATM   13  N5  UNL     1      25.231   0.217  53.721  1.00  0.00    -0.247 NA
HETATM   14  H20 UNL     1      19.407  -1.368  54.806  1.00  0.00     0.164 HD
ENDROOT
BRANCH   1  15
HETATM   15  N3  UNL     1      24.575   1.765  51.920  1.00  0.00    -0.364 N 
HETATM   16  H14 UNL     1      23.976   2.479  51.421  1.00  0.00     0.162 HD
BRANCH  15  17
HETATM   17  C8  UNL     1      26.006   1.666  51.660  1.00  0.00     0.215 C 
BRANCH  17  18
HETATM   18  C7  UNL     1      26.439   2.672  50.691  1.00  0.00    -0.087 C 
HETATM   19  C6  UNL     1      26.820   3.503  49.875  1.00  0.00    -0.103 C 
BRANCH  19  20
HETATM   20  C5  UNL     1      27.286   4.468  48.902  1.00  0.00     0.113 C 
BRANCH  20  21
HETATM   21  C4  UNL     1      26.499   5.715  48.760  1.00  0.00     0.129 C 
BRANCH  21  22
HETATM   22  N2  UNL     1      25.287   5.874  49.419  1.00  0.00    -0.408 N 
HETATM   23  C3  UNL     1      25.087   6.780  50.454  1.00  0.00     0.136 C 
HETATM   24  C2  UNL     1      23.888   6.549  51.325  1.00  0.00     0.135 C 
HETATM   25  N1  UNL     1      22.938   5.627  50.868  1.00  0.00    -0.414 N 
HETATM   26  C1  UNL     1      21.599   5.806  51.287  1.00  0.00     0.143 C 
HETATM   27  C20 UNL     1      23.177   4.840  49.736  1.00  0.00     0.135 C 
HETATM   28  C19 UNL     1      24.114   5.435  48.719  1.00  0.00     0.136 C 
ENDBRANCH  21  22
ENDBRANCH  20  21
ENDBRANCH  19  20
ENDBRANCH  17  18
ENDBRANCH  15  17
ENDBRANCH   1  15
TORSDOF 6
ENDMDL
MODEL 3
REMARK VINA RESULT:      -8.0      3.173      4.957
REMARK  6 active torsions:
REMARK  status: ('A' for Active; 'I' for Inactive)
REMARK    1  A    between atoms: N2_5  and  C4_6 
REMARK    2  A    between atoms: C4_6  and  C5_7 
REMARK    3  A    between atoms: C5_7  and  C6_8 
REMARK    4  A    between atoms: C7_9  and  C8_10 
REMARK    5  A    between atoms: C8_10  and  N3_11 
REMARK    6  A    between atoms: N3_11  and  C9_12 
ROOT
HETATM    1  C9  UNL     1      24.713   1.032  52.489  1.00  0.00     0.130 A 
HETATM    2  C10 UNL     1      23.478   0.639  52.829  1.00  0.00    -0.003 A 
HETATM    3  C11 UNL     1      22.487   1.311  51.960  1.00  0.00     0.067 C 
HETATM    4  C12 UNL     1      21.516   0.304  51.354  1.00  0.00     0.110 C 
HETATM    5 CL1  UNL     1      21.104   0.801  49.696  1.00  0.00    -0.120 Cl
HETATM    6  C13 UNL     1      20.232   0.302  52.131  1.00  0.00     0.010 C 
HETATM    7  C14 UNL     1      20.086  -0.144  53.366  1.00  0.00     0.085 C 
HETATM    8  N4  UNL     1      20.880  -0.737  54.409  1.00  0.00    -0.375 N 
HETATM    9  C15 UNL     1      22.311  -0.858  54.559  1.00  0.00     0.095 C 
HETATM   10  C16 UNL     1      23.366  -0.310  53.931  1.00  0.00    -0.028 A 
HETATM   11  C17 UNL     1      24.492  -0.925  54.668  1.00  0.00     0.087 A 
HETATM   12  C18 UNL     1      25.746  -0.349  54.124  1.00  0.00     0.096 A 
HETATM   13  N5  UNL     1      25.860   0.514  53.164  1.00  0.00    -0.247 NA
HETATM   14  H20 UNL     1      20.320  -1.155  55.196  1.00  0.00     0.164 HD
ENDROOT
BRANCH   1  15
HETATM   15  N3  UNL     1      24.891   1.968  51.427  1.00  0.00    -0.364 N 
HETATM   16  H14 UNL     1      24.176   2.554  50.914  1.00  0.00     0.162 HD
BRANCH  15  17
HETATM   17  C8  UNL     1      26.309   2.048  51.098  1.00  0.00     0.215 C 
BRANCH  17  18
HETATM   18  C7  UNL     1      26.584   3.179  50.214  1.00  0.00    -0.087 C 
HETATM   19  C6  UNL     1      26.829   4.136  49.488  1.00  0.00    -0.103 C 
BRANCH  19  20
HETATM   20  C5  UNL     1      27.140   5.269  48.643  1.00  0.00     0.113 C 
BRANCH  20  21
HETATM   21  C4  UNL     1      28.564   5.481  48.297  1.00  0.00     0.129 C 
BRANCH  21  22
HETATM   22  N2  UNL     1      29.159   6.726  48.450  1.00  0.00    -0.408 N 
HETATM   23  C3  UNL     1      30.535   6.927  48.442  1.00  0.00     0.136 C 
HETATM   24  C2  UNL     1      31.025   8.219  49.024  1.00  0.00     0.135 C 
HETATM   25  N1  UNL     1      30.068   9.212  49.267  1.00  0.00    -0.414 N 
HETATM   26  C1  UNL     1      30.499  10.559  49.228  1.00  0.00     0.143 C 
HETATM   27  C20 UNL     1      28.701   8.951  49.127  1.00  0.00     0.135 C 
HETATM   28  C19 UNL     1      28.345   7.867  48.145  1.00  0.00     0.136 C 
ENDBRANCH  21  22
ENDBRANCH  20  21
ENDBRANCH  19  20
ENDBRANCH  17  18
ENDBRANCH  15  17
ENDBRANCH   1  15
TORSDOF 6
ENDMDL
MODEL 4
REMARK VINA RESULT:      -7.9      1.625      2.021
REMARK  6 active torsions:
REMARK  status: ('A' for Active; 'I' for Inactive)
REMARK    1  A    between atoms: N2_5  and  C4_6 
REMARK    2  A    between atoms: C4_6  and  C5_7 
REMARK    3  A    between atoms: C5_7  and  C6_8 
REMARK    4  A    between atoms: C7_9  and  C8_10 
REMARK    5  A    between atoms: C8_10  and  N3_11 
REMARK    6  A    between atoms: N3_11  and  C9_12 
ROOT
HETATM    1  C9  UNL     1      25.097   2.690  51.668  1.00  0.00     0.130 A 
HETATM    2  C10 UNL     1      25.708   1.617  52.189  1.00  0.00    -0.003 A 
HETATM    3  C11 UNL     1      27.175   1.801  52.123  1.00  0.00     0.067 C 
HETATM    4  C12 UNL     1      27.823   1.534  53.477  1.00  0.00     0.110 C 
HETATM    5 CL1  UNL     1      29.181   2.658  53.716  1.00  0.00    -0.120 Cl
HETATM    6  C13 UNL     1      28.404   0.150  53.499  1.00  0.00     0.010 C 
HETATM    7  C14 UNL     1      27.707  -0.973  53.494  1.00  0.00     0.085 C 
HETATM    8  N4  UNL     1      26.333  -1.400  53.473  1.00  0.00    -0.375 N 
HETATM    9  C15 UNL     1      25.118  -0.671  53.195  1.00  0.00     0.095 C 
HETATM   10  C16 UNL     1      24.853   0.542  52.679  1.00  0.00    -0.028 A 
HETATM   11  C17 UNL     1      23.373   0.551  52.708  1.00  0.00     0.087 A 
HETATM   12  C18 UNL     1      22.925   1.823  52.091  1.00  0.00     0.096 A 
HETATM   13  N5  UNL     1      23.672   2.775  51.627  1.00  0.00    -0.247 NA
HETATM   14  H20 UNL     1      26.192  -2.418  53.700  1.00  0.00     0.164 HD
ENDROOT
BRANCH   1  15
HETATM   15  N3  UNL     1      25.877   3.772  51.160  1.00  0.00    -0.364 N 
HETATM   16  H14 UNL     1      26.509   4.447  51.670  1.00  0.00     0.162 HD
BRANCH  15  17
HETATM   17  C8  UNL     1      25.698   3.847  49.715  1.00  0.00     0.215 C 
BRANCH  17  18
HETATM   18  C7  UNL     1      26.787   4.592  49.086  1.00  0.00    -0.087 C 
HETATM   19  C6  UNL     1      27.697   5.234  48.573  1.00  0.00    -0.103 C 
BRANCH  19  20
HETATM   20  C5  UNL     1      28.774   6.004  47.989  1.00  0.00     0.113 C 
BRANCH  20  21
HETATM   21  C4  UNL     1      30.122   5.390  47.997  1.00  0.00     0.129 C 
BRANCH  21  22
HETATM   22  N2  UNL     1      31.266   6.177  48.030  1.00  0.00    -0.408 N 
HETATM   23  C3  UNL     1      31.735   6.803  49.180  1.00  0.00     0.136 C 
HETATM   24  C2  UNL     1      32.707   7.927  48.981  1.00  0.00     0.135 C 
HETATM   25  N1  UNL     1      33.263   8.069  47.704  1.00  0.00    -0.414 N 
HETATM   26  C1  UNL     1      34.544   8.660  47.610  1.00  0.00     0.143 C 
HETATM   27  C20 UNL     1      32.808   7.303  46.625  1.00  0.00     0.135 C 
HETATM   28  C19 UNL     1      32.223   5.962  46.984  1.00  0.00     0.136 C 
ENDBRANCH  21  22
ENDBRANCH  20  21
ENDBRANCH  19  20
ENDBRANCH  17  18
ENDBRANCH  15  17
ENDBRANCH   1  15
TORSDOF 6
ENDMDL
MODEL 5
REMARK VINA RESULT:      -7.9      1.948      3.162
REMARK  6 active torsions:
REMARK  status: ('A' for Active; 'I' for Inactive)
REMARK    1  A    between atoms: N2_5  and  C4_6 
REMARK    2  A    between atoms: C4_6  and  C5_7 
REMARK    3  A    between atoms: C5_7  and  C6_8 
REMARK    4  A    between atoms: C7_9  and  C8_10 
REMARK    5  A    between atoms: C8_10  and  N3_11 
REMARK    6  A    between atoms: N3_11  and  C9_12 
ROOT
HETATM    1  C9  UNL     1      26.082   2.674  51.570  1.00  0.00     0.130 A 
HETATM    2  C10 UNL     1      25.009   1.945  51.908  1.00  0.00    -0.003 A 
HETATM    3  C11 UNL     1      23.786   2.592  51.381  1.00  0.00     0.067 C 
HETATM    4  C12 UNL     1      22.926   1.596  50.611  1.00  0.00     0.110 C 
HETATM    5 CL1  UNL     1      22.171   2.412  49.224  1.00  0.00    -0.120 Cl
HETATM    6  C13 UNL     1      21.806   1.109  51.483  1.00  0.00     0.010 C 
HETATM    7  C14 UNL     1      21.943   0.331  52.543  1.00  0.00     0.085 C 
HETATM    8  N4  UNL     1      22.989  -0.330  53.278  1.00  0.00    -0.375 N 
HETATM    9  C15 UNL     1      24.423  -0.172  53.237  1.00  0.00     0.095 C 
HETATM   10  C16 UNL     1      25.248   0.738  52.689  1.00  0.00    -0.028 A 
HETATM   11  C17 UNL     1      26.570   0.210  53.094  1.00  0.00     0.087 A 
HETATM   12  C18 UNL     1      27.596   1.168  52.614  1.00  0.00     0.096 A 
HETATM   13  N5  UNL     1      27.397   2.258  51.942  1.00  0.00    -0.247 NA
HETATM   14  H20 UNL     1      22.647  -1.053  53.962  1.00  0.00     0.164 HD
ENDROOT
BRANCH   1  15
HETATM   15  N3  UNL     1      25.916   3.873  50.816  1.00  0.00    -0.364 N 
HETATM   16  H14 UNL     1      25.626   4.838  51.133  1.00  0.00     0.162 HD
BRANCH  15  17
HETATM   17  C8  UNL     1      26.231   3.601  49.418  1.00  0.00     0.215 C 
BRANCH  17  18
HETATM   18  C7  UNL     1      27.304   4.471  48.939  1.00  0.00    -0.087 C 
HETATM   19  C6  UNL     1      28.204   5.189  48.518  1.00  0.00    -0.103 C 
BRANCH  19  20
HETATM   20  C5  UNL     1      29.258   6.032  47.997  1.00  0.00     0.113 C 
BRANCH  20  21
HETATM   21  C4  UNL     1      30.583   5.935  48.652  1.00  0.00     0.129 C 
BRANCH  21  22
HETATM   22  N2  UNL     1      31.638   5.274  48.037  1.00  0.00    -0.408 N 
HETATM   23  C3  UNL     1      31.475   4.167  47.211  1.00  0.00     0.136 C 
HETATM   24  C2  UNL     1      32.694   3.328  46.968  1.00  0.00     0.135 C 
HETATM   25  N1  UNL     1      33.926   3.869  47.355  1.00  0.00    -0.414 N 
HETATM   26  C1  UNL     1      35.077   3.446  46.650  1.00  0.00     0.143 C 
HETATM   27  C20 UNL     1      33.999   5.062  48.083  1.00  0.00     0.135 C 
HETATM   28  C19 UNL     1      32.854   6.018  47.876  1.00  0.00     0.136 C 
ENDBRANCH  21  22
ENDBRANCH  20  21
ENDBRANCH  19  20
ENDBRANCH  17  18
ENDBRANCH  15  17
ENDBRANCH   1  15
TORSDOF 6
ENDMDL
MODEL 6
REMARK VINA RESULT:      -7.9      2.518      3.661
REMARK  6 active torsions:
REMARK  status: ('A' for Active; 'I' for Inactive)
REMARK    1  A    between atoms: N2_5  and  C4_6 
REMARK    2  A    between atoms: C4_6  and  C5_7 
REMARK    3  A    between atoms: C5_7  and  C6_8 
REMARK    4  A    between atoms: C7_9  and  C8_10 
REMARK    5  A    between atoms: C8_10  and  N3_11 
REMARK    6  A    between atoms: N3_11  and  C9_12 
ROOT
HETATM    1  C9  UNL     1      25.269   3.199  51.157  1.00  0.00     0.130 A 
HETATM    2  C10 UNL     1      25.343   2.097  51.916  1.00  0.00    -0.003 A 
HETATM    3  C11 UNL     1      26.763   1.737  52.128  1.00  0.00     0.067 C 
HETATM    4  C12 UNL     1      27.058   1.515  53.607  1.00  0.00     0.110 C 
HETATM    5 CL1  UNL     1      28.691   2.113  53.982  1.00  0.00    -0.120 Cl
HETATM    6  C13 UNL     1      27.060   0.046  53.912  1.00  0.00     0.010 C 
HETATM    7  C14 UNL     1      25.997  -0.740  53.900  1.00  0.00     0.085 C 
HETATM    8  N4  UNL     1      24.582  -0.651  53.650  1.00  0.00    -0.375 N 
HETATM    9  C15 UNL     1      23.789   0.393  53.046  1.00  0.00     0.095 C 
HETATM   10  C16 UNL     1      24.083   1.503  52.346  1.00  0.00    -0.028 A 
HETATM   11  C17 UNL     1      22.730   2.038  52.072  1.00  0.00     0.087 A 
HETATM   12  C18 UNL     1      22.894   3.247  51.230  1.00  0.00     0.096 A 
HETATM   13  N5  UNL     1      24.005   3.771  50.818  1.00  0.00    -0.247 NA
HETATM   14  H20 UNL     1      24.034  -1.493  53.963  1.00  0.00     0.164 HD
ENDROOT
BRANCH   1  15
HETATM   15  N3  UNL     1      26.465   3.822  50.693  1.00  0.00    -0.364 N 
HETATM   16  H14 UNL     1      27.360   4.039  51.211  1.00  0.00     0.162 HD
BRANCH  15  17
HETATM   17  C8  UNL     1      26.311   4.152  49.282  1.00  0.00     0.215 C 
BRANCH  17  18
HETATM   18  C7  UNL     1      27.494   4.841  48.767  1.00  0.00    -0.087 C 
HETATM   19  C6  UNL     1      28.476   5.418  48.315  1.00  0.00    -0.103 C 
BRANCH  19  20
HETATM   20  C5  UNL     1      29.623   6.107  47.763  1.00  0.00     0.113 C 
BRANCH  20  21
HETATM   21  C4  UNL     1      29.369   7.399  47.085  1.00  0.00     0.129 C 
BRANCH  21  22
HETATM   22  N2  UNL     1      29.794   8.596  47.647  1.00  0.00    -0.408 N 
HETATM   23  C3  UNL     1      30.625   8.671  48.759  1.00  0.00     0.136 C 
HETATM   24  C2  UNL     1      30.653   9.983  49.486  1.00  0.00     0.135 C 
HETATM   25  N1  UNL     1      30.071  11.080  48.841  1.00  0.00    -0.414 N 
HETATM   26  C1  UNL     1      30.570  12.365  49.156  1.00  0.00     0.143 C 
HETATM   27  C20 UNL     1      29.352  10.925  47.650  1.00  0.00     0.135 C 
HETATM   28  C19 UNL     1      29.757   9.752  46.798  1.00  0.00     0.136 C 
ENDBRANCH  21  22
ENDBRANCH  20  21
ENDBRANCH  19  20
ENDBRANCH  17  18
ENDBRANCH  15  17
ENDBRANCH   1  15
TORSDOF 6
ENDMDL
MODEL 7
REMARK VINA RESULT:      -7.7      3.779      5.888
REMARK  6 active torsions:
REMARK  status: ('A' for Active; 'I' for Inactive)
REMARK    1  A    between atoms: N2_5  and  C4_6 
REMARK    2  A    between atoms: C4_6  and  C5_7 
REMARK    3  A    between atoms: C5_7  and  C6_8 
REMARK    4  A    between atoms: C7_9  and  C8_10 
REMARK    5  A    between atoms: C8_10  and  N3_11 
REMARK    6  A    between atoms: N3_11  and  C9_12 
ROOT
HETATM    1  C9  UNL     1      26.073   2.216  52.388  1.00  0.00     0.130 A 
HETATM    2  C10 UNL     1      25.280   1.349  53.034  1.00  0.00    -0.003 A 
HETATM    3  C11 UNL     1      23.863   1.692  52.780  1.00  0.00     0.067 C 
HETATM    4  C12 UNL     1      23.075   0.469  52.323  1.00  0.00     0.110 C 
HETATM    5 CL1  UNL     1      21.871   0.960  51.109  1.00  0.00    -0.120 Cl
HETATM    6  C13 UNL     1      22.309  -0.105  53.478  1.00  0.00     0.010 C 
HETATM    7  C14 UNL     1      22.843  -0.711  54.525  1.00  0.00     0.085 C 
HETATM    8  N4  UNL     1      24.142  -1.075  55.025  1.00  0.00    -0.375 N 
HETATM    9  C15 UNL     1      25.465  -0.663  54.618  1.00  0.00     0.095 C 
HETATM   10  C16 UNL     1      25.936   0.309  53.818  1.00  0.00    -0.028 A 
HETATM   11  C17 UNL     1      27.395   0.086  53.920  1.00  0.00     0.087 A 
HETATM   12  C18 UNL     1      28.063   1.150  53.132  1.00  0.00     0.096 A 
HETATM   13  N5  UNL     1      27.495   2.095  52.452  1.00  0.00    -0.247 NA
HETATM   14  H20 UNL     1      24.123  -1.760  55.824  1.00  0.00     0.164 HD
ENDROOT
BRANCH   1  15
HETATM   15  N3  UNL     1      25.494   3.264  51.612  1.00  0.00    -0.364 N 
HETATM   16  H14 UNL     1      25.047   4.169  51.924  1.00  0.00     0.162 HD
BRANCH  15  17
HETATM   17  C8  UNL     1      25.607   2.925  50.199  1.00  0.00     0.215 C 
BRANCH  17  18
HETATM   18  C7  UNL     1      26.536   3.821  49.512  1.00  0.00    -0.087 C 
HETATM   19  C6  UNL     1      27.317   4.584  48.956  1.00  0.00    -0.103 C 
BRANCH  19  20
HETATM   20  C5  UNL     1      28.249   5.491  48.321  1.00  0.00     0.113 C 
BRANCH  20  21
HETATM   21  C4  UNL     1      27.992   6.940  48.480  1.00  0.00     0.129 C 
BRANCH  21  22
HETATM   22  N2  UNL     1      26.715   7.414  48.751  1.00  0.00    -0.408 N 
HETATM   23  C3  UNL     1      26.363   8.038  49.943  1.00  0.00     0.136 C 
HETATM   24  C2  UNL     1      24.897   8.111  50.252  1.00  0.00     0.135 C 
HETATM   25  N1  UNL     1      24.011   7.803  49.212  1.00  0.00    -0.414 N 
HETATM   26  C1  UNL     1      22.732   8.406  49.243  1.00  0.00     0.143 C 
HETATM   27  C20 UNL     1      24.472   7.293  47.993  1.00  0.00     0.135 C 
HETATM   28  C19 UNL     1      25.877   7.682  47.618  1.00  0.00     0.136 C 
ENDBRANCH  21  22
ENDBRANCH  20  21
ENDBRANCH  19  20
ENDBRANCH  17  18
ENDBRANCH  15  17
ENDBRANCH   1  15
TORSDOF 6
ENDMDL
MODEL 8
REMARK VINA RESULT:      -7.7      3.782      5.046
REMARK  6 active torsions:
REMARK  status: ('A' for Active; 'I' for Inactive)
REMARK    1  A    between atoms: N2_5  and  C4_6 
REMARK    2  A    between atoms: C4_6  and  C5_7 
REMARK    3  A    between atoms: C5_7  and  C6_8 
REMARK    4  A    between atoms: C7_9  and  C8_10 
REMARK    5  A    between atoms: C8_10  and  N3_11 
REMARK    6  A    between atoms: N3_11  and  C9_12 
ROOT
HETATM    1  C9  UNL     1      26.065   2.204  51.849  1.00  0.00     0.130 A 
HETATM    2  C10 UNL     1      25.006   1.516  52.298  1.00  0.00    -0.003 A 
HETATM    3  C11 UNL     1      23.761   2.145  51.802  1.00  0.00     0.067 C 
HETATM    4  C12 UNL     1      22.845   1.113  51.154  1.00  0.00     0.110 C 
HETATM    5 CL1  UNL     1      22.017   1.847  49.762  1.00  0.00    -0.120 Cl
HETATM    6  C13 UNL     1      21.774   0.703  52.121  1.00  0.00     0.010 C 
HETATM    7  C14 UNL     1      21.966  -0.005  53.221  1.00  0.00     0.085 C 
HETATM    8  N4  UNL     1      23.046  -0.632  53.936  1.00  0.00    -0.375 N 
HETATM    9  C15 UNL     1      24.477  -0.500  53.799  1.00  0.00     0.095 C 
HETATM   10  C16 UNL     1      25.278   0.359  53.143  1.00  0.00    -0.028 A 
HETATM   11  C17 UNL     1      26.616  -0.161  53.503  1.00  0.00     0.087 A 
HETATM   12  C18 UNL     1      27.622   0.747  52.900  1.00  0.00     0.096 A 
HETATM   13  N5  UNL     1      27.395   1.793  52.169  1.00  0.00    -0.247 NA
HETATM   14  H20 UNL     1      22.738  -1.303  54.686  1.00  0.00     0.164 HD
ENDROOT
BRANCH   1  15
HETATM   15  N3  UNL     1      25.867   3.353  51.027  1.00  0.00    -0.364 N 
HETATM   16  H14 UNL     1      25.397   4.272  51.250  1.00  0.00     0.162 HD
BRANCH  15  17
HETATM   17  C8  UNL     1      26.453   3.103  49.715  1.00  0.00     0.215 C 
BRANCH  17  18
HETATM   18  C7  UNL     1      27.028   4.323  49.152  1.00  0.00    -0.087 C 
HETATM   19  C6  UNL     1      27.505   5.339  48.659  1.00  0.00    -0.103 C 
BRANCH  19  20
HETATM   20  C5  UNL     1      28.055   6.534  48.056  1.00  0.00     0.113 C 
BRANCH  20  21
HETATM   21  C4  UNL     1      27.383   7.816  48.370  1.00  0.00     0.129 C 
BRANCH  21  22
HETATM   22  N2  UNL     1      28.120   8.960  48.645  1.00  0.00    -0.408 N 
HETATM   23  C3  UNL     1      27.547  10.179  48.993  1.00  0.00     0.136 C 
HETATM   24  C2  UNL     1      28.416  11.392  48.850  1.00  0.00     0.135 C 
HETATM   25  N1  UNL     1      29.785  11.175  48.650  1.00  0.00    -0.414 N 
HETATM   26  C1  UNL     1      30.678  12.176  49.096  1.00  0.00     0.143 C 
HETATM   27  C20 UNL     1      30.291   9.889  48.429  1.00  0.00     0.135 C 
HETATM   28  C19 UNL     1      29.488   8.765  49.030  1.00  0.00     0.136 C 
ENDBRANCH  21  22
ENDBRANCH  20  21
ENDBRANCH  19  20
ENDBRANCH  17  18
ENDBRANCH  15  17
ENDBRANCH   1  15
TORSDOF 6
ENDMDL
MODEL 9
REMARK VINA RESULT:      -7.6      3.283      5.108
REMARK  6 active torsions:
REMARK  status: ('A' for Active; 'I' for Inactive)
REMARK    1  A    between atoms: N2_5  and  C4_6 
REMARK    2  A    between atoms: C4_6  and  C5_7 
REMARK    3  A    between atoms: C5_7  and  C6_8 
REMARK    4  A    between atoms: C7_9  and  C8_10 
REMARK    5  A    between atoms: C8_10  and  N3_11 
REMARK    6  A    between atoms: N3_11  and  C9_12 
ROOT
HETATM    1  C9  UNL     1      24.819   1.409  53.251  1.00  0.00     0.130 A 
HETATM    2  C10 UNL     1      23.544   1.767  53.040  1.00  0.00    -0.003 A 
HETATM    3  C11 UNL     1      23.487   3.200  52.674  1.00  0.00     0.067 C 
HETATM    4  C12 UNL     1      22.665   3.410  51.407  1.00  0.00     0.110 C 
HETATM    5 CL1  UNL     1      23.390   4.715  50.440  1.00  0.00    -0.120 Cl
HETATM    6  C13 UNL     1      21.281   3.862  51.767  1.00  0.00     0.010 C 
HETATM    7  C14 UNL     1      20.364   3.120  52.363  1.00  0.00     0.085 C 
HETATM    8  N4  UNL     1      20.211   1.784  52.877  1.00  0.00    -0.375 N 
HETATM    9  C15 UNL     1      21.187   0.755  53.146  1.00  0.00     0.095 C 
HETATM   10  C16 UNL     1      22.530   0.735  53.214  1.00  0.00    -0.028 A 
HETATM   11  C17 UNL     1      22.781  -0.686  53.544  1.00  0.00     0.087 A 
HETATM   12  C18 UNL     1      24.244  -0.848  53.727  1.00  0.00     0.096 A 
HETATM   13  N5  UNL     1      25.155   0.066  53.601  1.00  0.00    -0.247 NA
HETATM   14  H20 UNL     1      19.217   1.514  53.092  1.00  0.00     0.164 HD
ENDROOT
BRANCH   1  15
HETATM   15  N3  UNL     1      25.859   2.375  53.108  1.00  0.00    -0.364 N 
HETATM   16  H14 UNL     1      26.034   3.266  53.647  1.00  0.00     0.162 HD
BRANCH  15  17
HETATM   17  C8  UNL     1      26.753   1.953  52.036  1.00  0.00     0.215 C 
BRANCH  17  18
HETATM   18  C7  UNL     1      26.738   2.907  50.929  1.00  0.00    -0.087 C 
HETATM   19  C6  UNL     1      26.717   3.722  50.013  1.00  0.00    -0.103 C 
BRANCH  19  20
HETATM   20  C5  UNL     1      26.690   4.703  48.950  1.00  0.00     0.113 C 
BRANCH  20  21
HETATM   21  C4  UNL     1      27.996   5.153  48.416  1.00  0.00     0.129 C 
BRANCH  21  22
HETATM   22  N2  UNL     1      28.371   6.488  48.477  1.00  0.00    -0.408 N 
HETATM   23  C3  UNL     1      29.665   6.935  48.234  1.00  0.00     0.136 C 
HETATM   24  C2  UNL     1      30.005   8.307  48.736  1.00  0.00     0.135 C 
HETATM   25  N1  UNL     1      28.939   9.115  49.151  1.00  0.00    -0.414 N 
HETATM   26  C1  UNL     1      29.104  10.516  49.053  1.00  0.00     0.143 C 
HETATM   27  C20 UNL     1      27.639   8.607  49.247  1.00  0.00     0.135 C 
HETATM   28  C19 UNL     1      27.323   7.456  48.329  1.00  0.00     0.136 C 
ENDBRANCH  21  22
ENDBRANCH  20  21
ENDBRANCH  19  20
ENDBRANCH  17  18
ENDBRANCH  15  17
ENDBRANCH   1  15
TORSDOF 6
ENDMDL
