MODEL 1
REMARK VINA RESULT:      -7.6      0.000      0.000
REMARK  6 active torsions:
REMARK  status: ('A' for Active; 'I' for Inactive)
REMARK    1  A    between atoms: C2_2  and  C3_3 
REMARK    2  A    between atoms: C3_3  and  C4_4 
REMARK    3  A    between atoms: C4_4  and  C5_5 
REMARK    4  A    between atoms: C8_8  and  C9_9 
REMARK       I    between atoms: C9_9  and  N1_11 
REMARK    5  A    between atoms: N1_11  and  C10_12 
REMARK    6  A    between atoms: C13_15  and  C14_16 
ROOT
HETATM    1  C9  UNL     1      22.461   0.700  52.805  1.00  0.00     0.272 C 
HETATM    2  O1  UNL     1      22.741   1.920  52.875  1.00  0.00    -0.266 OA
HETATM    3  N1  UNL     1      23.447  -0.300  52.956  1.00  0.00    -0.321 N 
HETATM    4  H8  UNL     1      23.128  -1.281  52.884  1.00  0.00     0.169 HD
ENDROOT
BRANCH   1   5
HETATM    5  C8  UNL     1      21.057   0.319  52.559  1.00  0.00     0.097 A 
HETATM    6  C7  UNL     1      20.337   0.674  51.507  1.00  0.00     0.014 A 
HETATM    7  C6  UNL     1      18.949   0.117  51.566  1.00  0.00     0.086 A 
HETATM    8  C5  UNL     1      18.972  -0.633  52.840  1.00  0.00     0.013 A 
HETATM    9  N2  UNL     1      20.260  -0.497  53.426  1.00  0.00    -0.355 N 
HETATM   10  H14 UNL     1      20.536  -0.940  54.343  1.00  0.00     0.166 HD
BRANCH   8  11
HETATM   11  C4  UNL     1      17.911  -1.310  53.310  1.00  0.00     0.033 C 
BRANCH  11  12
HETATM   12  C3  UNL     1      18.102  -2.622  53.849  1.00  0.00     0.052 C 
BRANCH  12  13
HETATM   13  C2  UNL     1      17.202  -3.563  53.610  1.00  0.00    -0.155 C 
HETATM   14  C1  UNL     1      16.495  -4.655  53.360  1.00  0.00     0.096 C 
ENDBRANCH  12  13
ENDBRANCH  11  12
ENDBRANCH   8  11
ENDBRANCH   1   5
BRANCH   3  15
HETATM   15  C10 UNL     1      24.814   0.010  53.194  1.00  0.00     0.047 C 
HETATM   16  C11 UNL     1      25.351  -0.218  54.359  1.00  0.00     0.016 C 
HETATM   17  C12 UNL     1      26.617  -0.294  54.532  1.00  0.00     0.003 C 
HETATM   18  C13 UNL     1      27.371  -0.238  53.470  1.00  0.00     0.021 C 
HETATM   19  C16 UNL     1      26.936   0.454  52.272  1.00  0.00     0.018 C 
HETATM   20  C17 UNL     1      25.613   0.587  52.119  1.00  0.00     0.031 C 
BRANCH  18  21
HETATM   21  C14 UNL     1      28.670  -0.890  53.513  1.00  0.00     0.156 C 
HETATM   22  C15 UNL     1      29.909  -0.071  53.599  1.00  0.00     0.097 C 
HETATM   23  O2  UNL     1      28.801  -2.150  53.481  1.00  0.00    -0.293 OA
ENDBRANCH  18  21
ENDBRANCH   3  15
TORSDOF 6
ENDMDL
MODEL 2
REMARK VINA RESULT:      -7.4      5.797      8.335
REMARK  6 active torsions:
REMARK  status: ('A' for Active; 'I' for Inactive)
REMARK    1  A    between atoms: C2_2  and  C3_3 
REMARK    2  A    between atoms: C3_3  and  C4_4 
REMARK    3  A    between atoms: C4_4  and  C5_5 
REMARK    4  A    between atoms: C8_8  and  C9_9 
REMARK       I    between atoms: C9_9  and  N1_11 
REMARK    5  A    between atoms: N1_11  and  C10_12 
REMARK    6  A    between atoms: C13_15  and  C14_16 
ROOT
HETATM    1  C9  UNL     1      25.487   3.648  51.029  1.00  0.00     0.272 C 
HETATM    2  O1  UNL     1      24.456   3.258  51.625  1.00  0.00    -0.266 OA
HETATM    3  N1  UNL     1      26.739   3.021  51.220  1.00  0.00    -0.321 N 
HETATM    4  H8  UNL     1      27.537   3.407  50.688  1.00  0.00     0.169 HD
ENDROOT
BRANCH   1   5
HETATM    5  C8  UNL     1      25.371   4.794  50.108  1.00  0.00     0.097 A 
HETATM    6  C7  UNL     1      24.386   4.992  49.247  1.00  0.00     0.014 A 
HETATM    7  C6  UNL     1      24.573   6.253  48.463  1.00  0.00     0.086 A 
HETATM    8  C5  UNL     1      25.845   6.769  49.010  1.00  0.00     0.013 A 
HETATM    9  N2  UNL     1      26.312   5.869  50.007  1.00  0.00    -0.355 N 
HETATM   10  H14 UNL     1      27.204   6.011  50.552  1.00  0.00     0.166 HD
BRANCH   8  11
HETATM   11  C4  UNL     1      26.414   7.911  48.588  1.00  0.00     0.033 C 
BRANCH  11  12
HETATM   12  C3  UNL     1      27.367   7.865  47.521  1.00  0.00     0.052 C 
BRANCH  12  13
HETATM   13  C2  UNL     1      28.395   7.036  47.601  1.00  0.00    -0.155 C 
HETATM   14  C1  UNL     1      29.318   6.129  47.890  1.00  0.00     0.096 C 
ENDBRANCH  12  13
ENDBRANCH  11  12
ENDBRANCH   8  11
ENDBRANCH   1   5
BRANCH   3  15
HETATM   15  C10 UNL     1      26.910   1.913  52.095  1.00  0.00     0.047 C 
HETATM   16  C11 UNL     1      26.475   0.732  51.759  1.00  0.00     0.016 C 
HETATM   17  C12 UNL     1      26.893  -0.342  52.318  1.00  0.00     0.003 C 
HETATM   18  C13 UNL     1      27.865  -0.228  53.180  1.00  0.00     0.021 C 
HETATM   19  C16 UNL     1      28.069   0.996  53.930  1.00  0.00     0.018 C 
HETATM   20  C17 UNL     1      27.578   2.112  53.376  1.00  0.00     0.031 C 
BRANCH  18  21
HETATM   21  C14 UNL     1      28.747  -1.367  53.377  1.00  0.00     0.156 C 
HETATM   22  C15 UNL     1      30.155  -1.151  53.806  1.00  0.00     0.097 C 
HETATM   23  O2  UNL     1      28.365  -2.562  53.197  1.00  0.00    -0.293 OA
ENDBRANCH  18  21
ENDBRANCH   3  15
TORSDOF 6
ENDMDL
MODEL 3
REMARK VINA RESULT:      -7.3      5.777      9.807
REMARK  6 active torsions:
REMARK  status: ('A' for Active; 'I' for Inactive)
REMARK    1  A    between atoms: C2_2  and  C3_3 
REMARK    2  A    between atoms: C3_3  and  C4_4 
REMARK    3  A    between atoms: C4_4  and  C5_5 
REMARK    4  A    between atoms: C8_8  and  C9_9 
REMARK       I    between atoms: C9_9  and  N1_11 
REMARK    5  A    between atoms: N1_11  and  C10_12 
REMARK    6  A    between atoms: C13_15  and  C14_16 
ROOT
HETATM    1  C9  UNL     1      26.159   4.002  49.718  1.00  0.00     0.272 C 
HETATM    2  O1  UNL     1      25.089   3.567  49.233  1.00  0.00    -0.266 OA
HETATM    3  N1  UNL     1      26.733   3.440  50.881  1.00  0.00    -0.321 N 
HETATM    4  H8  UNL     1      27.617   3.861  51.211  1.00  0.00     0.169 HD
ENDROOT
BRANCH   1   5
HETATM    5  C8  UNL     1      26.823   5.133  49.043  1.00  0.00     0.097 A 
HETATM    6  C7  UNL     1      26.218   6.215  48.580  1.00  0.00     0.014 A 
HETATM    7  C6  UNL     1      27.183   7.170  47.951  1.00  0.00     0.086 A 
HETATM    8  C5  UNL     1      28.470   6.464  48.122  1.00  0.00     0.013 A 
HETATM    9  N2  UNL     1      28.229   5.231  48.787  1.00  0.00    -0.355 N 
HETATM   10  H14 UNL     1      28.987   4.538  49.029  1.00  0.00     0.166 HD
BRANCH   8  11
HETATM   11  C4  UNL     1      29.641   6.963  47.694  1.00  0.00     0.033 C 
BRANCH  11  12
HETATM   12  C3  UNL     1      30.644   7.315  48.653  1.00  0.00     0.052 C 
BRANCH  12  13
HETATM   13  C2  UNL     1      30.650   8.532  49.173  1.00  0.00    -0.155 C 
HETATM   14  C1  UNL     1      30.560   9.818  49.478  1.00  0.00     0.096 C 
ENDBRANCH  12  13
ENDBRANCH  11  12
ENDBRANCH   8  11
ENDBRANCH   1   5
BRANCH   3  15
HETATM   15  C10 UNL     1      26.137   2.349  51.572  1.00  0.00     0.047 C 
HETATM   16  C11 UNL     1      26.620   1.146  51.451  1.00  0.00     0.016 C 
HETATM   17  C12 UNL     1      26.365   0.212  52.289  1.00  0.00     0.003 C 
HETATM   18  C13 UNL     1      25.677   0.532  53.350  1.00  0.00     0.021 C 
HETATM   19  C16 UNL     1      24.746   1.644  53.338  1.00  0.00     0.018 C 
HETATM   20  C17 UNL     1      24.976   2.591  52.421  1.00  0.00     0.031 C 
BRANCH  18  21
HETATM   21  C14 UNL     1      25.864  -0.259  54.555  1.00  0.00     0.156 C 
HETATM   22  C15 UNL     1      24.719  -1.011  55.136  1.00  0.00     0.097 C 
HETATM   23  O2  UNL     1      26.981  -0.341  55.149  1.00  0.00    -0.293 OA
ENDBRANCH  18  21
ENDBRANCH   3  15
TORSDOF 6
ENDMDL
MODEL 4
REMARK VINA RESULT:      -7.3      5.265      7.435
REMARK  6 active torsions:
REMARK  status: ('A' for Active; 'I' for Inactive)
REMARK    1  A    between atoms: C2_2  and  C3_3 
REMARK    2  A    between atoms: C3_3  and  C4_4 
REMARK    3  A    between atoms: C4_4  and  C5_5 
REMARK    4  A    between atoms: C8_8  and  C9_9 
REMARK       I    between atoms: C9_9  and  N1_11 
REMARK    5  A    between atoms: N1_11  and  C10_12 
REMARK    6  A    between atoms: C13_15  and  C14_16 
ROOT
HETATM    1  C9  UNL     1      25.905   2.931  51.245  1.00  0.00     0.272 C 
HETATM    2  O1  UNL     1      27.135   2.832  51.030  1.00  0.00    -0.266 OA
HETATM    3  N1  UNL     1      25.222   2.031  52.094  1.00  0.00    -0.321 N 
HETATM    4  H8  UNL     1      24.208   2.186  52.215  1.00  0.00     0.169 HD
ENDROOT
BRANCH   1   5
HETATM    5  C8  UNL     1      25.166   4.023  50.584  1.00  0.00     0.097 A 
HETATM    6  C7  UNL     1      24.748   4.020  49.329  1.00  0.00     0.014 A 
HETATM    7  C6  UNL     1      24.030   5.284  48.974  1.00  0.00     0.086 A 
HETATM    8  C5  UNL     1      24.095   6.040  50.243  1.00  0.00     0.013 A 
HETATM    9  N2  UNL     1      24.788   5.257  51.206  1.00  0.00    -0.355 N 
HETATM   10  H14 UNL     1      24.969   5.572  52.196  1.00  0.00     0.166 HD
BRANCH   8  11
HETATM   11  C4  UNL     1      23.565   7.266  50.392  1.00  0.00     0.033 C 
BRANCH  11  12
HETATM   12  C3  UNL     1      24.214   8.388  49.784  1.00  0.00     0.052 C 
BRANCH  12  13
HETATM   13  C2  UNL     1      25.482   8.639  50.067  1.00  0.00    -0.155 C 
HETATM   14  C1  UNL     1      26.772   8.942  50.109  1.00  0.00     0.096 C 
ENDBRANCH  12  13
ENDBRANCH  11  12
ENDBRANCH   8  11
ENDBRANCH   1   5
BRANCH   3  15
HETATM   15  C10 UNL     1      25.884   0.960  52.756  1.00  0.00     0.047 C 
HETATM   16  C11 UNL     1      25.973  -0.211  52.193  1.00  0.00     0.016 C 
HETATM   17  C12 UNL     1      26.831  -1.089  52.560  1.00  0.00     0.003 C 
HETATM   18  C13 UNL     1      27.701  -0.734  53.464  1.00  0.00     0.021 C 
HETATM   19  C16 UNL     1      27.404   0.303  54.432  1.00  0.00     0.018 C 
HETATM   20  C17 UNL     1      26.463   1.187  54.076  1.00  0.00     0.031 C 
BRANCH  18  21
HETATM   21  C14 UNL     1      28.990  -1.408  53.479  1.00  0.00     0.156 C 
HETATM   22  C15 UNL     1      30.244  -0.611  53.558  1.00  0.00     0.097 C 
HETATM   23  O2  UNL     1      29.099  -2.669  53.428  1.00  0.00    -0.293 OA
ENDBRANCH  18  21
ENDBRANCH   3  15
TORSDOF 6
ENDMDL
MODEL 5
REMARK VINA RESULT:      -7.1      4.982      6.225
REMARK  6 active torsions:
REMARK  status: ('A' for Active; 'I' for Inactive)
REMARK    1  A    between atoms: C2_2  and  C3_3 
REMARK    2  A    between atoms: C3_3  and  C4_4 
REMARK    3  A    between atoms: C4_4  and  C5_5 
REMARK    4  A    between atoms: C8_8  and  C9_9 
REMARK       I    between atoms: C9_9  and  N1_11 
REMARK    5  A    between atoms: N1_11  and  C10_12 
REMARK    6  A    between atoms: C13_15  and  C14_16 
ROOT
HETATM    1  C9  UNL     1      25.902   2.986  51.279  1.00  0.00     0.272 C 
HETATM    2  O1  UNL     1      27.112   2.821  50.999  1.00  0.00    -0.266 OA
HETATM    3  N1  UNL     1      25.216   2.118  52.158  1.00  0.00    -0.321 N 
HETATM    4  H8  UNL     1      24.219   2.328  52.333  1.00  0.00     0.169 HD
ENDROOT
BRANCH   1   5
HETATM    5  C8  UNL     1      25.191   4.122  50.663  1.00  0.00     0.097 A 
HETATM    6  C7  UNL     1      25.035   4.320  49.364  1.00  0.00     0.014 A 
HETATM    7  C6  UNL     1      24.264   5.570  49.077  1.00  0.00     0.086 A 
HETATM    8  C5  UNL     1      23.989   6.081  50.436  1.00  0.00     0.013 A 
HETATM    9  N2  UNL     1      24.560   5.188  51.383  1.00  0.00    -0.355 N 
HETATM   10  H14 UNL     1      24.503   5.327  52.428  1.00  0.00     0.166 HD
BRANCH   8  11
HETATM   11  C4  UNL     1      23.305   7.214  50.667  1.00  0.00     0.033 C 
BRANCH  11  12
HETATM   12  C3  UNL     1      21.893   7.239  50.430  1.00  0.00     0.052 C 
BRANCH  12  13
HETATM   13  C2  UNL     1      21.174   6.151  50.655  1.00  0.00    -0.155 C 
HETATM   14  C1  UNL     1      20.525   4.996  50.654  1.00  0.00     0.096 C 
ENDBRANCH  12  13
ENDBRANCH  11  12
ENDBRANCH   8  11
ENDBRANCH   1   5
BRANCH   3  15
HETATM   15  C10 UNL     1      25.851   1.007  52.779  1.00  0.00     0.047 C 
HETATM   16  C11 UNL     1      25.934  -0.137  52.163  1.00  0.00     0.016 C 
HETATM   17  C12 UNL     1      26.773  -1.043  52.502  1.00  0.00     0.003 C 
HETATM   18  C13 UNL     1      27.633  -0.745  53.435  1.00  0.00     0.021 C 
HETATM   19  C16 UNL     1      27.333   0.250  54.447  1.00  0.00     0.018 C 
HETATM   20  C17 UNL     1      26.411   1.163  54.117  1.00  0.00     0.031 C 
BRANCH  18  21
HETATM   21  C14 UNL     1      28.911  -1.438  53.440  1.00  0.00     0.156 C 
HETATM   22  C15 UNL     1      30.178  -0.659  53.486  1.00  0.00     0.097 C 
HETATM   23  O2  UNL     1      29.001  -2.701  53.406  1.00  0.00    -0.293 OA
ENDBRANCH  18  21
ENDBRANCH   3  15
TORSDOF 6
ENDMDL
MODEL 6
REMARK VINA RESULT:      -7.1      5.462      8.204
REMARK  6 active torsions:
REMARK  status: ('A' for Active; 'I' for Inactive)
REMARK    1  A    between atoms: C2_2  and  C3_3 
REMARK    2  A    between atoms: C3_3  and  C4_4 
REMARK    3  A    between atoms: C4_4  and  C5_5 
REMARK    4  A    between atoms: C8_8  and  C9_9 
REMARK       I    between atoms: C9_9  and  N1_11 
REMARK    5  A    between atoms: N1_11  and  C10_12 
REMARK    6  A    between atoms: C13_15  and  C14_16 
ROOT
HETATM    1  C9  UNL     1      25.194   3.083  50.321  1.00  0.00     0.272 C 
HETATM    2  O1  UNL     1      24.404   3.166  49.353  1.00  0.00    -0.266 OA
HETATM    3  N1  UNL     1      26.268   3.987  50.486  1.00  0.00    -0.321 N 
HETATM    4  H8  UNL     1      26.870   3.846  51.313  1.00  0.00     0.169 HD
ENDROOT
BRANCH   1   5
HETATM    5  C8  UNL     1      24.983   2.006  51.306  1.00  0.00     0.097 A 
HETATM    6  C7  UNL     1      23.826   1.690  51.864  1.00  0.00     0.014 A 
HETATM    7  C6  UNL     1      23.959   0.547  52.821  1.00  0.00     0.086 A 
HETATM    8  C5  UNL     1      25.401   0.238  52.731  1.00  0.00     0.013 A 
HETATM    9  N2  UNL     1      26.004   1.134  51.806  1.00  0.00    -0.355 N 
HETATM   10  H14 UNL     1      27.030   1.122  51.563  1.00  0.00     0.166 HD
BRANCH   8  11
HETATM   11  C4  UNL     1      25.985  -0.744  53.438  1.00  0.00     0.033 C 
BRANCH  11  12
HETATM   12  C3  UNL     1      27.071  -1.474  52.857  1.00  0.00     0.052 C 
BRANCH  12  13
HETATM   13  C2  UNL     1      28.315  -1.155  53.177  1.00  0.00    -0.155 C 
HETATM   14  C1  UNL     1      29.580  -1.072  53.564  1.00  0.00     0.096 C 
ENDBRANCH  12  13
ENDBRANCH  11  12
ENDBRANCH   8  11
ENDBRANCH   1   5
BRANCH   3  15
HETATM   15  C10 UNL     1      26.519   5.045  49.568  1.00  0.00     0.047 C 
HETATM   16  C11 UNL     1      25.760   6.103  49.555  1.00  0.00     0.016 C 
HETATM   17  C12 UNL     1      26.127   7.208  49.021  1.00  0.00     0.003 C 
HETATM   18  C13 UNL     1      27.348   7.280  48.572  1.00  0.00     0.021 C 
HETATM   19  C16 UNL     1      28.060   6.096  48.129  1.00  0.00     0.018 C 
HETATM   20  C17 UNL     1      27.638   4.932  48.639  1.00  0.00     0.031 C 
BRANCH  18  21
HETATM   21  C14 UNL     1      27.988   8.584  48.524  1.00  0.00     0.156 C 
HETATM   22  C15 UNL     1      28.094   9.406  49.760  1.00  0.00     0.097 C 
HETATM   23  O2  UNL     1      28.472   9.066  47.456  1.00  0.00    -0.293 OA
ENDBRANCH  18  21
ENDBRANCH   3  15
TORSDOF 6
ENDMDL
MODEL 7
REMARK VINA RESULT:      -7.0      5.260      9.637
REMARK  6 active torsions:
REMARK  status: ('A' for Active; 'I' for Inactive)
REMARK    1  A    between atoms: C2_2  and  C3_3 
REMARK    2  A    between atoms: C3_3  and  C4_4 
REMARK    3  A    between atoms: C4_4  and  C5_5 
REMARK    4  A    between atoms: C8_8  and  C9_9 
REMARK       I    between atoms: C9_9  and  N1_11 
REMARK    5  A    between atoms: N1_11  and  C10_12 
REMARK    6  A    between atoms: C13_15  and  C14_16 
ROOT
HETATM    1  C9  UNL     1      25.785   3.991  49.957  1.00  0.00     0.272 C 
HETATM    2  O1  UNL     1      24.729   3.549  49.447  1.00  0.00    -0.266 OA
HETATM    3  N1  UNL     1      26.251   3.542  51.213  1.00  0.00    -0.321 N 
HETATM    4  H8  UNL     1      27.131   3.960  51.558  1.00  0.00     0.169 HD
ENDROOT
BRANCH   1   5
HETATM    5  C8  UNL     1      26.549   5.008  49.210  1.00  0.00     0.097 A 
HETATM    6  C7  UNL     1      26.049   6.117  48.691  1.00  0.00     0.014 A 
HETATM    7  C6  UNL     1      27.095   6.931  47.996  1.00  0.00     0.086 A 
HETATM    8  C5  UNL     1      28.307   6.108  48.195  1.00  0.00     0.013 A 
HETATM    9  N2  UNL     1      27.953   4.946  48.934  1.00  0.00    -0.355 N 
HETATM   10  H14 UNL     1      28.641   4.195  49.208  1.00  0.00     0.166 HD
BRANCH   8  11
HETATM   11  C4  UNL     1      29.515   6.460  47.726  1.00  0.00     0.033 C 
BRANCH  11  12
HETATM   12  C3  UNL     1      30.689   5.909  48.333  1.00  0.00     0.052 C 
BRANCH  12  13
HETATM   13  C2  UNL     1      31.322   4.910  47.739  1.00  0.00    -0.155 C 
HETATM   14  C1  UNL     1      31.867   4.007  46.936  1.00  0.00     0.096 C 
ENDBRANCH  12  13
ENDBRANCH  11  12
ENDBRANCH   8  11
ENDBRANCH   1   5
BRANCH   3  15
HETATM   15  C10 UNL     1      25.555   2.564  51.977  1.00  0.00     0.047 C 
HETATM   16  C11 UNL     1      24.487   2.886  52.648  1.00  0.00     0.016 C 
HETATM   17  C12 UNL     1      23.639   2.016  53.053  1.00  0.00     0.003 C 
HETATM   18  C13 UNL     1      23.823   0.781  52.679  1.00  0.00     0.021 C 
HETATM   19  C16 UNL     1      25.146   0.276  52.366  1.00  0.00     0.018 C 
HETATM   20  C17 UNL     1      26.052   1.192  52.001  1.00  0.00     0.031 C 
BRANCH  18  21
HETATM   21  C14 UNL     1      22.662  -0.089  52.582  1.00  0.00     0.156 C 
HETATM   22  C15 UNL     1      21.563   0.241  51.635  1.00  0.00     0.097 C 
HETATM   23  O2  UNL     1      22.538  -1.139  53.282  1.00  0.00    -0.293 OA
ENDBRANCH  18  21
ENDBRANCH   3  15
TORSDOF 6
ENDMDL
MODEL 8
REMARK VINA RESULT:      -6.8      2.042      3.211
REMARK  6 active torsions:
REMARK  status: ('A' for Active; 'I' for Inactive)
REMARK    1  A    between atoms: C2_2  and  C3_3 
REMARK    2  A    between atoms: C3_3  and  C4_4 
REMARK    3  A    between atoms: C4_4  and  C5_5 
REMARK    4  A    between atoms: C8_8  and  C9_9 
REMARK       I    between atoms: C9_9  and  N1_11 
REMARK    5  A    between atoms: N1_11  and  C10_12 
REMARK    6  A    between atoms: C13_15  and  C14_16 
ROOT
HETATM    1  C9  UNL     1      23.135   0.354  52.934  1.00  0.00     0.272 C 
HETATM    2  O1  UNL     1      23.675   1.480  52.828  1.00  0.00    -0.266 OA
HETATM    3  N1  UNL     1      23.864  -0.788  53.334  1.00  0.00    -0.321 N 
HETATM    4  H8  UNL     1      23.339  -1.676  53.395  1.00  0.00     0.169 HD
ENDROOT
BRANCH   1   5
HETATM    5  C8  UNL     1      21.696   0.238  52.629  1.00  0.00     0.097 A 
HETATM    6  C7  UNL     1      20.778  -0.271  53.434  1.00  0.00     0.014 A 
HETATM    7  C6  UNL     1      19.414  -0.239  52.818  1.00  0.00     0.086 A 
HETATM    8  C5  UNL     1      19.685   0.379  51.503  1.00  0.00     0.013 A 
HETATM    9  N2  UNL     1      21.076   0.661  51.409  1.00  0.00    -0.355 N 
HETATM   10  H14 UNL     1      21.527   1.106  50.566  1.00  0.00     0.166 HD
BRANCH   8  11
HETATM   11  C4  UNL     1      18.726   0.609  50.590  1.00  0.00     0.033 C 
BRANCH  11  12
HETATM   12  C3  UNL     1      17.498   1.218  51.004  1.00  0.00     0.052 C 
BRANCH  12  13
HETATM   13  C2  UNL     1      17.474   2.511  51.284  1.00  0.00    -0.155 C 
HETATM   14  C1  UNL     1      17.205   3.783  51.541  1.00  0.00     0.096 C 
ENDBRANCH  12  13
ENDBRANCH  11  12
ENDBRANCH   8  11
ENDBRANCH   1   5
BRANCH   3  15
HETATM   15  C10 UNL     1      25.252  -0.734  53.640  1.00  0.00     0.047 C 
HETATM   16  C11 UNL     1      26.141  -1.065  52.747  1.00  0.00     0.016 C 
HETATM   17  C12 UNL     1      27.369  -0.714  52.832  1.00  0.00     0.003 C 
HETATM   18  C13 UNL     1      27.695   0.090  53.805  1.00  0.00     0.021 C 
HETATM   19  C16 UNL     1      26.941   0.122  55.043  1.00  0.00     0.018 C 
HETATM   20  C17 UNL     1      25.673  -0.303  54.969  1.00  0.00     0.031 C 
BRANCH  18  21
HETATM   21  C14 UNL     1      28.844   0.963  53.621  1.00  0.00     0.156 C 
HETATM   22  C15 UNL     1      28.656   2.438  53.575  1.00  0.00     0.097 C 
HETATM   23  O2  UNL     1      30.024   0.517  53.495  1.00  0.00    -0.293 OA
ENDBRANCH  18  21
ENDBRANCH   3  15
TORSDOF 6
ENDMDL
MODEL 9
REMARK VINA RESULT:      -6.6      5.204      9.728
REMARK  6 active torsions:
REMARK  status: ('A' for Active; 'I' for Inactive)
REMARK    1  A    between atoms: C2_2  and  C3_3 
REMARK    2  A    between atoms: C3_3  and  C4_4 
REMARK    3  A    between atoms: C4_4  and  C5_5 
REMARK    4  A    between atoms: C8_8  and  C9_9 
REMARK       I    between atoms: C9_9  and  N1_11 
REMARK    5  A    between atoms: N1_11  and  C10_12 
REMARK    6  A    between atoms: C13_15  and  C14_16 
ROOT
HETATM    1  C9  UNL     1      25.689   3.260  50.056  1.00  0.00     0.272 C 
HETATM    2  O1  UNL     1      26.462   2.278  50.155  1.00  0.00    -0.266 OA
HETATM    3  N1  UNL     1      24.365   3.217  50.546  1.00  0.00    -0.321 N 
HETATM    4  H8  UNL     1      23.797   4.072  50.423  1.00  0.00     0.169 HD
ENDROOT
BRANCH   1   5
HETATM    5  C8  UNL     1      26.194   4.484  49.407  1.00  0.00     0.097 A 
HETATM    6  C7  UNL     1      25.465   5.539  49.083  1.00  0.00     0.014 A 
HETATM    7  C6  UNL     1      26.287   6.611  48.438  1.00  0.00     0.086 A 
HETATM    8  C5  UNL     1      27.635   6.005  48.436  1.00  0.00     0.013 A 
HETATM    9  N2  UNL     1      27.556   4.715  49.029  1.00  0.00    -0.355 N 
HETATM   10  H14 UNL     1      28.386   4.074  49.148  1.00  0.00     0.166 HD
BRANCH   8  11
HETATM   11  C4  UNL     1      28.717   6.627  47.938  1.00  0.00     0.033 C 
BRANCH  11  12
HETATM   12  C3  UNL     1      30.021   6.164  48.305  1.00  0.00     0.052 C 
BRANCH  12  13
HETATM   13  C2  UNL     1      30.916   7.028  48.758  1.00  0.00    -0.155 C 
HETATM   14  C1  UNL     1      31.788   7.770  49.425  1.00  0.00     0.096 C 
ENDBRANCH  12  13
ENDBRANCH  11  12
ENDBRANCH   8  11
ENDBRANCH   1   5
BRANCH   3  15
HETATM   15  C10 UNL     1      23.826   2.064  51.181  1.00  0.00     0.047 C 
HETATM   16  C11 UNL     1      24.384   1.576  52.252  1.00  0.00     0.016 C 
HETATM   17  C12 UNL     1      23.770   0.784  53.050  1.00  0.00     0.003 C 
HETATM   18  C13 UNL     1      22.509   0.555  52.813  1.00  0.00     0.021 C 
HETATM   19  C16 UNL     1      21.963   0.651  51.473  1.00  0.00     0.018 C 
HETATM   20  C17 UNL     1      22.637   1.430  50.619  1.00  0.00     0.031 C 
BRANCH  18  21
HETATM   21  C14 UNL     1      21.653   0.197  53.933  1.00  0.00     0.156 C 
HETATM   22  C15 UNL     1      22.066  -0.884  54.868  1.00  0.00     0.097 C 
HETATM   23  O2  UNL     1      20.547   0.774  54.156  1.00  0.00    -0.293 OA
ENDBRANCH  18  21
ENDBRANCH   3  15
TORSDOF 6
ENDMDL
