MODEL 1
REMARK VINA RESULT:      -8.4      0.000      0.000
REMARK  8 active torsions:
REMARK  status: ('A' for Active; 'I' for Inactive)
REMARK    1  A    between atoms: O1_2  and  C2_3 
REMARK    2  A    between atoms: C6_9  and  N3_10 
REMARK    3  A    between atoms: N3_10  and  C7_11 
REMARK    4  A    between atoms: C15_21  and  O2_22 
REMARK    5  A    between atoms: O2_22  and  C16_23 
REMARK    6  A    between atoms: C16_23  and  C17_24 
REMARK    7  A    between atoms: C17_24  and  C18_25 
REMARK    8  A    between atoms: C18_25  and  N4_26 
ROOT
HETATM    1  C2  UNL     1      20.019  -0.070  52.621  1.00  0.00     0.103 A 
HETATM    2  C3  UNL     1      20.339  -0.708  53.806  1.00  0.00     0.072 A 
HETATM    3  C4  UNL     1      21.664  -0.870  54.184  1.00  0.00     0.075 A 
HETATM    4  N1  UNL     1      22.048  -1.484  55.332  1.00  0.00    -0.241 NA
HETATM    5  C5  UNL     1      23.353  -1.608  55.640  1.00  0.00     0.236 A 
HETATM    6  N2  UNL     1      24.291  -1.132  54.823  1.00  0.00    -0.224 NA
HETATM    7  C6  UNL     1      24.003  -0.507  53.661  1.00  0.00     0.142 A 
HETATM    8  C13 UNL     1      22.665  -0.390  53.362  1.00  0.00     0.042 A 
HETATM    9  C14 UNL     1      22.335   0.243  52.186  1.00  0.00     0.057 A 
HETATM   10  C15 UNL     1      21.025   0.414  51.794  1.00  0.00     0.103 A 
ENDROOT
BRANCH   7  11
HETATM   11  N3  UNL     1      25.078  -0.033  52.863  1.00  0.00    -0.340 N 
HETATM   12  H6  UNL     1      24.777   0.519  52.040  1.00  0.00     0.167 HD
BRANCH  11  13
HETATM   13  C7  UNL     1      26.472  -0.249  53.100  1.00  0.00     0.035 A 
HETATM   14  C8  UNL     1      27.117  -1.442  52.814  1.00  0.00     0.032 A 
HETATM   15  C9  UNL     1      28.464  -1.545  53.080  1.00  0.00     0.046 A 
HETATM   16  C10 UNL     1      29.210  -0.516  53.618  1.00  0.00     0.138 A 
HETATM   17  F1  UNL     1      30.524  -0.740  53.833  1.00  0.00    -0.204 F 
HETATM   18  C11 UNL     1      28.575   0.664  53.901  1.00  0.00     0.074 A 
HETATM   19 CL1  UNL     1      29.491   1.986  54.583  1.00  0.00    -0.081 Cl
HETATM   20  C12 UNL     1      27.218   0.777  53.637  1.00  0.00     0.056 A 
ENDBRANCH  11  13
ENDBRANCH   7  11
BRANCH  10  21
HETATM   21  O2  UNL     1      20.540   1.023  50.650  1.00  0.00    -0.348 OA
BRANCH  21  22
HETATM   22  C16 UNL     1      20.395   2.412  50.550  1.00  0.00     0.177 C 
BRANCH  22  23
HETATM   23  C17 UNL     1      21.360   2.978  49.506  1.00  0.00     0.057 C 
BRANCH  23  24
HETATM   24  C18 UNL     1      21.883   4.320  49.929  1.00  0.00     0.274 C 
BRANCH  24  25
HETATM   25  N4  UNL     1      23.150   4.275  50.583  1.00  0.00     0.092 N 
HETATM   26  C19 UNL     1      23.929   3.108  50.217  1.00  0.00     0.298 C 
HETATM   27  C20 UNL     1      25.220   3.132  50.988  1.00  0.00     0.198 C 
HETATM   28  O3  UNL     1      24.917   2.857  52.296  1.00  0.00    -0.388 OA
HETATM   29  C21 UNL     1      23.851   3.504  52.839  1.00  0.00     0.198 C 
HETATM   30  C22 UNL     1      23.125   4.490  52.005  1.00  0.00     0.298 C 
ENDBRANCH  24  25
ENDBRANCH  23  24
ENDBRANCH  22  23
ENDBRANCH  21  22
ENDBRANCH  10  21
BRANCH   1  31
HETATM   31  O1  UNL     1      18.667   0.046  52.328  1.00  0.00    -0.353 OA
HETATM   32  C1  UNL     1      17.774  -0.954  52.773  1.00  0.00     0.210 C 
ENDBRANCH   1  31
TORSDOF 8
ENDMDL
MODEL 2
REMARK VINA RESULT:      -7.6      2.140      2.640
REMARK  8 active torsions:
REMARK  status: ('A' for Active; 'I' for Inactive)
REMARK    1  A    between atoms: O1_2  and  C2_3 
REMARK    2  A    between atoms: C6_9  and  N3_10 
REMARK    3  A    between atoms: N3_10  and  C7_11 
REMARK    4  A    between atoms: C15_21  and  O2_22 
REMARK    5  A    between atoms: O2_22  and  C16_23 
REMARK    6  A    between atoms: C16_23  and  C17_24 
REMARK    7  A    between atoms: C17_24  and  C18_25 
REMARK    8  A    between atoms: C18_25  and  N4_26 
ROOT
HETATM    1  C2  UNL     1      20.477   2.858  52.298  1.00  0.00     0.103 A 
HETATM    2  C3  UNL     1      20.393   1.681  53.020  1.00  0.00     0.072 A 
HETATM    3  C4  UNL     1      21.516   0.890  53.212  1.00  0.00     0.075 A 
HETATM    4  N1  UNL     1      21.504  -0.275  53.908  1.00  0.00    -0.241 NA
HETATM    5  C5  UNL     1      22.631  -0.996  54.059  1.00  0.00     0.236 A 
HETATM    6  N2  UNL     1      23.779  -0.579  53.525  1.00  0.00    -0.224 NA
HETATM    7  C6  UNL     1      23.885   0.565  52.816  1.00  0.00     0.142 A 
HETATM    8  C13 UNL     1      22.723   1.289  52.672  1.00  0.00     0.042 A 
HETATM    9  C14 UNL     1      22.796   2.461  51.956  1.00  0.00     0.057 A 
HETATM   10  C15 UNL     1      21.692   3.261  51.755  1.00  0.00     0.103 A 
ENDROOT
BRANCH   7  11
HETATM   11  N3  UNL     1      25.157   0.921  52.291  1.00  0.00    -0.340 N 
HETATM   12  H6  UNL     1      25.113   1.609  51.519  1.00  0.00     0.167 HD
BRANCH  11  13
HETATM   13  C7  UNL     1      26.425   0.424  52.727  1.00  0.00     0.035 A 
HETATM   14  C8  UNL     1      26.838  -0.885  52.533  1.00  0.00     0.032 A 
HETATM   15  C9  UNL     1      28.081  -1.260  52.992  1.00  0.00     0.046 A 
HETATM   16  C10 UNL     1      28.942  -0.397  53.638  1.00  0.00     0.138 A 
HETATM   17  F1  UNL     1      30.135  -0.884  54.041  1.00  0.00    -0.204 F 
HETATM   18  C11 UNL     1      28.536   0.897  53.831  1.00  0.00     0.074 A 
HETATM   19 CL1  UNL     1      29.602   2.016  54.646  1.00  0.00    -0.081 Cl
HETATM   20  C12 UNL     1      27.286   1.284  53.372  1.00  0.00     0.056 A 
ENDBRANCH  11  13
ENDBRANCH   7  11
BRANCH  10  21
HETATM   21  O2  UNL     1      21.607   4.456  51.065  1.00  0.00    -0.348 OA
BRANCH  21  22
HETATM   22  C16 UNL     1      21.253   4.512  49.711  1.00  0.00     0.177 C 
BRANCH  22  23
HETATM   23  C17 UNL     1      22.383   5.129  48.885  1.00  0.00     0.057 C 
BRANCH  23  24
HETATM   24  C18 UNL     1      23.609   4.263  48.920  1.00  0.00     0.274 C 
BRANCH  24  25
HETATM   25  N4  UNL     1      24.783   4.929  49.382  1.00  0.00     0.092 N 
HETATM   26  C19 UNL     1      25.035   6.173  48.680  1.00  0.00     0.298 C 
HETATM   27  C20 UNL     1      26.309   6.772  49.209  1.00  0.00     0.198 C 
HETATM   28  O3  UNL     1      27.342   5.992  48.759  1.00  0.00    -0.388 OA
HETATM   29  C21 UNL     1      27.195   4.644  48.858  1.00  0.00     0.198 C 
HETATM   30  C22 UNL     1      25.963   4.113  49.486  1.00  0.00     0.298 C 
ENDBRANCH  24  25
ENDBRANCH  23  24
ENDBRANCH  22  23
ENDBRANCH  21  22
ENDBRANCH  10  21
BRANCH   1  31
HETATM   31  O1  UNL     1      19.302   3.583  52.159  1.00  0.00    -0.353 OA
HETATM   32  C1  UNL     1      18.179   2.973  51.555  1.00  0.00     0.210 C 
ENDBRANCH   1  31
TORSDOF 8
ENDMDL
MODEL 3
REMARK VINA RESULT:      -7.6      2.965      5.873
REMARK  8 active torsions:
REMARK  status: ('A' for Active; 'I' for Inactive)
REMARK    1  A    between atoms: O1_2  and  C2_3 
REMARK    2  A    between atoms: C6_9  and  N3_10 
REMARK    3  A    between atoms: N3_10  and  C7_11 
REMARK    4  A    between atoms: C15_21  and  O2_22 
REMARK    5  A    between atoms: O2_22  and  C16_23 
REMARK    6  A    between atoms: C16_23  and  C17_24 
REMARK    7  A    between atoms: C17_24  and  C18_25 
REMARK    8  A    between atoms: C18_25  and  N4_26 
ROOT
HETATM    1  C2  UNL     1      21.125   0.896  52.711  1.00  0.00     0.103 A 
HETATM    2  C3  UNL     1      20.286   1.623  51.886  1.00  0.00     0.072 A 
HETATM    3  C4  UNL     1      20.707   2.826  51.335  1.00  0.00     0.075 A 
HETATM    4  N1  UNL     1      19.936   3.588  50.519  1.00  0.00    -0.241 NA
HETATM    5  C5  UNL     1      20.406   4.746  50.017  1.00  0.00     0.236 A 
HETATM    6  N2  UNL     1      21.636   5.165  50.314  1.00  0.00    -0.224 NA
HETATM    7  C6  UNL     1      22.472   4.473  51.117  1.00  0.00     0.142 A 
HETATM    8  C13 UNL     1      21.975   3.292  51.621  1.00  0.00     0.042 A 
HETATM    9  C14 UNL     1      22.802   2.561  52.443  1.00  0.00     0.057 A 
HETATM   10  C15 UNL     1      22.402   1.365  52.998  1.00  0.00     0.103 A 
ENDROOT
BRANCH   7  11
HETATM   11  N3  UNL     1      23.765   5.006  51.368  1.00  0.00    -0.340 N 
HETATM   12  H6  UNL     1      23.835   5.534  52.256  1.00  0.00     0.167 HD
BRANCH  11  13
HETATM   13  C7  UNL     1      24.916   4.873  50.530  1.00  0.00     0.035 A 
HETATM   14  C8  UNL     1      25.554   3.664  50.298  1.00  0.00     0.032 A 
HETATM   15  C9  UNL     1      26.655   3.646  49.471  1.00  0.00     0.046 A 
HETATM   16  C10 UNL     1      27.158   4.775  48.856  1.00  0.00     0.138 A 
HETATM   17  F1  UNL     1      28.244   4.628  48.068  1.00  0.00    -0.204 F 
HETATM   18  C11 UNL     1      26.529   5.969  49.084  1.00  0.00     0.074 A 
HETATM   19 CL1  UNL     1      27.142   7.418  48.321  1.00  0.00    -0.081 Cl
HETATM   20  C12 UNL     1      25.420   5.998  49.915  1.00  0.00     0.056 A 
ENDBRANCH  11  13
ENDBRANCH   7  11
BRANCH  10  21
HETATM   21  O2  UNL     1      23.112   0.523  53.836  1.00  0.00    -0.348 OA
BRANCH  21  22
HETATM   22  C16 UNL     1      23.832  -0.576  53.352  1.00  0.00     0.177 C 
BRANCH  22  23
HETATM   23  C17 UNL     1      25.300  -0.482  53.771  1.00  0.00     0.057 C 
BRANCH  23  24
HETATM   24  C18 UNL     1      26.195  -0.356  52.572  1.00  0.00     0.274 C 
BRANCH  24  25
HETATM   25  N4  UNL     1      27.464   0.235  52.848  1.00  0.00     0.092 N 
HETATM   26  C19 UNL     1      28.001  -0.165  54.135  1.00  0.00     0.298 C 
HETATM   27  C20 UNL     1      29.311   0.541  54.347  1.00  0.00     0.198 C 
HETATM   28  O3  UNL     1      29.028   1.863  54.570  1.00  0.00    -0.388 OA
HETATM   29  C21 UNL     1      28.125   2.456  53.745  1.00  0.00     0.198 C 
HETATM   30  C22 UNL     1      27.548   1.656  52.640  1.00  0.00     0.298 C 
ENDBRANCH  24  25
ENDBRANCH  23  24
ENDBRANCH  22  23
ENDBRANCH  21  22
ENDBRANCH  10  21
BRANCH   1  31
HETATM   31  O1  UNL     1      20.618  -0.294  53.213  1.00  0.00    -0.353 OA
HETATM   32  C1  UNL     1      19.232  -0.553  53.112  1.00  0.00     0.210 C 
ENDBRANCH   1  31
TORSDOF 8
ENDMDL
MODEL 4
REMARK VINA RESULT:      -7.4      2.270      5.515
REMARK  8 active torsions:
REMARK  status: ('A' for Active; 'I' for Inactive)
REMARK    1  A    between atoms: O1_2  and  C2_3 
REMARK    2  A    between atoms: C6_9  and  N3_10 
REMARK    3  A    between atoms: N3_10  and  C7_11 
REMARK    4  A    between atoms: C15_21  and  O2_22 
REMARK    5  A    between atoms: O2_22  and  C16_23 
REMARK    6  A    between atoms: C16_23  and  C17_24 
REMARK    7  A    between atoms: C17_24  and  C18_25 
REMARK    8  A    between atoms: C18_25  and  N4_26 
ROOT
HETATM    1  C2  UNL     1      22.124   2.075  50.897  1.00  0.00     0.103 A 
HETATM    2  C3  UNL     1      22.904   2.647  49.908  1.00  0.00     0.072 A 
HETATM    3  C4  UNL     1      24.253   2.890  50.126  1.00  0.00     0.075 A 
HETATM    4  N1  UNL     1      25.075   3.447  49.201  1.00  0.00    -0.241 NA
HETATM    5  C5  UNL     1      26.376   3.655  49.476  1.00  0.00     0.236 A 
HETATM    6  N2  UNL     1      26.881   3.319  50.663  1.00  0.00    -0.224 NA
HETATM    7  C6  UNL     1      26.139   2.761  51.643  1.00  0.00     0.142 A 
HETATM    8  C13 UNL     1      24.812   2.556  51.344  1.00  0.00     0.042 A 
HETATM    9  C14 UNL     1      24.027   1.988  52.321  1.00  0.00     0.057 A 
HETATM   10  C15 UNL     1      22.686   1.738  52.124  1.00  0.00     0.103 A 
ENDROOT
BRANCH   7  11
HETATM   11  N3  UNL     1      26.775   2.437  52.872  1.00  0.00    -0.340 N 
HETATM   12  H6  UNL     1      26.563   3.099  53.640  1.00  0.00     0.167 HD
BRANCH  11  13
HETATM   13  C7  UNL     1      27.639   1.324  53.114  1.00  0.00     0.035 A 
HETATM   14  C8  UNL     1      28.906   1.447  53.662  1.00  0.00     0.032 A 
HETATM   15  C9  UNL     1      29.657   0.309  53.855  1.00  0.00     0.046 A 
HETATM   16  C10 UNL     1      29.211  -0.956  53.529  1.00  0.00     0.138 A 
HETATM   17  F1  UNL     1      30.041  -1.993  53.765  1.00  0.00    -0.204 F 
HETATM   18  C11 UNL     1      27.960  -1.080  52.986  1.00  0.00     0.074 A 
HETATM   19 CL1  UNL     1      27.366  -2.668  52.561  1.00  0.00    -0.081 Cl
HETATM   20  C12 UNL     1      27.196   0.061  52.789  1.00  0.00     0.056 A 
ENDBRANCH  11  13
ENDBRANCH   7  11
BRANCH  10  21
HETATM   21  O2  UNL     1      21.774   1.178  53.001  1.00  0.00    -0.348 OA
BRANCH  21  22
HETATM   22  C16 UNL     1      21.894  -0.140  53.459  1.00  0.00     0.177 C 
BRANCH  22  23
HETATM   23  C17 UNL     1      20.515  -0.728  53.766  1.00  0.00     0.057 C 
BRANCH  23  24
HETATM   24  C18 UNL     1      19.424   0.136  53.202  1.00  0.00     0.274 C 
BRANCH  24  25
HETATM   25  N4  UNL     1      18.519  -0.552  52.340  1.00  0.00     0.092 N 
HETATM   26  C19 UNL     1      17.718   0.349  51.534  1.00  0.00     0.298 C 
HETATM   27  C20 UNL     1      16.774  -0.468  50.696  1.00  0.00     0.198 C 
HETATM   28  O3  UNL     1      15.830  -0.990  51.541  1.00  0.00    -0.388 OA
HETATM   29  C21 UNL     1      16.268  -1.538  52.705  1.00  0.00     0.198 C 
HETATM   30  C22 UNL     1      17.727  -1.580  52.959  1.00  0.00     0.298 C 
ENDBRANCH  24  25
ENDBRANCH  23  24
ENDBRANCH  22  23
ENDBRANCH  21  22
ENDBRANCH  10  21
BRANCH   1  31
HETATM   31  O1  UNL     1      20.787   1.870  50.588  1.00  0.00    -0.353 OA
HETATM   32  C1  UNL     1      19.922   2.983  50.486  1.00  0.00     0.210 C 
ENDBRANCH   1  31
TORSDOF 8
ENDMDL
MODEL 5
REMARK VINA RESULT:      -7.4      4.014      6.679
REMARK  8 active torsions:
REMARK  status: ('A' for Active; 'I' for Inactive)
REMARK    1  A    between atoms: O1_2  and  C2_3 
REMARK    2  A    between atoms: C6_9  and  N3_10 
REMARK    3  A    between atoms: N3_10  and  C7_11 
REMARK    4  A    between atoms: C15_21  and  O2_22 
REMARK    5  A    between atoms: O2_22  and  C16_23 
REMARK    6  A    between atoms: C16_23  and  C17_24 
REMARK    7  A    between atoms: C17_24  and  C18_25 
REMARK    8  A    between atoms: C18_25  and  N4_26 
ROOT
HETATM    1  C2  UNL     1      26.445  -0.045  53.050  1.00  0.00     0.103 A 
HETATM    2  C3  UNL     1      25.778  -0.760  54.028  1.00  0.00     0.072 A 
HETATM    3  C4  UNL     1      24.408  -0.620  54.194  1.00  0.00     0.075 A 
HETATM    4  N1  UNL     1      23.692  -1.290  55.132  1.00  0.00    -0.241 NA
HETATM    5  C5  UNL     1      22.363  -1.109  55.240  1.00  0.00     0.236 A 
HETATM    6  N2  UNL     1      21.725  -0.267  54.427  1.00  0.00    -0.224 NA
HETATM    7  C6  UNL     1      22.354   0.442  53.466  1.00  0.00     0.142 A 
HETATM    8  C13 UNL     1      23.713   0.244  53.371  1.00  0.00     0.042 A 
HETATM    9  C14 UNL     1      24.385   0.951  52.400  1.00  0.00     0.057 A 
HETATM   10  C15 UNL     1      25.746   0.825  52.220  1.00  0.00     0.103 A 
ENDROOT
BRANCH   7  11
HETATM   11  N3  UNL     1      21.581   1.311  52.650  1.00  0.00    -0.340 N 
HETATM   12  H6  UNL     1      21.927   2.286  52.632  1.00  0.00     0.167 HD
BRANCH  11  13
HETATM   13  C7  UNL     1      20.421   0.956  51.892  1.00  0.00     0.035 A 
HETATM   14  C8  UNL     1      20.165   1.440  50.618  1.00  0.00     0.032 A 
HETATM   15  C9  UNL     1      19.018   1.032  49.975  1.00  0.00     0.046 A 
HETATM   16  C10 UNL     1      18.106   0.161  50.533  1.00  0.00     0.138 A 
HETATM   17  F1  UNL     1      17.019  -0.163  49.802  1.00  0.00    -0.204 F 
HETATM   18  C11 UNL     1      18.356  -0.318  51.791  1.00  0.00     0.074 A 
HETATM   19 CL1  UNL     1      17.219  -1.423  52.529  1.00  0.00    -0.081 Cl
HETATM   20  C12 UNL     1      19.509   0.086  52.448  1.00  0.00     0.056 A 
ENDBRANCH  11  13
ENDBRANCH   7  11
BRANCH  10  21
HETATM   21  O2  UNL     1      26.556   1.461  51.297  1.00  0.00    -0.348 OA
BRANCH  21  22
HETATM   22  C16 UNL     1      26.576   2.855  51.158  1.00  0.00     0.177 C 
BRANCH  22  23
HETATM   23  C17 UNL     1      26.439   3.248  49.686  1.00  0.00     0.057 C 
BRANCH  23  24
HETATM   24  C18 UNL     1      25.064   3.777  49.395  1.00  0.00     0.274 C 
BRANCH  24  25
HETATM   25  N4  UNL     1      24.433   4.410  50.507  1.00  0.00     0.092 N 
HETATM   26  C19 UNL     1      23.073   3.951  50.717  1.00  0.00     0.298 C 
HETATM   27  C20 UNL     1      22.487   4.705  51.878  1.00  0.00     0.198 C 
HETATM   28  O3  UNL     1      22.277   5.994  51.460  1.00  0.00    -0.388 OA
HETATM   29  C21 UNL     1      23.279   6.595  50.765  1.00  0.00     0.198 C 
HETATM   30  C22 UNL     1      24.537   5.844  50.549  1.00  0.00     0.298 C 
ENDBRANCH  24  25
ENDBRANCH  23  24
ENDBRANCH  22  23
ENDBRANCH  21  22
ENDBRANCH  10  21
BRANCH   1  31
HETATM   31  O1  UNL     1      27.814  -0.251  52.959  1.00  0.00    -0.353 OA
HETATM   32  C1  UNL     1      28.655   0.223  53.991  1.00  0.00     0.210 C 
ENDBRANCH   1  31
TORSDOF 8
ENDMDL
MODEL 6
REMARK VINA RESULT:      -7.4      2.276      5.213
REMARK  8 active torsions:
REMARK  status: ('A' for Active; 'I' for Inactive)
REMARK    1  A    between atoms: O1_2  and  C2_3 
REMARK    2  A    between atoms: C6_9  and  N3_10 
REMARK    3  A    between atoms: N3_10  and  C7_11 
REMARK    4  A    between atoms: C15_21  and  O2_22 
REMARK    5  A    between atoms: O2_22  and  C16_23 
REMARK    6  A    between atoms: C16_23  and  C17_24 
REMARK    7  A    between atoms: C17_24  and  C18_25 
REMARK    8  A    between atoms: C18_25  and  N4_26 
ROOT
HETATM    1  C2  UNL     1      22.291   4.648  49.272  1.00  0.00     0.103 A 
HETATM    2  C3  UNL     1      23.534   5.035  48.804  1.00  0.00     0.072 A 
HETATM    3  C4  UNL     1      24.690   4.457  49.310  1.00  0.00     0.075 A 
HETATM    4  N1  UNL     1      25.939   4.789  48.897  1.00  0.00    -0.241 NA
HETATM    5  C5  UNL     1      27.020   4.187  49.429  1.00  0.00     0.236 A 
HETATM    6  N2  UNL     1      26.883   3.257  50.372  1.00  0.00    -0.224 NA
HETATM    7  C6  UNL     1      25.681   2.864  50.845  1.00  0.00     0.142 A 
HETATM    8  C13 UNL     1      24.587   3.488  50.290  1.00  0.00     0.042 A 
HETATM    9  C14 UNL     1      23.346   3.111  50.748  1.00  0.00     0.057 A 
HETATM   10  C15 UNL     1      22.187   3.673  50.258  1.00  0.00     0.103 A 
ENDROOT
BRANCH   7  11
HETATM   11  N3  UNL     1      25.644   1.860  51.851  1.00  0.00    -0.340 N 
HETATM   12  H6  UNL     1      24.687   1.611  52.158  1.00  0.00     0.167 HD
BRANCH  11  13
HETATM   13  C7  UNL     1      26.771   1.204  52.438  1.00  0.00     0.035 A 
HETATM   14  C8  UNL     1      27.800   1.881  53.074  1.00  0.00     0.032 A 
HETATM   15  C9  UNL     1      28.839   1.152  53.607  1.00  0.00     0.046 A 
HETATM   16  C10 UNL     1      28.910  -0.225  53.543  1.00  0.00     0.138 A 
HETATM   17  F1  UNL     1      29.981  -0.825  54.103  1.00  0.00    -0.204 F 
HETATM   18  C11 UNL     1      27.895  -0.895  52.914  1.00  0.00     0.074 A 
HETATM   19 CL1  UNL     1      27.955  -2.639  52.813  1.00  0.00    -0.081 Cl
HETATM   20  C12 UNL     1      26.843  -0.170  52.373  1.00  0.00     0.056 A 
ENDBRANCH  11  13
ENDBRANCH   7  11
BRANCH  10  21
HETATM   21  O2  UNL     1      20.879   3.401  50.614  1.00  0.00    -0.348 OA
BRANCH  21  22
HETATM   22  C16 UNL     1      20.505   3.141  51.939  1.00  0.00     0.177 C 
BRANCH  22  23
HETATM   23  C17 UNL     1      19.283   2.222  51.981  1.00  0.00     0.057 C 
BRANCH  23  24
HETATM   24  C18 UNL     1      19.683   0.809  52.292  1.00  0.00     0.274 C 
BRANCH  24  25
HETATM   25  N4  UNL     1      20.908   0.693  53.014  1.00  0.00     0.092 N 
HETATM   26  C19 UNL     1      21.902  -0.095  52.309  1.00  0.00     0.298 C 
HETATM   27  C20 UNL     1      23.133  -0.192  53.167  1.00  0.00     0.198 C 
HETATM   28  O3  UNL     1      22.830  -1.016  54.219  1.00  0.00    -0.388 OA
HETATM   29  C21 UNL     1      21.642  -0.813  54.849  1.00  0.00     0.198 C 
HETATM   30  C22 UNL     1      20.784   0.305  54.393  1.00  0.00     0.298 C 
ENDBRANCH  24  25
ENDBRANCH  23  24
ENDBRANCH  22  23
ENDBRANCH  21  22
ENDBRANCH  10  21
BRANCH   1  31
HETATM   31  O1  UNL     1      21.194   5.281  48.706  1.00  0.00    -0.353 OA
HETATM   32  C1  UNL     1      21.036   5.268  47.302  1.00  0.00     0.210 C 
ENDBRANCH   1  31
TORSDOF 8
ENDMDL
MODEL 7
REMARK VINA RESULT:      -7.3      2.392      3.337
REMARK  8 active torsions:
REMARK  status: ('A' for Active; 'I' for Inactive)
REMARK    1  A    between atoms: O1_2  and  C2_3 
REMARK    2  A    between atoms: C6_9  and  N3_10 
REMARK    3  A    between atoms: N3_10  and  C7_11 
REMARK    4  A    between atoms: C15_21  and  O2_22 
REMARK    5  A    between atoms: O2_22  and  C16_23 
REMARK    6  A    between atoms: C16_23  and  C17_24 
REMARK    7  A    between atoms: C17_24  and  C18_25 
REMARK    8  A    between atoms: C18_25  and  N4_26 
ROOT
HETATM    1  C2  UNL     1      21.435   2.319  51.194  1.00  0.00     0.103 A 
HETATM    2  C3  UNL     1      20.851   1.729  52.300  1.00  0.00     0.072 A 
HETATM    3  C4  UNL     1      21.563   0.827  53.077  1.00  0.00     0.075 A 
HETATM    4  N1  UNL     1      21.052   0.213  54.174  1.00  0.00    -0.241 NA
HETATM    5  C5  UNL     1      21.799  -0.652  54.886  1.00  0.00     0.236 A 
HETATM    6  N2  UNL     1      23.053  -0.922  54.526  1.00  0.00    -0.224 NA
HETATM    7  C6  UNL     1      23.644  -0.360  53.450  1.00  0.00     0.142 A 
HETATM    8  C13 UNL     1      22.866   0.521  52.735  1.00  0.00     0.042 A 
HETATM    9  C14 UNL     1      23.438   1.114  51.632  1.00  0.00     0.057 A 
HETATM   10  C15 UNL     1      22.747   2.012  50.848  1.00  0.00     0.103 A 
ENDROOT
BRANCH   7  11
HETATM   11  N3  UNL     1      24.988  -0.714  53.154  1.00  0.00    -0.340 N 
HETATM   12  H6  UNL     1      25.085  -1.632  52.686  1.00  0.00     0.167 HD
BRANCH  11  13
HETATM   13  C7  UNL     1      26.153   0.064  53.439  1.00  0.00     0.035 A 
HETATM   14  C8  UNL     1      26.108   1.404  53.792  1.00  0.00     0.032 A 
HETATM   15  C9  UNL     1      27.290   2.060  54.048  1.00  0.00     0.046 A 
HETATM   16  C10 UNL     1      28.526   1.450  53.974  1.00  0.00     0.138 A 
HETATM   17  F1  UNL     1      29.614   2.201  54.248  1.00  0.00    -0.204 F 
HETATM   18  C11 UNL     1      28.574   0.127  53.626  1.00  0.00     0.074 A 
HETATM   19 CL1  UNL     1      30.123  -0.675  53.521  1.00  0.00    -0.081 Cl
HETATM   20  C12 UNL     1      27.388  -0.543  53.365  1.00  0.00     0.056 A 
ENDBRANCH  11  13
ENDBRANCH   7  11
BRANCH  10  21
HETATM   21  O2  UNL     1      23.180   2.684  49.720  1.00  0.00    -0.348 OA
BRANCH  21  22
HETATM   22  C16 UNL     1      24.436   3.300  49.655  1.00  0.00     0.177 C 
BRANCH  22  23
HETATM   23  C17 UNL     1      24.294   4.766  49.242  1.00  0.00     0.057 C 
BRANCH  23  24
HETATM   24  C18 UNL     1      24.713   5.682  50.356  1.00  0.00     0.274 C 
BRANCH  24  25
HETATM   25  N4  UNL     1      23.755   6.689  50.677  1.00  0.00     0.092 N 
HETATM   26  C19 UNL     1      22.391   6.273  50.408  1.00  0.00     0.298 C 
HETATM   27  C20 UNL     1      21.468   7.413  50.737  1.00  0.00     0.198 C 
HETATM   28  O3  UNL     1      21.653   8.374  49.778  1.00  0.00    -0.388 OA
HETATM   29  C21 UNL     1      22.933   8.682  49.441  1.00  0.00     0.198 C 
HETATM   30  C22 UNL     1      24.035   8.002  50.161  1.00  0.00     0.298 C 
ENDBRANCH  24  25
ENDBRANCH  23  24
ENDBRANCH  22  23
ENDBRANCH  21  22
ENDBRANCH  10  21
BRANCH   1  31
HETATM   31  O1  UNL     1      20.646   3.208  50.478  1.00  0.00    -0.353 OA
HETATM   32  C1  UNL     1      19.549   3.828  51.118  1.00  0.00     0.210 C 
ENDBRANCH   1  31
TORSDOF 8
ENDMDL
MODEL 8
REMARK VINA RESULT:      -7.3      3.561      4.599
REMARK  8 active torsions:
REMARK  status: ('A' for Active; 'I' for Inactive)
REMARK    1  A    between atoms: O1_2  and  C2_3 
REMARK    2  A    between atoms: C6_9  and  N3_10 
REMARK    3  A    between atoms: N3_10  and  C7_11 
REMARK    4  A    between atoms: C15_21  and  O2_22 
REMARK    5  A    between atoms: O2_22  and  C16_23 
REMARK    6  A    between atoms: C16_23  and  C17_24 
REMARK    7  A    between atoms: C17_24  and  C18_25 
REMARK    8  A    between atoms: C18_25  and  N4_26 
ROOT
HETATM    1  C2  UNL     1      22.688   2.497  49.560  1.00  0.00     0.103 A 
HETATM    2  C3  UNL     1      22.082   1.468  50.258  1.00  0.00     0.072 A 
HETATM    3  C4  UNL     1      22.646   0.980  51.428  1.00  0.00     0.075 A 
HETATM    4  N1  UNL     1      22.105  -0.026  52.161  1.00  0.00    -0.241 NA
HETATM    5  C5  UNL     1      22.704  -0.451  53.289  1.00  0.00     0.236 A 
HETATM    6  N2  UNL     1      23.839   0.108  53.707  1.00  0.00    -0.224 NA
HETATM    7  C6  UNL     1      24.449   1.112  53.043  1.00  0.00     0.142 A 
HETATM    8  C13 UNL     1      23.823   1.534  51.892  1.00  0.00     0.042 A 
HETATM    9  C14 UNL     1      24.418   2.558  51.190  1.00  0.00     0.057 A 
HETATM   10  C15 UNL     1      23.873   3.055  50.027  1.00  0.00     0.103 A 
ENDROOT
BRANCH   7  11
HETATM   11  N3  UNL     1      25.657   1.641  53.574  1.00  0.00    -0.340 N 
HETATM   12  H6  UNL     1      25.558   2.591  53.972  1.00  0.00     0.167 HD
BRANCH  11  13
HETATM   13  C7  UNL     1      26.930   0.991  53.599  1.00  0.00     0.035 A 
HETATM   14  C8  UNL     1      28.108   1.634  53.948  1.00  0.00     0.032 A 
HETATM   15  C9  UNL     1      29.281   0.913  53.941  1.00  0.00     0.046 A 
HETATM   16  C10 UNL     1      29.346  -0.424  53.605  1.00  0.00     0.138 A 
HETATM   17  F1  UNL     1      30.557  -1.020  53.636  1.00  0.00    -0.204 F 
HETATM   18  C11 UNL     1      28.184  -1.061  53.261  1.00  0.00     0.074 A 
HETATM   19 CL1  UNL     1      28.233  -2.754  52.829  1.00  0.00    -0.081 Cl
HETATM   20  C12 UNL     1      26.997  -0.344  53.264  1.00  0.00     0.056 A 
ENDBRANCH  11  13
ENDBRANCH   7  11
BRANCH  10  21
HETATM   21  O2  UNL     1      24.348   4.071  49.217  1.00  0.00    -0.348 OA
BRANCH  21  22
HETATM   22  C16 UNL     1      24.908   5.242  49.741  1.00  0.00     0.177 C 
BRANCH  22  23
HETATM   23  C17 UNL     1      26.179   5.618  48.977  1.00  0.00     0.057 C 
BRANCH  23  24
HETATM   24  C18 UNL     1      25.962   6.847  48.143  1.00  0.00     0.274 C 
BRANCH  24  25
HETATM   25  N4  UNL     1      27.097   7.708  48.062  1.00  0.00     0.092 N 
HETATM   26  C19 UNL     1      28.340   7.026  48.367  1.00  0.00     0.298 C 
HETATM   27  C20 UNL     1      29.464   8.022  48.296  1.00  0.00     0.198 C 
HETATM   28  O3  UNL     1      29.337   8.854  49.377  1.00  0.00    -0.388 OA
HETATM   29  C21 UNL     1      28.095   9.331  49.657  1.00  0.00     0.198 C 
HETATM   30  C22 UNL     1      26.979   8.963  48.754  1.00  0.00     0.298 C 
ENDBRANCH  24  25
ENDBRANCH  23  24
ENDBRANCH  22  23
ENDBRANCH  21  22
ENDBRANCH  10  21
BRANCH   1  31
HETATM   31  O1  UNL     1      22.050   2.918  48.402  1.00  0.00    -0.353 OA
HETATM   32  C1  UNL     1      20.737   2.469  48.133  1.00  0.00     0.210 C 
ENDBRANCH   1  31
TORSDOF 8
ENDMDL
MODEL 9
REMARK VINA RESULT:      -7.2      5.587      8.631
REMARK  8 active torsions:
REMARK  status: ('A' for Active; 'I' for Inactive)
REMARK    1  A    between atoms: O1_2  and  C2_3 
REMARK    2  A    between atoms: C6_9  and  N3_10 
REMARK    3  A    between atoms: N3_10  and  C7_11 
REMARK    4  A    between atoms: C15_21  and  O2_22 
REMARK    5  A    between atoms: O2_22  and  C16_23 
REMARK    6  A    between atoms: C16_23  and  C17_24 
REMARK    7  A    between atoms: C17_24  and  C18_25 
REMARK    8  A    between atoms: C18_25  and  N4_26 
ROOT
HETATM    1  C2  UNL     1      24.330   5.432  48.701  1.00  0.00     0.103 A 
HETATM    2  C3  UNL     1      24.625   6.623  48.061  1.00  0.00     0.072 A 
HETATM    3  C4  UNL     1      25.938   7.057  47.950  1.00  0.00     0.075 A 
HETATM    4  N1  UNL     1      26.298   8.212  47.336  1.00  0.00    -0.241 NA
HETATM    5  C5  UNL     1      27.593   8.575  47.262  1.00  0.00     0.236 A 
HETATM    6  N2  UNL     1      28.544   7.807  47.791  1.00  0.00    -0.224 NA
HETATM    7  C6  UNL     1      28.280   6.643  48.422  1.00  0.00     0.142 A 
HETATM    8  C13 UNL     1      26.952   6.287  48.488  1.00  0.00     0.042 A 
HETATM    9  C14 UNL     1      26.647   5.105  49.122  1.00  0.00     0.057 A 
HETATM   10  C15 UNL     1      25.349   4.657  49.242  1.00  0.00     0.103 A 
ENDROOT
BRANCH   7  11
HETATM   11  N3  UNL     1      29.368   5.896  48.949  1.00  0.00    -0.340 N 
HETATM   12  H6  UNL     1      29.095   5.222  49.685  1.00  0.00     0.167 HD
BRANCH  11  13
HETATM   13  C7  UNL     1      30.740   6.002  48.559  1.00  0.00     0.035 A 
HETATM   14  C8  UNL     1      31.654   6.821  49.202  1.00  0.00     0.032 A 
HETATM   15  C9  UNL     1      32.953   6.848  48.746  1.00  0.00     0.046 A 
HETATM   16  C10 UNL     1      33.395   6.097  47.676  1.00  0.00     0.138 A 
HETATM   17  F1  UNL     1      34.693   6.211  47.323  1.00  0.00    -0.204 F 
HETATM   18  C11 UNL     1      32.493   5.288  47.038  1.00  0.00     0.074 A 
HETATM   19 CL1  UNL     1      33.020   4.325  45.678  1.00  0.00    -0.081 Cl
HETATM   20  C12 UNL     1      31.182   5.254  47.490  1.00  0.00     0.056 A 
ENDBRANCH  11  13
ENDBRANCH   7  11
BRANCH  10  21
HETATM   21  O2  UNL     1      24.888   3.501  49.845  1.00  0.00    -0.348 OA
BRANCH  21  22
HETATM   22  C16 UNL     1      24.799   3.371  51.237  1.00  0.00     0.177 C 
BRANCH  22  23
HETATM   23  C17 UNL     1      25.254   1.978  51.676  1.00  0.00     0.057 C 
BRANCH  23  24
HETATM   24  C18 UNL     1      26.749   1.912  51.790  1.00  0.00     0.274 C 
BRANCH  24  25
HETATM   25  N4  UNL     1      27.225   1.676  53.115  1.00  0.00     0.092 N 
HETATM   26  C19 UNL     1      28.379   0.798  53.148  1.00  0.00     0.298 C 
HETATM   27  C20 UNL     1      28.775   0.580  54.581  1.00  0.00     0.198 C 
HETATM   28  O3  UNL     1      27.814  -0.214  55.151  1.00  0.00    -0.388 OA
HETATM   29  C21 UNL     1      26.515   0.101  54.901  1.00  0.00     0.198 C 
HETATM   30  C22 UNL     1      26.226   1.299  54.078  1.00  0.00     0.298 C 
ENDBRANCH  24  25
ENDBRANCH  23  24
ENDBRANCH  22  23
ENDBRANCH  21  22
ENDBRANCH  10  21
BRANCH   1  31
HETATM   31  O1  UNL     1      22.989   5.080  48.762  1.00  0.00    -0.353 OA
HETATM   32  C1  UNL     1      22.210   5.113  47.583  1.00  0.00     0.210 C 
ENDBRANCH   1  31
TORSDOF 8
ENDMDL
