MODEL 1
REMARK VINA RESULT:      -8.3      0.000      0.000
REMARK  4 active torsions:
REMARK  status: ('A' for Active; 'I' for Inactive)
REMARK    1  A    between atoms: O1_2  and  C2_3 
REMARK    2  A    between atoms: C2_3  and  C3_4 
REMARK    3  A    between atoms: C4_5  and  N2_10 
REMARK    4  A    between atoms: C14_19  and  N4_20 
ROOT
HETATM    1  C3  UNL     1      22.308   3.441  49.514  1.00  0.00     0.043 C 
HETATM    2  C4  UNL     1      22.621   3.221  50.744  1.00  0.00     0.104 A 
HETATM    3  C5  UNL     1      23.079   3.009  52.302  1.00  0.00     0.040 A 
HETATM    4  C6  UNL     1      24.132   3.619  53.020  1.00  0.00     0.181 A 
HETATM    5  N1  UNL     1      23.721   4.949  53.070  1.00  0.00    -0.263 N 
HETATM    6  C7  UNL     1      22.432   4.802  52.313  1.00  0.00     0.132 A 
HETATM    7  N2  UNL     1      22.980   3.473  52.341  1.00  0.00     0.000 N 
HETATM    8  C8  UNL     1      22.156   2.477  51.674  1.00  0.00    -0.004 A 
HETATM    9  C9  UNL     1      22.274   1.044  52.020  1.00  0.00     0.041 C 
HETATM   10  C10 UNL     1      23.037   0.484  53.138  1.00  0.00     0.035 C 
HETATM   11  C11 UNL     1      22.727  -1.024  53.170  1.00  0.00     0.016 C 
HETATM   12  C12 UNL     1      24.505   0.544  53.251  1.00  0.00     0.031 C 
HETATM   13 CL1  UNL     1      25.571  -0.838  52.893  1.00  0.00    -0.087 Cl
HETATM   14  C13 UNL     1      25.438   1.459  53.640  1.00  0.00     0.105 C 
HETATM   15  N3  UNL     1      25.243   2.900  53.531  1.00  0.00    -0.366 N 
HETATM   16  C14 UNL     1      20.856   0.484  52.300  1.00  0.00     0.260 C 
HETATM   17  C15 UNL     1      19.736   0.959  51.519  1.00  0.00     0.128 C 
HETATM   18  C16 UNL     1      19.156   2.278  51.854  1.00  0.00     0.052 C 
HETATM   19  O2  UNL     1      18.614   0.060  51.889  1.00  0.00    -0.288 OA
HETATM   20  C17 UNL     1      17.698   0.430  50.854  1.00  0.00     0.362 C 
HETATM   21  O3  UNL     1      16.449   0.195  51.065  1.00  0.00    -0.238 OA
HETATM   22  N5  UNL     1      18.373   1.028  49.704  1.00  0.00    -0.321 N 
HETATM   23  C18 UNL     1      19.663   0.546  50.049  1.00  0.00     0.215 C 
HETATM   24  C19 UNL     1      20.829   1.013  49.311  1.00  0.00     0.244 C 
HETATM   25  O4  UNL     1      21.743   0.904  48.461  1.00  0.00    -0.271 OA
HETATM   26  N6  UNL     1      21.445   2.278  49.531  1.00  0.00    -0.352 N 
HETATM   27  H14 UNL     1      25.724   3.783  53.744  1.00  0.00     0.161 HD
HETATM   28  H21 UNL     1      17.815   1.571  49.033  1.00  0.00     0.165 HD
HETATM   29  H23 UNL     1      20.617   2.769  50.008  1.00  0.00     0.163 HD
ENDROOT
BRANCH   1  30
HETATM   30  C2  UNL     1      22.314   4.065  48.165  1.00  0.00     0.193 C 
BRANCH  30  31
HETATM   31  O1  UNL     1      23.307   5.075  48.208  1.00  0.00    -0.394 OA
HETATM   32  C1  UNL     1      22.690   6.247  48.557  1.00  0.00     0.201 C 
ENDBRANCH  30  31
ENDBRANCH   1  30
BRANCH  16  33
HETATM   33  N4  UNL     1      20.573   0.616  53.726  1.00  0.00     0.086 N 
HETATM   34  H16 UNL     1      20.050   1.456  53.984  1.00  0.00     0.313 HD
HETATM   35  H17 UNL     1      20.126  -0.283  53.993  1.00  0.00     0.313 HD
ENDBRANCH  16  33
TORSDOF 4
ENDMDL
MODEL 2
REMARK VINA RESULT:      -8.0      3.957      7.465
REMARK  4 active torsions:
REMARK  status: ('A' for Active; 'I' for Inactive)
REMARK    1  A    between atoms: O1_2  and  C2_3 
REMARK    2  A    between atoms: C2_3  and  C3_4 
REMARK    3  A    between atoms: C4_5  and  N2_10 
REMARK    4  A    between atoms: C14_19  and  N4_20 
ROOT
HETATM    1  C3  UNL     1      25.576   3.422  50.746  1.00  0.00     0.043 C 
HETATM    2  C4  UNL     1      24.360   3.694  50.420  1.00  0.00     0.104 A 
HETATM    3  C5  UNL     1      22.789   3.962  50.045  1.00  0.00     0.040 A 
HETATM    4  C6  UNL     1      21.671   3.110  50.194  1.00  0.00     0.181 A 
HETATM    5  N1  UNL     1      21.571   2.999  51.579  1.00  0.00    -0.263 N 
HETATM    6  C7  UNL     1      22.737   3.870  51.948  1.00  0.00     0.132 A 
HETATM    7  N2  UNL     1      22.718   3.893  50.511  1.00  0.00     0.000 N 
HETATM    8  C8  UNL     1      23.766   4.707  49.916  1.00  0.00    -0.004 A 
HETATM    9  C9  UNL     1      23.615   5.254  48.550  1.00  0.00     0.041 C 
HETATM   10  C10 UNL     1      22.398   5.223  47.734  1.00  0.00     0.035 C 
HETATM   11  C11 UNL     1      22.697   6.044  46.467  1.00  0.00     0.016 C 
HETATM   12  C12 UNL     1      21.780   3.988  47.217  1.00  0.00     0.031 C 
HETATM   13 CL1  UNL     1      21.949   3.444  45.529  1.00  0.00    -0.087 Cl
HETATM   14  C13 UNL     1      20.964   3.006  47.695  1.00  0.00     0.105 C 
HETATM   15  N3  UNL     1      20.921   2.611  49.098  1.00  0.00    -0.366 N 
HETATM   16  C14 UNL     1      23.925   6.773  48.587  1.00  0.00     0.260 C 
HETATM   17  C15 UNL     1      24.964   7.266  49.462  1.00  0.00     0.128 C 
HETATM   18  C16 UNL     1      24.659   7.409  50.902  1.00  0.00     0.052 C 
HETATM   19  O2  UNL     1      25.138   8.688  49.071  1.00  0.00    -0.288 OA
HETATM   20  C17 UNL     1      26.358   8.950  49.770  1.00  0.00     0.362 C 
HETATM   21  O3  UNL     1      26.626  10.181  50.041  1.00  0.00    -0.238 OA
HETATM   22  N5  UNL     1      27.106   7.727  50.060  1.00  0.00    -0.321 N 
HETATM   23  C18 UNL     1      26.413   6.928  49.112  1.00  0.00     0.215 C 
HETATM   24  C19 UNL     1      26.629   5.488  49.088  1.00  0.00     0.244 C 
HETATM   25  O4  UNL     1      27.119   4.429  48.633  1.00  0.00    -0.271 OA
HETATM   26  N6  UNL     1      26.027   4.587  50.013  1.00  0.00    -0.352 N 
HETATM   27  H14 UNL     1      20.428   1.961  49.723  1.00  0.00     0.161 HD
HETATM   28  H21 UNL     1      27.839   7.757  50.779  1.00  0.00     0.165 HD
HETATM   29  H23 UNL     1      25.797   5.294  50.787  1.00  0.00     0.163 HD
ENDROOT
BRANCH   1  30
HETATM   30  C2  UNL     1      26.734   2.688  51.321  1.00  0.00     0.193 C 
BRANCH  30  31
HETATM   31  O1  UNL     1      26.182   1.622  52.075  1.00  0.00    -0.394 OA
HETATM   32  C1  UNL     1      26.019   2.064  53.360  1.00  0.00     0.201 C 
ENDBRANCH  30  31
ENDBRANCH   1  30
BRANCH  16  33
HETATM   33  N4  UNL     1      22.680   7.499  48.817  1.00  0.00     0.086 N 
HETATM   34  H16 UNL     1      21.830   6.936  48.724  1.00  0.00     0.313 HD
HETATM   35  H17 UNL     1      22.807   7.959  49.740  1.00  0.00     0.313 HD
ENDBRANCH  16  33
TORSDOF 4
ENDMDL
MODEL 3
REMARK VINA RESULT:      -8.0      3.099      5.775
REMARK  4 active torsions:
REMARK  status: ('A' for Active; 'I' for Inactive)
REMARK    1  A    between atoms: O1_2  and  C2_3 
REMARK    2  A    between atoms: C2_3  and  C3_4 
REMARK    3  A    between atoms: C4_5  and  N2_10 
REMARK    4  A    between atoms: C14_19  and  N4_20 
ROOT
HETATM    1  C3  UNL     1      23.761   4.235  51.290  1.00  0.00     0.043 C 
HETATM    2  C4  UNL     1      23.279   3.073  51.013  1.00  0.00     0.104 A 
HETATM    3  C5  UNL     1      22.614   1.636  50.598  1.00  0.00     0.040 A 
HETATM    4  C6  UNL     1      21.550   1.361  49.709  1.00  0.00     0.181 A 
HETATM    5  N1  UNL     1      22.089   1.739  48.482  1.00  0.00    -0.263 N 
HETATM    6  C7  UNL     1      23.438   2.183  48.969  1.00  0.00     0.132 A 
HETATM    7  N2  UNL     1      22.755   1.755  50.159  1.00  0.00     0.000 N 
HETATM    8  C8  UNL     1      23.545   1.877  51.374  1.00  0.00    -0.004 A 
HETATM    9  C9  UNL     1      23.237   1.053  52.562  1.00  0.00     0.041 C 
HETATM   10  C10 UNL     1      22.288  -0.063  52.620  1.00  0.00     0.035 C 
HETATM   11  C11 UNL     1      22.433  -0.691  54.018  1.00  0.00     0.016 C 
HETATM   12  C12 UNL     1      20.831   0.080  52.446  1.00  0.00     0.031 C 
HETATM   13 CL1  UNL     1      19.679   0.066  53.805  1.00  0.00    -0.087 Cl
HETATM   14  C13 UNL     1      19.959   0.201  51.406  1.00  0.00     0.105 C 
HETATM   15  N3  UNL     1      20.316   0.798  50.124  1.00  0.00    -0.366 N 
HETATM   16  C14 UNL     1      24.544   0.374  53.048  1.00  0.00     0.260 C 
HETATM   17  C15 UNL     1      25.795   1.093  52.960  1.00  0.00     0.128 C 
HETATM   18  C16 UNL     1      26.463   1.180  51.644  1.00  0.00     0.052 C 
HETATM   19  O2  UNL     1      26.762   0.252  53.709  1.00  0.00    -0.288 OA
HETATM   20  C17 UNL     1      27.832   1.198  53.805  1.00  0.00     0.362 C 
HETATM   21  O3  UNL     1      29.014   0.728  54.006  1.00  0.00    -0.238 OA
HETATM   22  N5  UNL     1      27.369   2.577  53.650  1.00  0.00    -0.321 N 
HETATM   23  C18 UNL     1      26.003   2.280  53.900  1.00  0.00     0.215 C 
HETATM   24  C19 UNL     1      24.992   3.307  53.687  1.00  0.00     0.244 C 
HETATM   25  O4  UNL     1      24.183   4.187  54.061  1.00  0.00    -0.271 OA
HETATM   26  N6  UNL     1      24.490   3.662  52.402  1.00  0.00    -0.352 N 
HETATM   27  H14 UNL     1      19.907   0.999  49.203  1.00  0.00     0.161 HD
HETATM   28  H21 UNL     1      28.059   3.305  53.429  1.00  0.00     0.165 HD
HETATM   29  H23 UNL     1      25.299   3.278  51.811  1.00  0.00     0.163 HD
ENDROOT
BRANCH   1  30
HETATM   30  C2  UNL     1      23.987   5.703  51.221  1.00  0.00     0.193 C 
BRANCH  30  31
HETATM   31  O1  UNL     1      24.256   5.991  49.859  1.00  0.00    -0.394 OA
HETATM   32  C1  UNL     1      25.583   5.736  49.637  1.00  0.00     0.201 C 
ENDBRANCH  30  31
ENDBRANCH   1  30
BRANCH  16  33
HETATM   33  N4  UNL     1      24.661  -0.930  52.402  1.00  0.00     0.086 N 
HETATM   34  H16 UNL     1      24.354  -0.956  51.426  1.00  0.00     0.313 HD
HETATM   35  H17 UNL     1      25.647  -1.219  52.563  1.00  0.00     0.313 HD
ENDBRANCH  16  33
TORSDOF 4
ENDMDL
MODEL 4
REMARK VINA RESULT:      -7.7     10.501     13.199
REMARK  4 active torsions:
REMARK  status: ('A' for Active; 'I' for Inactive)
REMARK    1  A    between atoms: O1_2  and  C2_3 
REMARK    2  A    between atoms: C2_3  and  C3_4 
REMARK    3  A    between atoms: C4_5  and  N2_10 
REMARK    4  A    between atoms: C14_19  and  N4_20 
ROOT
HETATM    1  C3  UNL     1      34.082   8.667  45.680  1.00  0.00     0.043 C 
HETATM    2  C4  UNL     1      33.948   7.820  46.640  1.00  0.00     0.104 A 
HETATM    3  C5  UNL     1      33.864   6.721  47.852  1.00  0.00     0.040 A 
HETATM    4  C6  UNL     1      34.834   5.792  48.291  1.00  0.00     0.181 A 
HETATM    5  N1  UNL     1      35.832   6.624  48.790  1.00  0.00    -0.263 N 
HETATM    6  C7  UNL     1      35.173   7.943  48.506  1.00  0.00     0.132 A 
HETATM    7  N2  UNL     1      34.232   6.966  48.031  1.00  0.00     0.000 N 
HETATM    8  C8  UNL     1      33.017   7.536  47.469  1.00  0.00    -0.004 A 
HETATM    9  C9  UNL     1      31.770   6.744  47.405  1.00  0.00     0.041 C 
HETATM   10  C10 UNL     1      31.540   5.439  48.030  1.00  0.00     0.035 C 
HETATM   11  C11 UNL     1      30.054   5.101  47.808  1.00  0.00     0.016 C 
HETATM   12  C12 UNL     1      32.245   4.202  47.647  1.00  0.00     0.031 C 
HETATM   13 CL1  UNL     1      31.511   2.935  46.631  1.00  0.00    -0.087 Cl
HETATM   14  C13 UNL     1      33.453   3.625  47.899  1.00  0.00     0.105 C 
HETATM   15  N3  UNL     1      34.658   4.387  48.207  1.00  0.00    -0.366 N 
HETATM   16  C14 UNL     1      30.617   7.586  48.011  1.00  0.00     0.260 C 
HETATM   17  C15 UNL     1      30.589   9.015  47.794  1.00  0.00     0.128 C 
HETATM   18  C16 UNL     1      31.485   9.865  48.608  1.00  0.00     0.052 C 
HETATM   19  O2  UNL     1      29.261   9.443  48.301  1.00  0.00    -0.288 OA
HETATM   20  C17 UNL     1      29.247  10.767  47.759  1.00  0.00     0.362 C 
HETATM   21  O3  UNL     1      28.464  11.623  48.321  1.00  0.00    -0.238 OA
HETATM   22  N5  UNL     1      30.157  10.912  46.624  1.00  0.00    -0.321 N 
HETATM   23  C18 UNL     1      30.283   9.518  46.384  1.00  0.00     0.215 C 
HETATM   24  C19 UNL     1      31.268   9.037  45.425  1.00  0.00     0.244 C 
HETATM   25  O4  UNL     1      31.635   8.588  44.315  1.00  0.00    -0.271 OA
HETATM   26  N6  UNL     1      32.658   8.926  45.715  1.00  0.00    -0.352 N 
HETATM   27  H14 UNL     1      35.647   4.242  48.445  1.00  0.00     0.161 HD
HETATM   28  H21 UNL     1      30.434  11.857  46.332  1.00  0.00     0.165 HD
HETATM   29  H23 UNL     1      32.695   9.603  46.547  1.00  0.00     0.163 HD
ENDROOT
BRANCH   1  30
HETATM   30  C2  UNL     1      34.728   9.457  44.598  1.00  0.00     0.193 C 
BRANCH  30  31
HETATM   31  O1  UNL     1      36.069   9.657  45.011  1.00  0.00    -0.394 OA
HETATM   32  C1  UNL     1      36.798   9.995  43.902  1.00  0.00     0.201 C 
ENDBRANCH  30  31
ENDBRANCH   1  30
BRANCH  16  33
HETATM   33  N4  UNL     1      30.517   7.286  49.436  1.00  0.00     0.086 N 
HETATM   34  H16 UNL     1      31.237   7.721  50.018  1.00  0.00     0.313 HD
HETATM   35  H17 UNL     1      29.538   7.525  49.690  1.00  0.00     0.313 HD
ENDBRANCH  16  33
TORSDOF 4
ENDMDL
MODEL 5
REMARK VINA RESULT:      -7.6      2.827      4.135
REMARK  4 active torsions:
REMARK  status: ('A' for Active; 'I' for Inactive)
REMARK    1  A    between atoms: O1_2  and  C2_3 
REMARK    2  A    between atoms: C2_3  and  C3_4 
REMARK    3  A    between atoms: C4_5  and  N2_10 
REMARK    4  A    between atoms: C14_19  and  N4_20 
ROOT
HETATM    1  C3  UNL     1      21.089   4.286  48.633  1.00  0.00     0.043 C 
HETATM    2  C4  UNL     1      22.019   4.858  49.316  1.00  0.00     0.104 A 
HETATM    3  C5  UNL     1      23.177   5.665  50.147  1.00  0.00     0.040 A 
HETATM    4  C6  UNL     1      23.582   7.015  50.044  1.00  0.00     0.181 A 
HETATM    5  N1  UNL     1      22.450   7.694  50.489  1.00  0.00    -0.263 N 
HETATM    6  C7  UNL     1      21.580   6.502  50.766  1.00  0.00     0.132 A 
HETATM    7  N2  UNL     1      22.813   5.938  50.289  1.00  0.00     0.000 N 
HETATM    8  C8  UNL     1      22.821   4.484  50.239  1.00  0.00    -0.004 A 
HETATM    9  C9  UNL     1      24.095   3.734  50.272  1.00  0.00     0.041 C 
HETATM   10  C10 UNL     1      25.423   4.293  50.539  1.00  0.00     0.035 C 
HETATM   11  C11 UNL     1      26.394   3.101  50.615  1.00  0.00     0.016 C 
HETATM   12  C12 UNL     1      26.110   5.253  49.656  1.00  0.00     0.031 C 
HETATM   13 CL1  UNL     1      27.423   4.790  48.544  1.00  0.00    -0.087 Cl
HETATM   14  C13 UNL     1      26.069   6.594  49.419  1.00  0.00     0.105 C 
HETATM   15  N3  UNL     1      24.875   7.408  49.614  1.00  0.00    -0.366 N 
HETATM   16  C14 UNL     1      23.995   2.636  51.362  1.00  0.00     0.260 C 
HETATM   17  C15 UNL     1      22.738   1.955  51.574  1.00  0.00     0.128 C 
HETATM   18  C16 UNL     1      21.682   2.652  52.340  1.00  0.00     0.052 C 
HETATM   19  O2  UNL     1      23.067   0.842  52.500  1.00  0.00    -0.288 OA
HETATM   20  C17 UNL     1      21.850   0.100  52.377  1.00  0.00     0.362 C 
HETATM   21  O3  UNL     1      21.556  -0.707  53.337  1.00  0.00    -0.238 OA
HETATM   22  N5  UNL     1      21.138   0.404  51.137  1.00  0.00    -0.321 N 
HETATM   23  C18 UNL     1      22.257   0.991  50.489  1.00  0.00     0.215 C 
HETATM   24  C19 UNL     1      22.075   1.675  49.216  1.00  0.00     0.244 C 
HETATM   25  O4  UNL     1      22.141   1.773  47.969  1.00  0.00    -0.271 OA
HETATM   26  N6  UNL     1      21.549   2.994  49.100  1.00  0.00    -0.352 N 
HETATM   27  H14 UNL     1      24.561   8.384  49.543  1.00  0.00     0.161 HD
HETATM   28  H21 UNL     1      20.145   0.149  51.064  1.00  0.00     0.165 HD
HETATM   29  H23 UNL     1      21.055   3.044  50.052  1.00  0.00     0.163 HD
ENDROOT
BRANCH   1  30
HETATM   30  C2  UNL     1      19.950   4.124  47.692  1.00  0.00     0.193 C 
BRANCH  30  31
HETATM   31  O1  UNL     1      20.290   4.872  46.538  1.00  0.00    -0.394 OA
HETATM   32  C1  UNL     1      20.753   3.993  45.596  1.00  0.00     0.201 C 
ENDBRANCH  30  31
ENDBRANCH   1  30
BRANCH  16  33
HETATM   33  N4  UNL     1      24.496   3.180  52.621  1.00  0.00     0.086 N 
HETATM   34  H16 UNL     1      23.907   3.904  53.041  1.00  0.00     0.313 HD
HETATM   35  H17 UNL     1      24.670   2.349  53.220  1.00  0.00     0.313 HD
ENDBRANCH  16  33
TORSDOF 4
ENDMDL
MODEL 6
REMARK VINA RESULT:      -7.4     11.498     14.506
REMARK  4 active torsions:
REMARK  status: ('A' for Active; 'I' for Inactive)
REMARK    1  A    between atoms: O1_2  and  C2_3 
REMARK    2  A    between atoms: C2_3  and  C3_4 
REMARK    3  A    between atoms: C4_5  and  N2_10 
REMARK    4  A    between atoms: C14_19  and  N4_20 
ROOT
HETATM    1  C3  UNL     1      34.309   5.439  47.272  1.00  0.00     0.043 C 
HETATM    2  C4  UNL     1      34.027   5.936  46.118  1.00  0.00     0.104 A 
HETATM    3  C5  UNL     1      33.717   6.501  44.613  1.00  0.00     0.040 A 
HETATM    4  C6  UNL     1      34.237   6.078  43.369  1.00  0.00     0.181 A 
HETATM    5  N1  UNL     1      33.713   4.793  43.255  1.00  0.00    -0.263 N 
HETATM    6  C7  UNL     1      32.956   4.755  44.551  1.00  0.00     0.132 A 
HETATM    7  N2  UNL     1      33.563   6.058  44.533  1.00  0.00     0.000 N 
HETATM    8  C8  UNL     1      33.261   6.870  45.701  1.00  0.00    -0.004 A 
HETATM    9  C9  UNL     1      33.352   8.345  45.640  1.00  0.00     0.041 C 
HETATM   10  C10 UNL     1      33.553   9.151  44.433  1.00  0.00     0.035 C 
HETATM   11  C11 UNL     1      33.426  10.624  44.862  1.00  0.00     0.016 C 
HETATM   12  C12 UNL     1      34.780   9.126  43.616  1.00  0.00     0.031 C 
HETATM   13 CL1  UNL     1      36.027  10.396  43.688  1.00  0.00    -0.087 Cl
HETATM   14  C13 UNL     1      35.317   8.330  42.649  1.00  0.00     0.105 C 
HETATM   15  N3  UNL     1      35.046   6.901  42.544  1.00  0.00    -0.366 N 
HETATM   16  C14 UNL     1      32.037   8.946  46.200  1.00  0.00     0.260 C 
HETATM   17  C15 UNL     1      31.373   8.299  47.309  1.00  0.00     0.128 C 
HETATM   18  C16 UNL     1      30.569   7.088  47.035  1.00  0.00     0.052 C 
HETATM   19  O2  UNL     1      30.312   9.253  47.717  1.00  0.00    -0.288 OA
HETATM   20  C17 UNL     1      29.957   8.650  48.966  1.00  0.00     0.362 C 
HETATM   21  O3  UNL     1      28.788   8.920  49.436  1.00  0.00    -0.238 OA
HETATM   22  N5  UNL     1      31.027   7.808  49.499  1.00  0.00    -0.321 N 
HETATM   23  C18 UNL     1      32.045   8.364  48.680  1.00  0.00     0.215 C 
HETATM   24  C19 UNL     1      33.365   7.747  48.652  1.00  0.00     0.244 C 
HETATM   25  O4  UNL     1      34.577   7.664  48.957  1.00  0.00    -0.271 OA
HETATM   26  N6  UNL     1      33.667   6.570  47.910  1.00  0.00    -0.352 N 
HETATM   27  H14 UNL     1      35.274   6.093  41.951  1.00  0.00     0.161 HD
HETATM   28  H21 UNL     1      30.796   7.123  50.229  1.00  0.00     0.165 HD
HETATM   29  H23 UNL     1      32.666   6.196  47.804  1.00  0.00     0.163 HD
ENDROOT
BRANCH   1  30
HETATM   30  C2  UNL     1      34.883   4.522  48.293  1.00  0.00     0.193 C 
BRANCH  30  31
HETATM   31  O1  UNL     1      34.888   3.235  47.699  1.00  0.00    -0.394 OA
HETATM   32  C1  UNL     1      33.612   2.742  47.768  1.00  0.00     0.201 C 
ENDBRANCH  30  31
ENDBRANCH   1  30
BRANCH  16  33
HETATM   33  N4  UNL     1      31.105   9.142  45.094  1.00  0.00     0.086 N 
HETATM   34  H16 UNL     1      30.331   8.473  45.060  1.00  0.00     0.313 HD
HETATM   35  H17 UNL     1      30.823  10.141  45.157  1.00  0.00     0.313 HD
ENDBRANCH  16  33
TORSDOF 4
ENDMDL
MODEL 7
REMARK VINA RESULT:      -7.1      4.170      7.082
REMARK  4 active torsions:
REMARK  status: ('A' for Active; 'I' for Inactive)
REMARK    1  A    between atoms: O1_2  and  C2_3 
REMARK    2  A    between atoms: C2_3  and  C3_4 
REMARK    3  A    between atoms: C4_5  and  N2_10 
REMARK    4  A    between atoms: C14_19  and  N4_20 
ROOT
HETATM    1  C3  UNL     1      14.659   1.991  52.644  1.00  0.00     0.043 C 
HETATM    2  C4  UNL     1      15.500   1.063  52.346  1.00  0.00     0.104 A 
HETATM    3  C5  UNL     1      16.521  -0.175  52.017  1.00  0.00     0.040 A 
HETATM    4  C6  UNL     1      16.545  -1.485  52.546  1.00  0.00     0.181 A 
HETATM    5  N1  UNL     1      15.355  -2.020  52.058  1.00  0.00    -0.263 N 
HETATM    6  C7  UNL     1      14.872  -0.814  51.305  1.00  0.00     0.132 A 
HETATM    7  N2  UNL     1      16.124  -0.397  51.876  1.00  0.00     0.000 N 
HETATM    8  C8  UNL     1      16.498   0.971  51.553  1.00  0.00    -0.004 A 
HETATM    9  C9  UNL     1      17.912   1.399  51.603  1.00  0.00     0.041 C 
HETATM   10  C10 UNL     1      19.076   0.526  51.778  1.00  0.00     0.035 C 
HETATM   11  C11 UNL     1      20.322   1.416  51.611  1.00  0.00     0.016 C 
HETATM   12  C12 UNL     1      19.355  -0.245  53.004  1.00  0.00     0.031 C 
HETATM   13 CL1  UNL     1      20.564   0.251  54.215  1.00  0.00    -0.087 Cl
HETATM   14  C13 UNL     1      18.937  -1.416  53.561  1.00  0.00     0.105 C 
HETATM   15  N3  UNL     1      17.615  -1.988  53.329  1.00  0.00    -0.366 N 
HETATM   16  C14 UNL     1      18.260   2.116  50.273  1.00  0.00     0.260 C 
HETATM   17  C15 UNL     1      17.266   2.945  49.630  1.00  0.00     0.128 C 
HETATM   18  C16 UNL     1      16.192   2.283  48.859  1.00  0.00     0.052 C 
HETATM   19  O2  UNL     1      18.003   3.637  48.542  1.00  0.00    -0.288 OA
HETATM   20  C17 UNL     1      17.014   4.615  48.208  1.00  0.00     0.362 C 
HETATM   21  O3  UNL     1      17.082   5.140  47.033  1.00  0.00    -0.238 OA
HETATM   22  N5  UNL     1      16.073   4.849  49.302  1.00  0.00    -0.321 N 
HETATM   23  C18 UNL     1      16.894   4.266  50.302  1.00  0.00     0.215 C 
HETATM   24  C19 UNL     1      16.358   4.047  51.639  1.00  0.00     0.244 C 
HETATM   25  O4  UNL     1      16.211   4.316  52.853  1.00  0.00    -0.271 OA
HETATM   26  N6  UNL     1      15.498   2.961  51.972  1.00  0.00    -0.352 N 
HETATM   27  H14 UNL     1      17.054  -2.812  53.579  1.00  0.00     0.161 HD
HETATM   28  H21 UNL     1      15.179   5.311  49.092  1.00  0.00     0.165 HD
HETATM   29  H23 UNL     1      15.154   2.730  50.982  1.00  0.00     0.163 HD
ENDROOT
BRANCH   1  30
HETATM   30  C2  UNL     1      13.473   2.657  53.246  1.00  0.00     0.193 C 
BRANCH  30  31
HETATM   31  O1  UNL     1      12.995   3.560  52.263  1.00  0.00    -0.394 OA
HETATM   32  C1  UNL     1      12.471   4.643  52.917  1.00  0.00     0.201 C 
ENDBRANCH  30  31
ENDBRANCH   1  30
BRANCH  16  33
HETATM   33  N4  UNL     1      18.784   1.130  49.332  1.00  0.00     0.086 N 
HETATM   34  H16 UNL     1      18.638   0.155  49.607  1.00  0.00     0.313 HD
HETATM   35  H17 UNL     1      18.379   1.396  48.414  1.00  0.00     0.313 HD
ENDBRANCH  16  33
TORSDOF 4
ENDMDL
MODEL 8
REMARK VINA RESULT:      -6.8     12.094     14.542
REMARK  4 active torsions:
REMARK  status: ('A' for Active; 'I' for Inactive)
REMARK    1  A    between atoms: O1_2  and  C2_3 
REMARK    2  A    between atoms: C2_3  and  C3_4 
REMARK    3  A    between atoms: C4_5  and  N2_10 
REMARK    4  A    between atoms: C14_19  and  N4_20 
ROOT
HETATM    1  C3  UNL     1      34.649   9.407  45.011  1.00  0.00     0.043 C 
HETATM    2  C4  UNL     1      33.382   9.561  45.188  1.00  0.00     0.104 A 
HETATM    3  C5  UNL     1      31.774   9.821  45.348  1.00  0.00     0.040 A 
HETATM    4  C6  UNL     1      30.960  10.814  44.757  1.00  0.00     0.181 A 
HETATM    5  N1  UNL     1      31.014  10.471  43.408  1.00  0.00    -0.263 N 
HETATM    6  C7  UNL     1      31.913   9.274  43.528  1.00  0.00     0.132 A 
HETATM    7  N2  UNL     1      31.766   9.743  44.878  1.00  0.00     0.000 N 
HETATM    8  C8  UNL     1      32.485   8.951  45.864  1.00  0.00    -0.004 A 
HETATM    9  C9  UNL     1      32.069   8.951  47.283  1.00  0.00     0.041 C 
HETATM   10  C10 UNL     1      30.846   9.546  47.827  1.00  0.00     0.035 C 
HETATM   11  C11 UNL     1      30.790   9.154  49.315  1.00  0.00     0.016 C 
HETATM   12  C12 UNL     1      30.561  10.993  47.832  1.00  0.00     0.031 C 
HETATM   13 CL1  UNL     1      30.732  12.017  49.279  1.00  0.00    -0.087 Cl
HETATM   14  C13 UNL     1      30.101  11.921  46.946  1.00  0.00     0.105 C 
HETATM   15  N3  UNL     1      30.291  11.817  45.504  1.00  0.00    -0.366 N 
HETATM   16  C14 UNL     1      31.938   7.482  47.761  1.00  0.00     0.260 C 
HETATM   17  C15 UNL     1      32.866   6.488  47.269  1.00  0.00     0.128 C 
HETATM   18  C16 UNL     1      32.657   5.945  45.909  1.00  0.00     0.052 C 
HETATM   19  O2  UNL     1      32.595   5.284  48.095  1.00  0.00    -0.288 OA
HETATM   20  C17 UNL     1      33.747   4.517  47.730  1.00  0.00     0.362 C 
HETATM   21  O3  UNL     1      33.677   3.240  47.894  1.00  0.00    -0.238 OA
HETATM   22  N5  UNL     1      34.832   5.353  47.219  1.00  0.00    -0.321 N 
HETATM   23  C18 UNL     1      34.315   6.566  47.746  1.00  0.00     0.215 C 
HETATM   24  C19 UNL     1      34.928   7.833  47.372  1.00  0.00     0.244 C 
HETATM   25  O4  UNL     1      35.657   8.834  47.564  1.00  0.00    -0.271 OA
HETATM   26  N6  UNL     1      34.687   8.486  46.128  1.00  0.00    -0.352 N 
HETATM   27  H14 UNL     1      30.059  12.317  44.636  1.00  0.00     0.161 HD
HETATM   28  H21 UNL     1      35.586   4.907  46.682  1.00  0.00     0.165 HD
HETATM   29  H23 UNL     1      34.333   7.636  45.577  1.00  0.00     0.163 HD
ENDROOT
BRANCH   1  30
HETATM   30  C2  UNL     1      36.012   9.603  44.451  1.00  0.00     0.193 C 
BRANCH  30  31
HETATM   31  O1  UNL     1      35.984   9.037  43.153  1.00  0.00    -0.394 OA
HETATM   32  C1  UNL     1      37.280   8.819  42.768  1.00  0.00     0.201 C 
ENDBRANCH  30  31
ENDBRANCH   1  30
BRANCH  16  33
HETATM   33  N4  UNL     1      30.562   7.042  47.548  1.00  0.00     0.086 N 
HETATM   34  H16 UNL     1      29.883   7.419  48.213  1.00  0.00     0.313 HD
HETATM   35  H17 UNL     1      30.367   7.252  46.549  1.00  0.00     0.313 HD
ENDBRANCH  16  33
TORSDOF 4
ENDMDL
MODEL 9
REMARK VINA RESULT:      -6.7      4.045      6.950
REMARK  4 active torsions:
REMARK  status: ('A' for Active; 'I' for Inactive)
REMARK    1  A    between atoms: O1_2  and  C2_3 
REMARK    2  A    between atoms: C2_3  and  C3_4 
REMARK    3  A    between atoms: C4_5  and  N2_10 
REMARK    4  A    between atoms: C14_19  and  N4_20 
ROOT
HETATM    1  C3  UNL     1      21.015   6.783  48.434  1.00  0.00     0.043 C 
HETATM    2  C4  UNL     1      21.601   5.657  48.217  1.00  0.00     0.104 A 
HETATM    3  C5  UNL     1      22.275   4.201  47.889  1.00  0.00     0.040 A 
HETATM    4  C6  UNL     1      21.729   3.089  47.210  1.00  0.00     0.181 A 
HETATM    5  N1  UNL     1      21.580   3.581  45.915  1.00  0.00    -0.263 N 
HETATM    6  C7  UNL     1      22.109   4.967  46.152  1.00  0.00     0.132 A 
HETATM    7  N2  UNL     1      22.204   4.327  47.435  1.00  0.00     0.000 N 
HETATM    8  C8  UNL     1      22.754   5.174  48.482  1.00  0.00    -0.004 A 
HETATM    9  C9  UNL     1      23.386   4.582  49.680  1.00  0.00     0.041 C 
HETATM   10  C10 UNL     1      23.704   3.165  49.881  1.00  0.00     0.035 C 
HETATM   11  C11 UNL     1      24.483   3.073  51.206  1.00  0.00     0.016 C 
HETATM   12  C12 UNL     1      22.693   2.098  49.991  1.00  0.00     0.031 C 
HETATM   13 CL1  UNL     1      22.205   1.370  51.542  1.00  0.00    -0.087 Cl
HETATM   14  C13 UNL     1      21.927   1.359  49.139  1.00  0.00     0.105 C 
HETATM   15  N3  UNL     1      21.490   1.837  47.833  1.00  0.00    -0.366 N 
HETATM   16  C14 UNL     1      24.774   5.243  49.887  1.00  0.00     0.260 C 
HETATM   17  C15 UNL     1      24.945   6.646  49.588  1.00  0.00     0.128 C 
HETATM   18  C16 UNL     1      25.092   7.049  48.172  1.00  0.00     0.052 C 
HETATM   19  O2  UNL     1      26.293   6.978  50.113  1.00  0.00    -0.288 OA
HETATM   20  C17 UNL     1      26.204   8.404  50.034  1.00  0.00     0.362 C 
HETATM   21  O3  UNL     1      27.313   9.060  49.992  1.00  0.00    -0.238 OA
HETATM   22  N5  UNL     1      24.819   8.873  50.014  1.00  0.00    -0.321 N 
HETATM   23  C18 UNL     1      24.268   7.661  50.508  1.00  0.00     0.215 C 
HETATM   24  C19 UNL     1      22.823   7.480  50.524  1.00  0.00     0.244 C 
HETATM   25  O4  UNL     1      21.698   7.441  51.072  1.00  0.00    -0.271 OA
HETATM   26  N6  UNL     1      22.061   7.141  49.369  1.00  0.00    -0.352 N 
HETATM   27  H14 UNL     1      20.956   1.524  47.013  1.00  0.00     0.161 HD
HETATM   28  H21 UNL     1      24.628   9.829  49.690  1.00  0.00     0.165 HD
HETATM   29  H23 UNL     1      22.765   7.456  48.624  1.00  0.00     0.163 HD
ENDROOT
BRANCH   1  30
HETATM   30  C2  UNL     1      19.984   7.853  48.370  1.00  0.00     0.193 C 
BRANCH  30  31
HETATM   31  O1  UNL     1      20.696   9.068  48.216  1.00  0.00    -0.394 OA
HETATM   32  C1  UNL     1      20.022  10.034  48.915  1.00  0.00     0.201 C 
ENDBRANCH  30  31
ENDBRANCH   1  30
BRANCH  16  33
HETATM   33  N4  UNL     1      25.780   4.447  49.190  1.00  0.00     0.086 N 
HETATM   34  H16 UNL     1      25.500   3.485  48.984  1.00  0.00     0.313 HD
HETATM   35  H17 UNL     1      26.043   5.018  48.362  1.00  0.00     0.313 HD
ENDBRANCH  16  33
TORSDOF 4
ENDMDL
