MODEL 1
REMARK VINA RESULT:      -8.5      0.000      0.000
REMARK  4 active torsions:
REMARK  status: ('A' for Active; 'I' for Inactive)
REMARK    1  A    between atoms: C1_2  and  C2_3 
REMARK    2  A    between atoms: C3_4  and  C4_5 
REMARK    3  A    between atoms: C5_6  and  N1_7 
REMARK    4  A    between atoms: N1_7  and  C6_8 
ROOT
HETATM    1  C6  UNL     1      25.039   2.643  50.641  1.00  0.00     0.112 C 
HETATM    2  C7  UNL     1      23.709   2.360  51.243  1.00  0.00     0.051 C 
HETATM    3  C8  UNL     1      23.518   2.984  52.594  1.00  0.00     0.152 C 
HETATM    4  N2  UNL     1      23.598   4.392  52.691  1.00  0.00    -0.285 NA
HETATM    5  C9  UNL     1      23.013   5.212  51.849  1.00  0.00     0.196 C 
HETATM    6  N3  UNL     1      22.273   4.700  50.792  1.00  0.00    -0.381 N 
HETATM    7  C10 UNL     1      22.914   5.102  49.604  1.00  0.00     0.159 C 
HETATM    8  C11 UNL     1      24.363   4.888  49.476  1.00  0.00    -0.031 A 
HETATM    9  C12 UNL     1      24.976   5.938  48.764  1.00  0.00     0.021 A 
HETATM   10  C13 UNL     1      26.315   6.044  48.475  1.00  0.00    -0.025 A 
HETATM   11  C14 UNL     1      26.819   7.120  47.767  1.00  0.00     0.012 A 
HETATM   12  C15 UNL     1      28.160   7.234  47.474  1.00  0.00     0.001 A 
HETATM   13  C16 UNL     1      28.990   6.236  47.911  1.00  0.00     0.001 A 
HETATM   14  C17 UNL     1      28.499   5.168  48.612  1.00  0.00     0.012 A 
HETATM   15  C18 UNL     1      27.154   5.067  48.899  1.00  0.00    -0.025 A 
HETATM   16  C19 UNL     1      26.580   4.035  49.595  1.00  0.00     0.022 A 
HETATM   17  C20 UNL     1      25.213   3.904  49.902  1.00  0.00    -0.027 A 
HETATM   18  H14 UNL     1      21.523   4.224  51.315  1.00  0.00     0.160 HD
ENDROOT
BRANCH   1  19
HETATM   19  N1  UNL     1      26.156   2.251  51.452  1.00  0.00    -0.404 N 
HETATM   20  H7  UNL     1      26.225   3.260  51.836  1.00  0.00     0.154 HD
BRANCH  19  21
HETATM   21  C5  UNL     1      27.243   1.869  52.242  1.00  0.00     0.126 C 
HETATM   22  C4  UNL     1      27.753   2.309  53.366  1.00  0.00    -0.000 C 
BRANCH  22  23
HETATM   23  C3  UNL     1      28.798   1.264  53.297  1.00  0.00    -0.004 C 
HETATM   24  C2  UNL     1      28.863  -0.077  53.406  1.00  0.00     0.004 C 
BRANCH  24  25
HETATM   25  C1  UNL     1      29.434  -1.444  53.439  1.00  0.00     0.249 C 
HETATM   26  F1  UNL     1      30.615  -1.440  54.121  1.00  0.00    -0.251 F 
ENDBRANCH  24  25
ENDBRANCH  22  23
ENDBRANCH  19  21
ENDBRANCH   1  19
TORSDOF 4
ENDMDL
MODEL 2
REMARK VINA RESULT:      -8.5      3.022      6.991
REMARK  4 active torsions:
REMARK  status: ('A' for Active; 'I' for Inactive)
REMARK    1  A    between atoms: C1_2  and  C2_3 
REMARK    2  A    between atoms: C3_4  and  C4_5 
REMARK    3  A    between atoms: C5_6  and  N1_7 
REMARK    4  A    between atoms: N1_7  and  C6_8 
ROOT
HETATM    1  C6  UNL     1      26.241   0.887  51.586  1.00  0.00     0.112 C 
HETATM    2  C7  UNL     1      27.507   0.506  52.267  1.00  0.00     0.051 C 
HETATM    3  C8  UNL     1      28.010   1.546  53.224  1.00  0.00     0.152 C 
HETATM    4  N2  UNL     1      27.180   1.902  54.311  1.00  0.00    -0.285 NA
HETATM    5  C9  UNL     1      26.546   1.028  55.057  1.00  0.00     0.196 C 
HETATM    6  N3  UNL     1      26.672  -0.328  54.787  1.00  0.00    -0.381 N 
HETATM    7  C10 UNL     1      25.394  -0.800  54.428  1.00  0.00     0.159 C 
HETATM    8  C11 UNL     1      24.626  -0.059  53.417  1.00  0.00    -0.031 A 
HETATM    9  C12 UNL     1      23.248  -0.069  53.709  1.00  0.00     0.021 A 
HETATM   10  C13 UNL     1      22.260   0.533  52.968  1.00  0.00    -0.025 A 
HETATM   11  C14 UNL     1      20.931   0.463  53.343  1.00  0.00     0.012 A 
HETATM   12  C15 UNL     1      19.935   1.065  52.606  1.00  0.00     0.001 A 
HETATM   13  C16 UNL     1      20.306   1.743  51.475  1.00  0.00     0.001 A 
HETATM   14  C17 UNL     1      21.619   1.815  51.097  1.00  0.00     0.012 A 
HETATM   15  C18 UNL     1      22.606   1.209  51.845  1.00  0.00    -0.025 A 
HETATM   16  C19 UNL     1      23.942   1.233  51.540  1.00  0.00     0.022 A 
HETATM   17  C20 UNL     1      24.971   0.625  52.282  1.00  0.00    -0.027 A 
HETATM   18  H14 UNL     1      27.678  -0.452  54.971  1.00  0.00     0.160 HD
ENDROOT
BRANCH   1  19
HETATM   19  N1  UNL     1      26.301   2.129  50.870  1.00  0.00    -0.404 N 
HETATM   20  H7  UNL     1      25.259   2.018  50.599  1.00  0.00     0.154 HD
BRANCH  19  21
HETATM   21  C5  UNL     1      26.358   3.339  50.174  1.00  0.00     0.126 C 
HETATM   22  C4  UNL     1      25.491   4.036  49.482  1.00  0.00    -0.000 C 
BRANCH  22  23
HETATM   23  C3  UNL     1      26.528   5.055  49.213  1.00  0.00    -0.004 C 
HETATM   24  C2  UNL     1      27.747   5.097  48.643  1.00  0.00     0.004 C 
BRANCH  24  25
HETATM   25  C1  UNL     1      29.035   5.641  48.152  1.00  0.00     0.249 C 
HETATM   26  F1  UNL     1      29.847   4.623  47.745  1.00  0.00    -0.251 F 
ENDBRANCH  24  25
ENDBRANCH  22  23
ENDBRANCH  19  21
ENDBRANCH   1  19
TORSDOF 4
ENDMDL
MODEL 3
REMARK VINA RESULT:      -8.2      3.675      7.891
REMARK  4 active torsions:
REMARK  status: ('A' for Active; 'I' for Inactive)
REMARK    1  A    between atoms: C1_2  and  C2_3 
REMARK    2  A    between atoms: C3_4  and  C4_5 
REMARK    3  A    between atoms: C5_6  and  N1_7 
REMARK    4  A    between atoms: N1_7  and  C6_8 
ROOT
HETATM    1  C6  UNL     1      25.381   1.665  51.613  1.00  0.00     0.112 C 
HETATM    2  C7  UNL     1      26.863   1.647  51.729  1.00  0.00     0.051 C 
HETATM    3  C8  UNL     1      27.381   2.413  52.911  1.00  0.00     0.152 C 
HETATM    4  N2  UNL     1      26.974   2.000  54.199  1.00  0.00    -0.285 NA
HETATM    5  C9  UNL     1      26.954   0.745  54.586  1.00  0.00     0.196 C 
HETATM    6  N3  UNL     1      27.343  -0.254  53.705  1.00  0.00    -0.381 N 
HETATM    7  C10 UNL     1      26.217  -1.068  53.477  1.00  0.00     0.159 C 
HETATM    8  C11 UNL     1      24.941  -0.426  53.126  1.00  0.00    -0.031 A 
HETATM    9  C12 UNL     1      23.848  -1.112  53.692  1.00  0.00     0.021 A 
HETATM   10  C13 UNL     1      22.524  -0.770  53.560  1.00  0.00    -0.025 A 
HETATM   11  C14 UNL     1      21.523  -1.514  54.159  1.00  0.00     0.012 A 
HETATM   12  C15 UNL     1      20.193  -1.177  54.032  1.00  0.00     0.001 A 
HETATM   13  C16 UNL     1      19.889  -0.070  53.285  1.00  0.00     0.001 A 
HETATM   14  C17 UNL     1      20.874   0.670  52.690  1.00  0.00     0.012 A 
HETATM   15  C18 UNL     1      22.201   0.322  52.826  1.00  0.00    -0.025 A 
HETATM   16  C19 UNL     1      23.248   1.007  52.265  1.00  0.00     0.022 A 
HETATM   17  C20 UNL     1      24.611   0.676  52.385  1.00  0.00    -0.027 A 
HETATM   18  H14 UNL     1      28.332   0.002  53.572  1.00  0.00     0.160 HD
ENDROOT
BRANCH   1  19
HETATM   19  N1  UNL     1      24.804   2.977  51.554  1.00  0.00    -0.404 N 
HETATM   20  H7  UNL     1      24.687   2.969  52.629  1.00  0.00     0.154 HD
BRANCH  19  21
HETATM   21  C5  UNL     1      24.243   4.255  51.496  1.00  0.00     0.126 C 
HETATM   22  C4  UNL     1      23.332   4.885  52.198  1.00  0.00    -0.000 C 
BRANCH  22  23
HETATM   23  C3  UNL     1      23.503   6.079  51.343  1.00  0.00    -0.004 C 
HETATM   24  C2  UNL     1      24.524   6.830  50.887  1.00  0.00     0.004 C 
BRANCH  24  25
HETATM   25  C1  UNL     1      25.248   7.905  50.168  1.00  0.00     0.249 C 
HETATM   26  F1  UNL     1      26.594   7.744  50.321  1.00  0.00    -0.251 F 
ENDBRANCH  24  25
ENDBRANCH  22  23
ENDBRANCH  19  21
ENDBRANCH   1  19
TORSDOF 4
ENDMDL
MODEL 4
REMARK VINA RESULT:      -8.1      2.586      6.177
REMARK  4 active torsions:
REMARK  status: ('A' for Active; 'I' for Inactive)
REMARK    1  A    between atoms: C1_2  and  C2_3 
REMARK    2  A    between atoms: C3_4  and  C4_5 
REMARK    3  A    between atoms: C5_6  and  N1_7 
REMARK    4  A    between atoms: N1_7  and  C6_8 
ROOT
HETATM    1  C6  UNL     1      23.668   3.568  52.220  1.00  0.00     0.112 C 
HETATM    2  C7  UNL     1      22.199   3.593  51.988  1.00  0.00     0.051 C 
HETATM    3  C8  UNL     1      21.797   3.083  50.635  1.00  0.00     0.152 C 
HETATM    4  N2  UNL     1      22.131   1.751  50.303  1.00  0.00    -0.285 NA
HETATM    5  C9  UNL     1      21.960   0.735  51.117  1.00  0.00     0.196 C 
HETATM    6  N3  UNL     1      21.429   0.948  52.381  1.00  0.00    -0.381 N 
HETATM    7  C10 UNL     1      22.420   0.587  53.314  1.00  0.00     0.159 C 
HETATM    8  C11 UNL     1      23.780   1.119  53.141  1.00  0.00    -0.031 A 
HETATM    9  C12 UNL     1      24.753   0.175  53.520  1.00  0.00     0.021 A 
HETATM   10  C13 UNL     1      26.115   0.356  53.477  1.00  0.00    -0.025 A 
HETATM   11  C14 UNL     1      26.989  -0.639  53.874  1.00  0.00     0.012 A 
HETATM   12  C15 UNL     1      28.355  -0.466  53.832  1.00  0.00     0.001 A 
HETATM   13  C16 UNL     1      28.827   0.738  53.379  1.00  0.00     0.001 A 
HETATM   14  C17 UNL     1      27.968   1.727  52.985  1.00  0.00     0.012 A 
HETATM   15  C18 UNL     1      26.602   1.540  53.032  1.00  0.00    -0.025 A 
HETATM   16  C19 UNL     1      25.674   2.476  52.656  1.00  0.00     0.022 A 
HETATM   17  C20 UNL     1      24.276   2.314  52.693  1.00  0.00    -0.027 A 
HETATM   18  H14 UNL     1      20.490   1.287  52.124  1.00  0.00     0.160 HD
ENDROOT
BRANCH   1  19
HETATM   19  N1  UNL     1      24.436   4.292  51.248  1.00  0.00    -0.404 N 
HETATM   20  H7  UNL     1      25.321   3.747  51.548  1.00  0.00     0.154 HD
BRANCH  19  21
HETATM   21  C5  UNL     1      25.184   4.996  50.302  1.00  0.00     0.126 C 
HETATM   22  C4  UNL     1      24.980   5.352  49.057  1.00  0.00    -0.000 C 
BRANCH  22  23
HETATM   23  C3  UNL     1      26.309   6.000  49.027  1.00  0.00    -0.004 C 
HETATM   24  C2  UNL     1      27.523   5.741  48.506  1.00  0.00     0.004 C 
BRANCH  24  25
HETATM   25  C1  UNL     1      28.956   5.908  48.166  1.00  0.00     0.249 C 
HETATM   26  F1  UNL     1      29.500   4.704  47.832  1.00  0.00    -0.251 F 
ENDBRANCH  24  25
ENDBRANCH  22  23
ENDBRANCH  19  21
ENDBRANCH   1  19
TORSDOF 4
ENDMDL
MODEL 5
REMARK VINA RESULT:      -8.0      1.448      2.171
REMARK  4 active torsions:
REMARK  status: ('A' for Active; 'I' for Inactive)
REMARK    1  A    between atoms: C1_2  and  C2_3 
REMARK    2  A    between atoms: C3_4  and  C4_5 
REMARK    3  A    between atoms: C5_6  and  N1_7 
REMARK    4  A    between atoms: N1_7  and  C6_8 
ROOT
HETATM    1  C6  UNL     1      25.030   4.422  49.452  1.00  0.00     0.112 C 
HETATM    2  C7  UNL     1      23.626   4.728  49.833  1.00  0.00     0.051 C 
HETATM    3  C8  UNL     1      23.494   5.334  51.200  1.00  0.00     0.152 C 
HETATM    4  N2  UNL     1      24.146   6.563  51.444  1.00  0.00    -0.285 NA
HETATM    5  C9  UNL     1      24.114   7.580  50.614  1.00  0.00     0.196 C 
HETATM    6  N3  UNL     1      23.416   7.471  49.420  1.00  0.00    -0.381 N 
HETATM    7  C10 UNL     1      24.355   7.589  48.377  1.00  0.00     0.159 C 
HETATM    8  C11 UNL     1      25.576   6.771  48.431  1.00  0.00    -0.031 A 
HETATM    9  C12 UNL     1      26.686   7.470  47.918  1.00  0.00     0.021 A 
HETATM   10  C13 UNL     1      27.971   6.992  47.829  1.00  0.00    -0.025 A 
HETATM   11  C14 UNL     1      28.995   7.762  47.307  1.00  0.00     0.012 A 
HETATM   12  C15 UNL     1      30.285   7.291  47.216  1.00  0.00     0.001 A 
HETATM   13  C16 UNL     1      30.528   6.019  47.664  1.00  0.00     0.001 A 
HETATM   14  C17 UNL     1      29.521   5.251  48.181  1.00  0.00     0.012 A 
HETATM   15  C18 UNL     1      28.233   5.736  48.267  1.00  0.00    -0.025 A 
HETATM   16  C19 UNL     1      27.168   5.036  48.772  1.00  0.00     0.022 A 
HETATM   17  C20 UNL     1      25.844   5.503  48.872  1.00  0.00    -0.027 A 
HETATM   18  H14 UNL     1      22.459   7.353  49.784  1.00  0.00     0.160 HD
ENDROOT
BRANCH   1  19
HETATM   19  N1  UNL     1      25.722   3.561  50.367  1.00  0.00    -0.404 N 
HETATM   20  H7  UNL     1      25.146   3.974  51.184  1.00  0.00     0.154 HD
BRANCH  19  21
HETATM   21  C5  UNL     1      26.396   2.722  51.259  1.00  0.00     0.126 C 
HETATM   22  C4  UNL     1      26.163   1.525  51.740  1.00  0.00    -0.000 C 
BRANCH  22  23
HETATM   23  C3  UNL     1      27.412   1.602  52.528  1.00  0.00    -0.004 C 
HETATM   24  C2  UNL     1      28.239   0.744  53.154  1.00  0.00     0.004 C 
BRANCH  24  25
HETATM   25  C1  UNL     1      29.390   0.247  53.945  1.00  0.00     0.249 C 
HETATM   26  F1  UNL     1      30.191  -0.533  53.164  1.00  0.00    -0.251 F 
ENDBRANCH  24  25
ENDBRANCH  22  23
ENDBRANCH  19  21
ENDBRANCH   1  19
TORSDOF 4
ENDMDL
MODEL 6
REMARK VINA RESULT:      -8.0      2.642      6.048
REMARK  4 active torsions:
REMARK  status: ('A' for Active; 'I' for Inactive)
REMARK    1  A    between atoms: C1_2  and  C2_3 
REMARK    2  A    between atoms: C3_4  and  C4_5 
REMARK    3  A    between atoms: C5_6  and  N1_7 
REMARK    4  A    between atoms: N1_7  and  C6_8 
ROOT
HETATM    1  C6  UNL     1      24.158   3.413  52.426  1.00  0.00     0.112 C 
HETATM    2  C7  UNL     1      24.236   4.546  51.466  1.00  0.00     0.051 C 
HETATM    3  C8  UNL     1      24.764   4.154  50.117  1.00  0.00     0.152 C 
HETATM    4  N2  UNL     1      24.045   3.186  49.380  1.00  0.00    -0.285 NA
HETATM    5  C9  UNL     1      22.739   3.197  49.247  1.00  0.00     0.196 C 
HETATM    6  N3  UNL     1      21.994   4.198  49.855  1.00  0.00    -0.381 N 
HETATM    7  C10 UNL     1      21.160   3.576  50.805  1.00  0.00     0.159 C 
HETATM    8  C11 UNL     1      21.756   2.619  51.749  1.00  0.00    -0.031 A 
HETATM    9  C12 UNL     1      20.876   1.556  52.028  1.00  0.00     0.021 A 
HETATM   10  C13 UNL     1      21.129   0.495  52.865  1.00  0.00    -0.025 A 
HETATM   11  C14 UNL     1      20.192  -0.501  53.071  1.00  0.00     0.012 A 
HETATM   12  C15 UNL     1      20.438  -1.567  53.908  1.00  0.00     0.001 A 
HETATM   13  C16 UNL     1      21.654  -1.611  54.538  1.00  0.00     0.001 A 
HETATM   14  C17 UNL     1      22.585  -0.628  54.338  1.00  0.00     0.012 A 
HETATM   15  C18 UNL     1      22.325   0.434  53.497  1.00  0.00    -0.025 A 
HETATM   16  C19 UNL     1      23.200   1.458  53.242  1.00  0.00     0.022 A 
HETATM   17  C20 UNL     1      22.964   2.553  52.390  1.00  0.00    -0.027 A 
HETATM   18  H14 UNL     1      22.353   5.019  49.347  1.00  0.00     0.160 HD
ENDROOT
BRANCH   1  19
HETATM   19  N1  UNL     1      25.400   2.727  52.639  1.00  0.00    -0.404 N 
HETATM   20  H7  UNL     1      25.793   3.602  53.138  1.00  0.00     0.154 HD
BRANCH  19  21
HETATM   21  C5  UNL     1      26.609   2.058  52.846  1.00  0.00     0.126 C 
HETATM   22  C4  UNL     1      27.730   2.365  53.452  1.00  0.00    -0.000 C 
BRANCH  22  23
HETATM   23  C3  UNL     1      28.284   1.042  53.091  1.00  0.00    -0.004 C 
HETATM   24  C2  UNL     1      29.075   0.114  53.661  1.00  0.00     0.004 C 
BRANCH  24  25
HETATM   25  C1  UNL     1      29.851  -1.137  53.834  1.00  0.00     0.249 C 
HETATM   26  F1  UNL     1      29.357  -2.110  53.015  1.00  0.00    -0.251 F 
ENDBRANCH  24  25
ENDBRANCH  22  23
ENDBRANCH  19  21
ENDBRANCH   1  19
TORSDOF 4
ENDMDL
MODEL 7
REMARK VINA RESULT:      -8.0      3.068      6.430
REMARK  4 active torsions:
REMARK  status: ('A' for Active; 'I' for Inactive)
REMARK    1  A    between atoms: C1_2  and  C2_3 
REMARK    2  A    between atoms: C3_4  and  C4_5 
REMARK    3  A    between atoms: C5_6  and  N1_7 
REMARK    4  A    between atoms: N1_7  and  C6_8 
ROOT
HETATM    1  C6  UNL     1      23.041   3.704  50.283  1.00  0.00     0.112 C 
HETATM    2  C7  UNL     1      21.954   3.940  49.296  1.00  0.00     0.051 C 
HETATM    3  C8  UNL     1      22.179   3.251  47.982  1.00  0.00     0.152 C 
HETATM    4  N2  UNL     1      22.284   1.842  47.982  1.00  0.00    -0.285 NA
HETATM    5  C9  UNL     1      21.473   1.053  48.648  1.00  0.00     0.196 C 
HETATM    6  N3  UNL     1      20.449   1.601  49.408  1.00  0.00    -0.381 N 
HETATM    7  C10 UNL     1      20.703   1.264  50.751  1.00  0.00     0.159 C 
HETATM    8  C11 UNL     1      22.046   1.505  51.298  1.00  0.00    -0.031 A 
HETATM    9  C12 UNL     1      22.417   0.498  52.211  1.00  0.00     0.021 A 
HETATM   10  C13 UNL     1      23.608   0.426  52.894  1.00  0.00    -0.025 A 
HETATM   11  C14 UNL     1      23.875  -0.609  53.772  1.00  0.00     0.012 A 
HETATM   12  C15 UNL     1      25.065  -0.689  54.459  1.00  0.00     0.001 A 
HETATM   13  C16 UNL     1      25.989   0.299  54.244  1.00  0.00     0.001 A 
HETATM   14  C17 UNL     1      25.731   1.326  53.377  1.00  0.00     0.012 A 
HETATM   15  C18 UNL     1      24.535   1.394  52.695  1.00  0.00    -0.025 A 
HETATM   16  C19 UNL     1      24.197   2.385  51.810  1.00  0.00     0.022 A 
HETATM   17  C20 UNL     1      22.985   2.481  51.101  1.00  0.00    -0.027 A 
HETATM   18  H14 UNL     1      19.892   2.042  48.661  1.00  0.00     0.160 HD
ENDROOT
BRANCH   1  19
HETATM   19  N1  UNL     1      24.350   4.075  49.827  1.00  0.00    -0.404 N 
HETATM   20  H7  UNL     1      24.555   4.521  50.792  1.00  0.00     0.154 HD
BRANCH  19  21
HETATM   21  C5  UNL     1      25.625   4.436  49.384  1.00  0.00     0.126 C 
HETATM   22  C4  UNL     1      26.792   3.840  49.377  1.00  0.00    -0.000 C 
BRANCH  22  23
HETATM   23  C3  UNL     1      27.391   5.028  48.730  1.00  0.00    -0.004 C 
HETATM   24  C2  UNL     1      28.616   5.426  48.337  1.00  0.00     0.004 C 
BRANCH  24  25
HETATM   25  C1  UNL     1      29.685   6.277  47.764  1.00  0.00     0.249 C 
HETATM   26  F1  UNL     1      30.887   5.638  47.848  1.00  0.00    -0.251 F 
ENDBRANCH  24  25
ENDBRANCH  22  23
ENDBRANCH  19  21
ENDBRANCH   1  19
TORSDOF 4
ENDMDL
MODEL 8
REMARK VINA RESULT:      -7.9      4.770      7.431
REMARK  4 active torsions:
REMARK  status: ('A' for Active; 'I' for Inactive)
REMARK    1  A    between atoms: C1_2  and  C2_3 
REMARK    2  A    between atoms: C3_4  and  C4_5 
REMARK    3  A    between atoms: C5_6  and  N1_7 
REMARK    4  A    between atoms: N1_7  and  C6_8 
ROOT
HETATM    1  C6  UNL     1      21.497   1.417  50.802  1.00  0.00     0.112 C 
HETATM    2  C7  UNL     1      20.847   2.481  49.991  1.00  0.00     0.051 C 
HETATM    3  C8  UNL     1      19.981   3.405  50.797  1.00  0.00     0.152 C 
HETATM    4  N2  UNL     1      20.590   4.147  51.834  1.00  0.00    -0.285 NA
HETATM    5  C9  UNL     1      21.733   4.779  51.700  1.00  0.00     0.196 C 
HETATM    6  N3  UNL     1      22.408   4.731  50.488  1.00  0.00    -0.381 N 
HETATM    7  C10 UNL     1      23.633   4.076  50.722  1.00  0.00     0.159 C 
HETATM    8  C11 UNL     1      23.624   2.799  51.451  1.00  0.00    -0.031 A 
HETATM    9  C12 UNL     1      24.754   2.675  52.283  1.00  0.00     0.021 A 
HETATM   10  C13 UNL     1      25.044   1.606  53.098  1.00  0.00    -0.025 A 
HETATM   11  C14 UNL     1      26.185   1.582  53.879  1.00  0.00     0.012 A 
HETATM   12  C15 UNL     1      26.482   0.516  54.698  1.00  0.00     0.001 A 
HETATM   13  C16 UNL     1      25.601  -0.533  54.717  1.00  0.00     0.001 A 
HETATM   14  C17 UNL     1      24.470  -0.515  53.947  1.00  0.00     0.012 A 
HETATM   15  C18 UNL     1      24.185   0.559  53.131  1.00  0.00    -0.025 A 
HETATM   16  C19 UNL     1      23.077   0.657  52.330  1.00  0.00     0.022 A 
HETATM   17  C20 UNL     1      22.759   1.739  51.487  1.00  0.00    -0.027 A 
HETATM   18  H14 UNL     1      21.727   5.215  49.886  1.00  0.00     0.160 HD
ENDROOT
BRANCH   1  19
HETATM   19  N1  UNL     1      20.586   0.600  51.551  1.00  0.00    -0.404 N 
HETATM   20  H7  UNL     1      19.753   1.104  51.080  1.00  0.00     0.154 HD
BRANCH  19  21
HETATM   21  C5  UNL     1      19.699  -0.195  52.281  1.00  0.00     0.126 C 
HETATM   22  C4  UNL     1      19.638  -0.584  53.531  1.00  0.00    -0.000 C 
BRANCH  22  23
HETATM   23  C3  UNL     1      18.397  -1.332  53.235  1.00  0.00    -0.004 C 
HETATM   24  C2  UNL     1      17.881  -2.541  53.523  1.00  0.00     0.004 C 
BRANCH  24  25
HETATM   25  C1  UNL     1      16.929  -3.677  53.551  1.00  0.00     0.249 C 
HETATM   26  F1  UNL     1      17.534  -4.806  53.084  1.00  0.00    -0.251 F 
ENDBRANCH  24  25
ENDBRANCH  22  23
ENDBRANCH  19  21
ENDBRANCH   1  19
TORSDOF 4
ENDMDL
MODEL 9
REMARK VINA RESULT:      -7.9      4.269      6.685
REMARK  4 active torsions:
REMARK  status: ('A' for Active; 'I' for Inactive)
REMARK    1  A    between atoms: C1_2  and  C2_3 
REMARK    2  A    between atoms: C3_4  and  C4_5 
REMARK    3  A    between atoms: C5_6  and  N1_7 
REMARK    4  A    between atoms: N1_7  and  C6_8 
ROOT
HETATM    1  C6  UNL     1      30.141   6.956  47.952  1.00  0.00     0.112 C 
HETATM    2  C7  UNL     1      30.689   8.179  47.309  1.00  0.00     0.051 C 
HETATM    3  C8  UNL     1      30.712   8.110  45.810  1.00  0.00     0.152 C 
HETATM    4  N2  UNL     1      29.481   7.942  45.136  1.00  0.00    -0.285 NA
HETATM    5  C9  UNL     1      28.393   8.616  45.432  1.00  0.00     0.196 C 
HETATM    6  N3  UNL     1      28.419   9.547  46.460  1.00  0.00    -0.381 N 
HETATM    7  C10 UNL     1      27.529   9.093  47.453  1.00  0.00     0.159 C 
HETATM    8  C11 UNL     1      27.630   7.699  47.909  1.00  0.00    -0.031 A 
HETATM    9  C12 UNL     1      26.362   7.159  48.197  1.00  0.00     0.021 A 
HETATM   10  C13 UNL     1      26.108   5.883  48.639  1.00  0.00    -0.025 A 
HETATM   11  C14 UNL     1      24.820   5.449  48.894  1.00  0.00     0.012 A 
HETATM   12  C15 UNL     1      24.558   4.172  49.337  1.00  0.00     0.001 A 
HETATM   13  C16 UNL     1      25.625   3.333  49.520  1.00  0.00     0.001 A 
HETATM   14  C17 UNL     1      26.902   3.756  49.269  1.00  0.00     0.012 A 
HETATM   15  C18 UNL     1      27.150   5.037  48.826  1.00  0.00    -0.025 A 
HETATM   16  C19 UNL     1      28.396   5.540  48.551  1.00  0.00     0.022 A 
HETATM   17  C20 UNL     1      28.681   6.842  48.099  1.00  0.00    -0.027 A 
HETATM   18  H14 UNL     1      29.093  10.223  46.071  1.00  0.00     0.160 HD
ENDROOT
BRANCH   1  19
HETATM   19  N1  UNL     1      30.816   5.741  47.593  1.00  0.00    -0.404 N 
HETATM   20  H7  UNL     1      31.698   6.312  47.337  1.00  0.00     0.154 HD
BRANCH  19  21
HETATM   21  C5  UNL     1      31.473   4.559  47.244  1.00  0.00     0.126 C 
HETATM   22  C4  UNL     1      32.662   4.068  47.492  1.00  0.00    -0.000 C 
BRANCH  22  23
HETATM   23  C3  UNL     1      32.326   2.863  46.703  1.00  0.00    -0.004 C 
HETATM   24  C2  UNL     1      32.202   1.540  46.924  1.00  0.00     0.004 C 
BRANCH  24  25
HETATM   25  C1  UNL     1      31.955   0.103  46.661  1.00  0.00     0.249 C 
HETATM   26  F1  UNL     1      32.361  -0.643  47.728  1.00  0.00    -0.251 F 
ENDBRANCH  24  25
ENDBRANCH  22  23
ENDBRANCH  19  21
ENDBRANCH   1  19
TORSDOF 4
ENDMDL
