MODEL 1
REMARK VINA RESULT:      -7.0      0.000      0.000
REMARK  6 active torsions:
REMARK  status: ('A' for Active; 'I' for Inactive)
REMARK    1  A    between atoms: O1_2  and  C2_3 
REMARK    2  A    between atoms: C2_3  and  N1_4 
REMARK    3  A    between atoms: N1_4  and  C3_5 
REMARK    4  A    between atoms: C6_8  and  N2_9 
REMARK    5  A    between atoms: C10_13  and  O2_14 
REMARK    6  A    between atoms: C12_16  and  O3_17 
ROOT
HETATM    1  N2  UNL     1      23.422   1.421  52.088  1.00  0.00    -0.307 N 
HETATM    2  C7  UNL     1      22.443   1.031  51.149  1.00  0.00     0.149 C 
HETATM    3  C8  UNL     1      21.419   0.069  51.469  1.00  0.00     0.019 C 
HETATM    4  C9  UNL     1      20.194   0.663  51.671  1.00  0.00     0.112 C 
HETATM    5  C10 UNL     1      19.328   1.905  51.756  1.00  0.00     0.082 C 
HETATM    6  C12 UNL     1      19.156   3.280  51.738  1.00  0.00     0.140 C 
HETATM    7  C14 UNL     1      20.271   4.279  51.600  1.00  0.00     0.193 C 
HETATM    8  N3  UNL     1      21.538   3.770  51.688  1.00  0.00    -0.286 NA
HETATM    9  C15 UNL     1      22.715   3.769  51.243  1.00  0.00     0.190 C 
HETATM   10  N4  UNL     1      22.846   2.754  52.300  1.00  0.00    -0.197 NA
HETATM   11  H22 UNL     1      23.346   2.625  51.340  1.00  0.00     0.153 HD
ENDROOT
BRANCH   1  12
HETATM   12  C6  UNL     1      24.514   0.680  52.568  1.00  0.00     0.046 A 
HETATM   13  C5  UNL     1      24.498  -0.213  53.606  1.00  0.00     0.033 A 
HETATM   14  C4  UNL     1      25.675  -0.848  53.936  1.00  0.00     0.031 A 
HETATM   15  C3  UNL     1      26.848  -0.576  53.217  1.00  0.00     0.029 A 
HETATM   16  C17 UNL     1      26.863   0.337  52.155  1.00  0.00     0.031 A 
HETATM   17  C16 UNL     1      25.669   0.973  51.829  1.00  0.00     0.033 A 
BRANCH  15  18
HETATM   18  N1  UNL     1      28.063  -1.238  53.538  1.00  0.00    -0.369 N 
HETATM   19  H6  UNL     1      28.080  -2.268  53.534  1.00  0.00     0.161 HD
BRANCH  18  20
HETATM   20  C2  UNL     1      29.287  -0.528  53.874  1.00  0.00     0.289 C 
BRANCH  20  21
HETATM   21  O1  UNL     1      28.977   0.368  54.878  1.00  0.00    -0.377 OA
HETATM   22  C1  UNL     1      29.418   1.639  54.584  1.00  0.00     0.203 C 
ENDBRANCH  20  21
ENDBRANCH  18  20
ENDBRANCH  15  18
ENDBRANCH   1  12
BRANCH   5  23
HETATM   23  O2  UNL     1      18.172   1.143  51.944  1.00  0.00    -0.387 OA
HETATM   24  C11 UNL     1      17.816   0.001  51.240  1.00  0.00     0.202 C 
ENDBRANCH   5  23
BRANCH   6  25
HETATM   25  O3  UNL     1      17.830   3.608  51.890  1.00  0.00    -0.377 OA
HETATM   26  C13 UNL     1      17.023   4.219  50.920  1.00  0.00     0.202 C 
ENDBRANCH   6  25
TORSDOF 6
ENDMDL
MODEL 2
REMARK VINA RESULT:      -7.0      1.989      2.764
REMARK  6 active torsions:
REMARK  status: ('A' for Active; 'I' for Inactive)
REMARK    1  A    between atoms: O1_2  and  C2_3 
REMARK    2  A    between atoms: C2_3  and  N1_4 
REMARK    3  A    between atoms: N1_4  and  C3_5 
REMARK    4  A    between atoms: C6_8  and  N2_9 
REMARK    5  A    between atoms: C10_13  and  O2_14 
REMARK    6  A    between atoms: C12_16  and  O3_17 
ROOT
HETATM    1  N2  UNL     1      20.654   1.358  52.421  1.00  0.00    -0.307 N 
HETATM    2  C7  UNL     1      19.825   0.924  51.364  1.00  0.00     0.149 C 
HETATM    3  C8  UNL     1      18.863  -0.135  51.534  1.00  0.00     0.019 C 
HETATM    4  C9  UNL     1      17.575   0.342  51.614  1.00  0.00     0.112 C 
HETATM    5  C10 UNL     1      16.596   1.500  51.639  1.00  0.00     0.082 C 
HETATM    6  C12 UNL     1      16.303   2.854  51.645  1.00  0.00     0.140 C 
HETATM    7  C14 UNL     1      17.332   3.951  51.668  1.00  0.00     0.193 C 
HETATM    8  N3  UNL     1      18.621   3.550  51.883  1.00  0.00    -0.286 NA
HETATM    9  C15 UNL     1      19.836   3.669  51.576  1.00  0.00     0.190 C 
HETATM   10  N4  UNL     1      19.940   2.626  52.608  1.00  0.00    -0.197 NA
HETATM   11  H22 UNL     1      20.554   2.581  51.708  1.00  0.00     0.153 HD
ENDROOT
BRANCH   1  12
HETATM   12  C6  UNL     1      21.749   0.694  52.999  1.00  0.00     0.046 A 
HETATM   13  C5  UNL     1      21.693  -0.307  53.931  1.00  0.00     0.033 A 
HETATM   14  C4  UNL     1      22.880  -0.840  54.385  1.00  0.00     0.031 A 
HETATM   15  C3  UNL     1      24.103  -0.357  53.894  1.00  0.00     0.029 A 
HETATM   16  C17 UNL     1      24.158   0.666  52.940  1.00  0.00     0.031 A 
HETATM   17  C16 UNL     1      22.954   1.198  52.488  1.00  0.00     0.033 A 
BRANCH  15  18
HETATM   18  N1  UNL     1      25.331  -0.911  54.344  1.00  0.00    -0.369 N 
HETATM   19  H6  UNL     1      25.305  -1.705  54.999  1.00  0.00     0.161 HD
BRANCH  18  20
HETATM   20  C2  UNL     1      26.628  -0.410  53.918  1.00  0.00     0.289 C 
BRANCH  20  21
HETATM   21  O1  UNL     1      27.430  -0.347  55.041  1.00  0.00    -0.377 OA
HETATM   22  C1  UNL     1      28.666   0.189  54.757  1.00  0.00     0.203 C 
ENDBRANCH  20  21
ENDBRANCH  18  20
ENDBRANCH  15  18
ENDBRANCH   1  12
BRANCH   5  23
HETATM   23  O2  UNL     1      15.499   0.633  51.669  1.00  0.00    -0.387 OA
HETATM   24  C11 UNL     1      15.179  -0.253  52.688  1.00  0.00     0.202 C 
ENDBRANCH   5  23
BRANCH   6  25
HETATM   25  O3  UNL     1      14.944   3.059  51.656  1.00  0.00    -0.377 OA
HETATM   26  C13 UNL     1      14.234   3.771  52.633  1.00  0.00     0.202 C 
ENDBRANCH   6  25
TORSDOF 6
ENDMDL
MODEL 3
REMARK VINA RESULT:      -6.6      1.987      2.981
REMARK  6 active torsions:
REMARK  status: ('A' for Active; 'I' for Inactive)
REMARK    1  A    between atoms: O1_2  and  C2_3 
REMARK    2  A    between atoms: C2_3  and  N1_4 
REMARK    3  A    between atoms: N1_4  and  C3_5 
REMARK    4  A    between atoms: C6_8  and  N2_9 
REMARK    5  A    between atoms: C10_13  and  O2_14 
REMARK    6  A    between atoms: C12_16  and  O3_17 
ROOT
HETATM    1  N2  UNL     1      22.953   0.596  53.119  1.00  0.00    -0.307 N 
HETATM    2  C7  UNL     1      22.030   1.591  52.730  1.00  0.00     0.149 C 
HETATM    3  C8  UNL     1      21.824   1.941  51.348  1.00  0.00     0.019 C 
HETATM    4  C9  UNL     1      20.642   1.435  50.856  1.00  0.00     0.112 C 
HETATM    5  C10 UNL     1      19.377   0.620  51.042  1.00  0.00     0.082 C 
HETATM    6  C12 UNL     1      18.552  -0.204  51.790  1.00  0.00     0.140 C 
HETATM    7  C14 UNL     1      18.880  -0.723  53.163  1.00  0.00     0.193 C 
HETATM    8  N3  UNL     1      20.159  -0.499  53.592  1.00  0.00    -0.286 NA
HETATM    9  C15 UNL     1      20.918  -0.162  54.537  1.00  0.00     0.190 C 
HETATM   10  N4  UNL     1      21.917  -0.379  53.479  1.00  0.00    -0.197 NA
HETATM   11  H22 UNL     1      22.018   0.451  54.178  1.00  0.00     0.153 HD
ENDROOT
BRANCH   1  12
HETATM   12  C6  UNL     1      24.356   0.655  53.106  1.00  0.00     0.046 A 
HETATM   13  C5  UNL     1      25.212  -0.396  52.915  1.00  0.00     0.033 A 
HETATM   14  C4  UNL     1      26.567  -0.144  52.937  1.00  0.00     0.031 A 
HETATM   15  C3  UNL     1      27.037   1.161  53.150  1.00  0.00     0.029 A 
HETATM   16  C17 UNL     1      26.161   2.235  53.345  1.00  0.00     0.031 A 
HETATM   17  C16 UNL     1      24.794   1.969  53.322  1.00  0.00     0.033 A 
BRANCH  15  18
HETATM   18  N1  UNL     1      28.432   1.433  53.158  1.00  0.00    -0.369 N 
HETATM   19  H6  UNL     1      28.813   2.078  52.451  1.00  0.00     0.161 HD
BRANCH  18  20
HETATM   20  C2  UNL     1      29.348   0.844  54.121  1.00  0.00     0.289 C 
BRANCH  20  21
HETATM   21  O1  UNL     1      30.187  -0.002  53.422  1.00  0.00    -0.377 OA
HETATM   22  C1  UNL     1      29.942  -1.324  53.716  1.00  0.00     0.203 C 
ENDBRANCH  20  21
ENDBRANCH  18  20
ENDBRANCH  15  18
ENDBRANCH   1  12
BRANCH   5  23
HETATM   23  O2  UNL     1      18.918   0.955  49.765  1.00  0.00    -0.387 OA
HETATM   24  C11 UNL     1      18.699   2.236  49.279  1.00  0.00     0.202 C 
ENDBRANCH   5  23
BRANCH   6  25
HETATM   25  O3  UNL     1      17.405  -0.507  51.096  1.00  0.00    -0.377 OA
HETATM   26  C13 UNL     1      16.096  -0.322  51.562  1.00  0.00     0.202 C 
ENDBRANCH   6  25
TORSDOF 6
ENDMDL
MODEL 4
REMARK VINA RESULT:      -6.6      3.900      5.817
REMARK  6 active torsions:
REMARK  status: ('A' for Active; 'I' for Inactive)
REMARK    1  A    between atoms: O1_2  and  C2_3 
REMARK    2  A    between atoms: C2_3  and  N1_4 
REMARK    3  A    between atoms: N1_4  and  C3_5 
REMARK    4  A    between atoms: C6_8  and  N2_9 
REMARK    5  A    between atoms: C10_13  and  O2_14 
REMARK    6  A    between atoms: C12_16  and  O3_17 
ROOT
HETATM    1  N2  UNL     1      22.862   3.166  50.876  1.00  0.00    -0.307 N 
HETATM    2  C7  UNL     1      23.246   1.872  51.290  1.00  0.00     0.149 C 
HETATM    3  C8  UNL     1      23.564   1.573  52.663  1.00  0.00     0.019 C 
HETATM    4  C9  UNL     1      22.557   0.873  53.288  1.00  0.00     0.112 C 
HETATM    5  C10 UNL     1      21.180   0.239  53.265  1.00  0.00     0.082 C 
HETATM    6  C12 UNL     1      19.975  -0.045  52.643  1.00  0.00     0.140 C 
HETATM    7  C14 UNL     1      19.580   0.446  51.278  1.00  0.00     0.193 C 
HETATM    8  N3  UNL     1      20.408   1.383  50.723  1.00  0.00    -0.286 NA
HETATM    9  C15 UNL     1      21.003   1.797  49.695  1.00  0.00     0.190 C 
HETATM   10  N4  UNL     1      21.456   2.803  50.668  1.00  0.00    -0.197 NA
HETATM   11  H22 UNL     1      22.140   2.409  49.917  1.00  0.00     0.153 HD
ENDROOT
BRANCH   1  12
HETATM   12  C6  UNL     1      23.661   4.316  50.758  1.00  0.00     0.046 A 
HETATM   13  C5  UNL     1      23.428   5.530  51.346  1.00  0.00     0.033 A 
HETATM   14  C4  UNL     1      24.327   6.548  51.112  1.00  0.00     0.031 A 
HETATM   15  C3  UNL     1      25.445   6.327  50.292  1.00  0.00     0.029 A 
HETATM   16  C17 UNL     1      25.681   5.084  49.693  1.00  0.00     0.031 A 
HETATM   17  C16 UNL     1      24.767   4.062  49.935  1.00  0.00     0.033 A 
BRANCH  15  18
HETATM   18  N1  UNL     1      26.386   7.365  50.059  1.00  0.00    -0.369 N 
HETATM   19  H6  UNL     1      27.381   7.118  49.966  1.00  0.00     0.161 HD
BRANCH  18  20
HETATM   20  C2  UNL     1      26.008   8.765  49.946  1.00  0.00     0.289 C 
BRANCH  20  21
HETATM   21  O1  UNL     1      27.047   9.512  50.466  1.00  0.00    -0.377 OA
HETATM   22  C1  UNL     1      28.177   9.431  49.684  1.00  0.00     0.203 C 
ENDBRANCH  20  21
ENDBRANCH  18  20
ENDBRANCH  15  18
ENDBRANCH   1  12
BRANCH   5  23
HETATM   23  O2  UNL     1      21.341  -0.269  54.557  1.00  0.00    -0.387 OA
HETATM   24  C11 UNL     1      22.329  -1.148  54.978  1.00  0.00     0.202 C 
ENDBRANCH   5  23
BRANCH   6  25
HETATM   25  O3  UNL     1      19.177  -0.816  53.455  1.00  0.00    -0.377 OA
HETATM   26  C13 UNL     1      17.861  -1.209  53.171  1.00  0.00     0.202 C 
ENDBRANCH   6  25
TORSDOF 6
ENDMDL
MODEL 5
REMARK VINA RESULT:      -6.6      2.699      2.891
REMARK  6 active torsions:
REMARK  status: ('A' for Active; 'I' for Inactive)
REMARK    1  A    between atoms: O1_2  and  C2_3 
REMARK    2  A    between atoms: C2_3  and  N1_4 
REMARK    3  A    between atoms: N1_4  and  C3_5 
REMARK    4  A    between atoms: C6_8  and  N2_9 
REMARK    5  A    between atoms: C10_13  and  O2_14 
REMARK    6  A    between atoms: C12_16  and  O3_17 
ROOT
HETATM    1  N2  UNL     1      23.813   2.757  51.547  1.00  0.00    -0.307 N 
HETATM    2  C7  UNL     1      23.599   3.033  50.179  1.00  0.00     0.149 C 
HETATM    3  C8  UNL     1      22.613   2.324  49.404  1.00  0.00     0.019 C 
HETATM    4  C9  UNL     1      21.494   3.089  49.164  1.00  0.00     0.112 C 
HETATM    5  C10 UNL     1      20.715   4.379  49.339  1.00  0.00     0.082 C 
HETATM    6  C12 UNL     1      20.551   5.645  49.877  1.00  0.00     0.140 C 
HETATM    7  C14 UNL     1      21.501   6.292  50.847  1.00  0.00     0.193 C 
HETATM    8  N3  UNL     1      22.478   5.479  51.352  1.00  0.00    -0.286 NA
HETATM    9  C15 UNL     1      23.687   5.345  51.672  1.00  0.00     0.190 C 
HETATM   10  N4  UNL     1      23.189   4.002  52.009  1.00  0.00    -0.197 NA
HETATM   11  H22 UNL     1      24.167   4.132  51.545  1.00  0.00     0.153 HD
ENDROOT
BRANCH   1  12
HETATM   12  C6  UNL     1      24.423   1.631  52.124  1.00  0.00     0.046 A 
HETATM   13  C5  UNL     1      23.834   0.734  52.975  1.00  0.00     0.033 A 
HETATM   14  C4  UNL     1      24.596  -0.314  53.444  1.00  0.00     0.031 A 
HETATM   15  C3  UNL     1      25.937  -0.443  53.049  1.00  0.00     0.029 A 
HETATM   16  C17 UNL     1      26.537   0.475  52.179  1.00  0.00     0.031 A 
HETATM   17  C16 UNL     1      25.759   1.531  51.711  1.00  0.00     0.033 A 
BRANCH  15  18
HETATM   18  N1  UNL     1      26.725  -1.529  53.514  1.00  0.00    -0.369 N 
HETATM   19  H6  UNL     1      26.795  -1.690  54.528  1.00  0.00     0.161 HD
BRANCH  18  20
HETATM   20  C2  UNL     1      27.439  -2.427  52.620  1.00  0.00     0.289 C 
BRANCH  20  21
HETATM   21  O1  UNL     1      28.624  -2.767  53.242  1.00  0.00    -0.377 OA
HETATM   22  C1  UNL     1      29.450  -1.677  53.400  1.00  0.00     0.203 C 
ENDBRANCH  20  21
ENDBRANCH  18  20
ENDBRANCH  15  18
ENDBRANCH   1  12
BRANCH   5  23
HETATM   23  O2  UNL     1      19.696   3.933  48.492  1.00  0.00    -0.387 OA
HETATM   24  C11 UNL     1      19.843   3.077  47.410  1.00  0.00     0.202 C 
ENDBRANCH   5  23
BRANCH   6  25
HETATM   25  O3  UNL     1      19.388   6.220  49.424  1.00  0.00    -0.377 OA
HETATM   26  C13 UNL     1      19.286   7.467  48.791  1.00  0.00     0.202 C 
ENDBRANCH   6  25
TORSDOF 6
ENDMDL
MODEL 6
REMARK VINA RESULT:      -6.5      2.499      3.080
REMARK  6 active torsions:
REMARK  status: ('A' for Active; 'I' for Inactive)
REMARK    1  A    between atoms: O1_2  and  C2_3 
REMARK    2  A    between atoms: C2_3  and  N1_4 
REMARK    3  A    between atoms: N1_4  and  C3_5 
REMARK    4  A    between atoms: C6_8  and  N2_9 
REMARK    5  A    between atoms: C10_13  and  O2_14 
REMARK    6  A    between atoms: C12_16  and  O3_17 
ROOT
HETATM    1  N2  UNL     1      22.984   2.068  52.125  1.00  0.00    -0.307 N 
HETATM    2  C7  UNL     1      23.125   3.077  51.147  1.00  0.00     0.149 C 
HETATM    3  C8  UNL     1      23.600   2.789  49.818  1.00  0.00     0.019 C 
HETATM    4  C9  UNL     1      22.584   2.803  48.890  1.00  0.00     0.112 C 
HETATM    5  C10 UNL     1      21.115   2.954  48.544  1.00  0.00     0.082 C 
HETATM    6  C12 UNL     1      19.787   3.133  48.898  1.00  0.00     0.140 C 
HETATM    7  C14 UNL     1      19.285   3.233  50.312  1.00  0.00     0.193 C 
HETATM    8  N3  UNL     1      20.197   2.937  51.287  1.00  0.00    -0.286 NA
HETATM    9  C15 UNL     1      20.683   3.230  52.410  1.00  0.00     0.190 C 
HETATM   10  N4  UNL     1      21.518   2.067  52.072  1.00  0.00    -0.197 NA
HETATM   11  H22 UNL     1      21.952   2.938  52.561  1.00  0.00     0.153 HD
ENDROOT
BRANCH   1  12
HETATM   12  C6  UNL     1      23.994   1.383  52.822  1.00  0.00     0.046 A 
HETATM   13  C5  UNL     1      24.026   0.042  53.096  1.00  0.00     0.033 A 
HETATM   14  C4  UNL     1      25.104  -0.453  53.798  1.00  0.00     0.031 A 
HETATM   15  C3  UNL     1      26.130   0.409  54.212  1.00  0.00     0.029 A 
HETATM   16  C17 UNL     1      26.096   1.780  53.931  1.00  0.00     0.031 A 
HETATM   17  C16 UNL     1      25.003   2.270  53.222  1.00  0.00     0.033 A 
BRANCH  15  18
HETATM   18  N1  UNL     1      27.254  -0.094  54.921  1.00  0.00    -0.369 N 
HETATM   19  H6  UNL     1      27.117  -0.885  55.566  1.00  0.00     0.161 HD
BRANCH  18  20
HETATM   20  C2  UNL     1      28.592   0.456  54.777  1.00  0.00     0.289 C 
BRANCH  20  21
HETATM   21  O1  UNL     1      29.068   0.056  53.544  1.00  0.00    -0.377 OA
HETATM   22  C1  UNL     1      29.811  -1.099  53.633  1.00  0.00     0.203 C 
ENDBRANCH  20  21
ENDBRANCH  18  20
ENDBRANCH  15  18
ENDBRANCH   1  12
BRANCH   5  23
HETATM   23  O2  UNL     1      21.377   2.834  47.176  1.00  0.00    -0.387 OA
HETATM   24  C11 UNL     1      21.923   3.810  46.355  1.00  0.00     0.202 C 
ENDBRANCH   5  23
BRANCH   6  25
HETATM   25  O3  UNL     1      18.987   3.181  47.781  1.00  0.00    -0.377 OA
HETATM   26  C13 UNL     1      17.590   3.060  47.772  1.00  0.00     0.202 C 
ENDBRANCH   6  25
TORSDOF 6
ENDMDL
MODEL 7
REMARK VINA RESULT:      -6.5      4.769      7.049
REMARK  6 active torsions:
REMARK  status: ('A' for Active; 'I' for Inactive)
REMARK    1  A    between atoms: O1_2  and  C2_3 
REMARK    2  A    between atoms: C2_3  and  N1_4 
REMARK    3  A    between atoms: N1_4  and  C3_5 
REMARK    4  A    between atoms: C6_8  and  N2_9 
REMARK    5  A    between atoms: C10_13  and  O2_14 
REMARK    6  A    between atoms: C12_16  and  O3_17 
ROOT
HETATM    1  N2  UNL     1      24.878   4.042  50.412  1.00  0.00    -0.307 N 
HETATM    2  C7  UNL     1      25.423   2.745  50.299  1.00  0.00     0.149 C 
HETATM    3  C8  UNL     1      26.481   2.284  51.162  1.00  0.00     0.019 C 
HETATM    4  C9  UNL     1      26.025   1.409  52.121  1.00  0.00     0.112 C 
HETATM    5  C10 UNL     1      24.889   0.656  52.786  1.00  0.00     0.082 C 
HETATM    6  C12 UNL     1      23.545   0.350  52.935  1.00  0.00     0.140 C 
HETATM    7  C14 UNL     1      22.431   0.992  52.156  1.00  0.00     0.193 C 
HETATM    8  N3  UNL     1      22.785   2.073  51.396  1.00  0.00    -0.286 NA
HETATM    9  C15 UNL     1      22.671   2.686  50.303  1.00  0.00     0.190 C 
HETATM   10  N4  UNL     1      23.613   3.580  50.993  1.00  0.00    -0.197 NA
HETATM   11  H22 UNL     1      23.727   3.365  49.931  1.00  0.00     0.153 HD
ENDROOT
BRANCH   1  12
HETATM   12  C6  UNL     1      25.465   5.268  50.056  1.00  0.00     0.046 A 
HETATM   13  C5  UNL     1      25.156   6.498  50.573  1.00  0.00     0.033 A 
HETATM   14  C4  UNL     1      25.841   7.594  50.096  1.00  0.00     0.031 A 
HETATM   15  C3  UNL     1      26.824   7.436  49.107  1.00  0.00     0.029 A 
HETATM   16  C17 UNL     1      27.139   6.177  48.580  1.00  0.00     0.031 A 
HETATM   17  C16 UNL     1      26.442   5.076  49.069  1.00  0.00     0.033 A 
BRANCH  15  18
HETATM   18  N1  UNL     1      27.547   8.558  48.622  1.00  0.00    -0.369 N 
HETATM   19  H6  UNL     1      27.285   8.957  47.709  1.00  0.00     0.161 HD
BRANCH  18  20
HETATM   20  C2  UNL     1      28.643   9.171  49.355  1.00  0.00     0.289 C 
BRANCH  20  21
HETATM   21  O1  UNL     1      29.802   8.521  48.978  1.00  0.00    -0.377 OA
HETATM   22  C1  UNL     1      30.926   9.211  49.368  1.00  0.00     0.203 C 
ENDBRANCH  20  21
ENDBRANCH  18  20
ENDBRANCH  15  18
ENDBRANCH   1  12
BRANCH   5  23
HETATM   23  O2  UNL     1      25.771  -0.014  53.639  1.00  0.00    -0.387 OA
HETATM   24  C11 UNL     1      26.582   0.566  54.605  1.00  0.00     0.202 C 
ENDBRANCH   5  23
BRANCH   6  25
HETATM   25  O3  UNL     1      23.367  -0.601  53.911  1.00  0.00    -0.377 OA
HETATM   26  C13 UNL     1      22.173  -0.846  54.604  1.00  0.00     0.202 C 
ENDBRANCH   6  25
TORSDOF 6
ENDMDL
MODEL 8
REMARK VINA RESULT:      -6.5      2.606      3.713
REMARK  6 active torsions:
REMARK  status: ('A' for Active; 'I' for Inactive)
REMARK    1  A    between atoms: O1_2  and  C2_3 
REMARK    2  A    between atoms: C2_3  and  N1_4 
REMARK    3  A    between atoms: N1_4  and  C3_5 
REMARK    4  A    between atoms: C6_8  and  N2_9 
REMARK    5  A    between atoms: C10_13  and  O2_14 
REMARK    6  A    between atoms: C12_16  and  O3_17 
ROOT
HETATM    1  N2  UNL     1      23.437   1.911  51.700  1.00  0.00    -0.307 N 
HETATM    2  C7  UNL     1      22.784   2.985  52.344  1.00  0.00     0.149 C 
HETATM    3  C8  UNL     1      23.470   4.210  52.670  1.00  0.00     0.019 C 
HETATM    4  C9  UNL     1      23.129   5.237  51.819  1.00  0.00     0.112 C 
HETATM    5  C10 UNL     1      22.364   5.756  50.617  1.00  0.00     0.082 C 
HETATM    6  C12 UNL     1      21.528   5.573  49.527  1.00  0.00     0.140 C 
HETATM    7  C14 UNL     1      20.979   4.245  49.084  1.00  0.00     0.193 C 
HETATM    8  N3  UNL     1      21.507   3.148  49.706  1.00  0.00    -0.286 NA
HETATM    9  C15 UNL     1      21.301   2.024  50.233  1.00  0.00     0.190 C 
HETATM   10  N4  UNL     1      22.758   2.123  50.417  1.00  0.00    -0.197 NA
HETATM   11  H22 UNL     1      22.126   1.701  51.198  1.00  0.00     0.153 HD
ENDROOT
BRANCH   1  12
HETATM   12  C6  UNL     1      24.393   1.029  52.230  1.00  0.00     0.046 A 
HETATM   13  C5  UNL     1      24.169   0.050  53.159  1.00  0.00     0.033 A 
HETATM   14  C4  UNL     1      25.237  -0.721  53.563  1.00  0.00     0.031 A 
HETATM   15  C3  UNL     1      26.513  -0.494  53.025  1.00  0.00     0.029 A 
HETATM   16  C17 UNL     1      26.741   0.508  52.074  1.00  0.00     0.031 A 
HETATM   17  C16 UNL     1      25.655   1.282  51.673  1.00  0.00     0.033 A 
BRANCH  15  18
HETATM   18  N1  UNL     1      27.618  -1.294  53.422  1.00  0.00    -0.369 N 
HETATM   19  H6  UNL     1      27.478  -2.308  53.533  1.00  0.00     0.161 HD
BRANCH  18  20
HETATM   20  C2  UNL     1      28.940  -0.746  53.679  1.00  0.00     0.289 C 
BRANCH  20  21
HETATM   21  O1  UNL     1      28.839   0.056  54.799  1.00  0.00    -0.377 OA
HETATM   22  C1  UNL     1      29.296   1.332  54.558  1.00  0.00     0.203 C 
ENDBRANCH  20  21
ENDBRANCH  18  20
ENDBRANCH  15  18
ENDBRANCH   1  12
BRANCH   5  23
HETATM   23  O2  UNL     1      22.810   7.062  50.838  1.00  0.00    -0.387 OA
HETATM   24  C11 UNL     1      24.131   7.488  50.853  1.00  0.00     0.202 C 
ENDBRANCH   5  23
BRANCH   6  25
HETATM   25  O3  UNL     1      21.290   6.767  48.890  1.00  0.00    -0.377 OA
HETATM   26  C13 UNL     1      20.036   7.379  48.744  1.00  0.00     0.202 C 
ENDBRANCH   6  25
TORSDOF 6
ENDMDL
MODEL 9
REMARK VINA RESULT:      -6.2      4.769      6.211
REMARK  6 active torsions:
REMARK  status: ('A' for Active; 'I' for Inactive)
REMARK    1  A    between atoms: O1_2  and  C2_3 
REMARK    2  A    between atoms: C2_3  and  N1_4 
REMARK    3  A    between atoms: N1_4  and  C3_5 
REMARK    4  A    between atoms: C6_8  and  N2_9 
REMARK    5  A    between atoms: C10_13  and  O2_14 
REMARK    6  A    between atoms: C12_16  and  O3_17 
ROOT
HETATM    1  N2  UNL     1      25.729   3.972  50.204  1.00  0.00    -0.307 N 
HETATM    2  C7  UNL     1      24.932   4.198  49.060  1.00  0.00     0.149 C 
HETATM    3  C8  UNL     1      23.635   4.820  49.145  1.00  0.00     0.019 C 
HETATM    4  C9  UNL     1      23.657   6.125  48.707  1.00  0.00     0.112 C 
HETATM    5  C10 UNL     1      24.414   7.323  48.168  1.00  0.00     0.082 C 
HETATM    6  C12 UNL     1      25.584   7.960  47.786  1.00  0.00     0.140 C 
HETATM    7  C14 UNL     1      26.958   7.360  47.892  1.00  0.00     0.193 C 
HETATM    8  N3  UNL     1      27.040   6.184  48.587  1.00  0.00    -0.286 NA
HETATM    9  C15 UNL     1      27.527   5.026  48.660  1.00  0.00     0.190 C 
HETATM   10  N4  UNL     1      26.695   5.026  49.874  1.00  0.00    -0.197 NA
HETATM   11  H22 UNL     1      26.764   4.137  49.247  1.00  0.00     0.153 HD
ENDROOT
BRANCH   1  12
HETATM   12  C6  UNL     1      25.537   3.030  51.228  1.00  0.00     0.046 A 
HETATM   13  C5  UNL     1      24.652   3.129  52.268  1.00  0.00     0.033 A 
HETATM   14  C4  UNL     1      24.606   2.099  53.183  1.00  0.00     0.031 A 
HETATM   15  C3  UNL     1      25.449   0.988  53.035  1.00  0.00     0.029 A 
HETATM   16  C17 UNL     1      26.353   0.887  51.970  1.00  0.00     0.031 A 
HETATM   17  C16 UNL     1      26.392   1.933  51.052  1.00  0.00     0.033 A 
BRANCH  15  18
HETATM   18  N1  UNL     1      25.397  -0.087  53.963  1.00  0.00    -0.369 N 
HETATM   19  H6  UNL     1      24.699  -0.830  53.820  1.00  0.00     0.161 HD
BRANCH  18  20
HETATM   20  C2  UNL     1      26.287  -0.186  55.109  1.00  0.00     0.289 C 
BRANCH  20  21
HETATM   21  O1  UNL     1      27.279   0.759  54.939  1.00  0.00    -0.377 OA
HETATM   22  C1  UNL     1      28.533   0.190  54.934  1.00  0.00     0.203 C 
ENDBRANCH  20  21
ENDBRANCH  18  20
ENDBRANCH  15  18
ENDBRANCH   1  12
BRANCH   5  23
HETATM   23  O2  UNL     1      23.238   8.067  48.038  1.00  0.00    -0.387 OA
HETATM   24  C11 UNL     1      22.442   8.535  49.075  1.00  0.00     0.202 C 
ENDBRANCH   5  23
BRANCH   6  25
HETATM   25  O3  UNL     1      25.320   9.227  47.321  1.00  0.00    -0.377 OA
HETATM   26  C13 UNL     1      25.952  10.402  47.752  1.00  0.00     0.202 C 
ENDBRANCH   6  25
TORSDOF 6
ENDMDL
