MODEL 1
REMARK VINA RESULT:      -8.5      0.000      0.000
REMARK  3 active torsions:
REMARK  status: ('A' for Active; 'I' for Inactive)
REMARK    1  A    between atoms: C5_8  and  N3_9 
REMARK    2  A    between atoms: N3_9  and  C6_10 
REMARK    3  A    between atoms: C15_21  and  C16_22 
ROOT
HETATM    1  C1  UNL     1      22.670  -0.752  53.571  1.00  0.00     0.052 C 
HETATM    2  C2  UNL     1      23.106   0.439  53.193  1.00  0.00     0.076 C 
HETATM    3  O1  UNL     1      24.108   1.253  53.755  1.00  0.00    -0.290 OA
HETATM    4  C3  UNL     1      25.209   1.700  52.998  1.00  0.00     0.202 A 
HETATM    5  N1  UNL     1      26.394   1.660  53.675  1.00  0.00    -0.215 NA
HETATM    6  C4  UNL     1      27.505   2.061  53.054  1.00  0.00     0.238 A 
HETATM    7  N2  UNL     1      27.510   2.502  51.786  1.00  0.00    -0.222 NA
HETATM    8  C5  UNL     1      26.394   2.578  51.029  1.00  0.00     0.160 A 
HETATM    9  C12 UNL     1      25.267   2.159  51.699  1.00  0.00     0.129 A 
HETATM   10  N4  UNL     1      24.092   2.278  50.896  1.00  0.00    -0.379 N 
HETATM   11  C13 UNL     1      22.712   1.856  50.936  1.00  0.00     0.161 C 
HETATM   12  C14 UNL     1      22.377   0.902  51.996  1.00  0.00    -0.007 C 
HETATM   13  C15 UNL     1      21.164   0.358  51.810  1.00  0.00     0.011 C 
HETATM   14  H9  UNL     1      24.242   2.838  50.016  1.00  0.00     0.160 HD
ENDROOT
BRANCH   8  15
HETATM   15  N3  UNL     1      26.394   3.064  49.691  1.00  0.00    -0.339 N 
HETATM   16  H4  UNL     1      26.241   2.453  48.830  1.00  0.00     0.167 HD
BRANCH  15  17
HETATM   17  C6  UNL     1      26.621   4.426  49.344  1.00  0.00     0.035 A 
HETATM   18  C7  UNL     1      27.686   4.881  48.617  1.00  0.00     0.029 A 
HETATM   19  C8  UNL     1      27.903   6.194  48.258  1.00  0.00     0.004 A 
HETATM   20  C9  UNL     1      26.985   7.145  48.654  1.00  0.00     0.019 A 
HETATM   21  C10 UNL     1      25.882   6.762  49.391  1.00  0.00     0.013 A 
HETATM   22 BR1  UNL     1      24.629   8.096  49.920  1.00  0.00    -0.051 Br
HETATM   23  C11 UNL     1      25.739   5.427  49.708  1.00  0.00     0.048 A 
ENDBRANCH  15  17
ENDBRANCH   8  15
BRANCH  13  24
HETATM   24  C16 UNL     1      20.197   0.589  50.751  1.00  0.00    -0.004 C 
HETATM   25  C17 UNL     1      18.906   0.317  50.819  1.00  0.00    -0.031 C 
HETATM   26  C18 UNL     1      18.301  -0.282  52.063  1.00  0.00     0.036 C 
ENDBRANCH  13  24
TORSDOF 3
ENDMDL
MODEL 2
REMARK VINA RESULT:      -8.4      2.429      5.168
REMARK  3 active torsions:
REMARK  status: ('A' for Active; 'I' for Inactive)
REMARK    1  A    between atoms: C5_8  and  N3_9 
REMARK    2  A    between atoms: N3_9  and  C6_10 
REMARK    3  A    between atoms: C15_21  and  C16_22 
ROOT
HETATM    1  C1  UNL     1      24.842  -0.611  54.131  1.00  0.00     0.052 C 
HETATM    2  C2  UNL     1      24.769   0.329  53.201  1.00  0.00     0.076 C 
HETATM    3  O1  UNL     1      23.693   0.692  52.369  1.00  0.00    -0.290 OA
HETATM    4  C3  UNL     1      23.192   2.009  52.341  1.00  0.00     0.202 A 
HETATM    5  N1  UNL     1      21.830   2.078  52.288  1.00  0.00    -0.215 NA
HETATM    6  C4  UNL     1      21.247   3.278  52.257  1.00  0.00     0.238 A 
HETATM    7  N2  UNL     1      21.942   4.425  52.279  1.00  0.00    -0.222 NA
HETATM    8  C5  UNL     1      23.292   4.467  52.333  1.00  0.00     0.160 A 
HETATM    9  C12 UNL     1      23.861   3.215  52.362  1.00  0.00     0.129 A 
HETATM   10  N4  UNL     1      25.288   3.277  52.385  1.00  0.00    -0.379 N 
HETATM   11  C13 UNL     1      26.403   2.385  52.602  1.00  0.00     0.161 C 
HETATM   12  C14 UNL     1      26.052   1.049  53.090  1.00  0.00    -0.007 C 
HETATM   13  C15 UNL     1      27.133   0.377  53.517  1.00  0.00     0.011 C 
HETATM   14  H9  UNL     1      25.667   4.239  52.180  1.00  0.00     0.160 HD
ENDROOT
BRANCH   8  15
HETATM   15  N3  UNL     1      24.031   5.683  52.336  1.00  0.00    -0.339 N 
HETATM   16  H4  UNL     1      24.524   6.084  53.193  1.00  0.00     0.167 HD
BRANCH  15  17
HETATM   17  C6  UNL     1      24.184   6.519  51.193  1.00  0.00     0.035 A 
HETATM   18  C7  UNL     1      23.308   7.501  50.821  1.00  0.00     0.029 A 
HETATM   19  C8  UNL     1      23.457   8.329  49.729  1.00  0.00     0.004 A 
HETATM   20  C9  UNL     1      24.572   8.174  48.933  1.00  0.00     0.019 A 
HETATM   21  C10 UNL     1      25.502   7.203  49.245  1.00  0.00     0.013 A 
HETATM   22 BR1  UNL     1      27.035   7.013  48.129  1.00  0.00    -0.051 Br
HETATM   23  C11 UNL     1      25.278   6.415  50.356  1.00  0.00     0.048 A 
ENDBRANCH  15  17
ENDBRANCH   8  15
BRANCH  13  24
HETATM   24  C16 UNL     1      28.527   0.786  53.548  1.00  0.00    -0.004 C 
HETATM   25  C17 UNL     1      29.565  -0.029  53.508  1.00  0.00    -0.031 C 
HETATM   26  C18 UNL     1      29.381  -1.522  53.420  1.00  0.00     0.036 C 
ENDBRANCH  13  24
TORSDOF 3
ENDMDL
MODEL 3
REMARK VINA RESULT:      -8.2      5.407     10.137
REMARK  3 active torsions:
REMARK  status: ('A' for Active; 'I' for Inactive)
REMARK    1  A    between atoms: C5_8  and  N3_9 
REMARK    2  A    between atoms: N3_9  and  C6_10 
REMARK    3  A    between atoms: C15_21  and  C16_22 
ROOT
HETATM    1  C1  UNL     1      34.926   7.629  47.994  1.00  0.00     0.052 C 
HETATM    2  C2  UNL     1      33.809   7.231  48.583  1.00  0.00     0.076 C 
HETATM    3  O1  UNL     1      32.922   7.946  49.411  1.00  0.00    -0.290 OA
HETATM    4  C3  UNL     1      31.553   8.064  49.100  1.00  0.00     0.202 A 
HETATM    5  N1  UNL     1      31.042   9.307  49.332  1.00  0.00    -0.215 NA
HETATM    6  C4  UNL     1      29.751   9.532  49.072  1.00  0.00     0.238 A 
HETATM    7  N2  UNL     1      28.931   8.586  48.589  1.00  0.00    -0.222 NA
HETATM    8  C5  UNL     1      29.338   7.325  48.323  1.00  0.00     0.160 A 
HETATM    9  C12 UNL     1      30.671   7.127  48.603  1.00  0.00     0.129 A 
HETATM   10  N4  UNL     1      31.076   5.781  48.349  1.00  0.00    -0.379 N 
HETATM   11  C13 UNL     1      32.302   5.023  48.258  1.00  0.00     0.161 C 
HETATM   12  C14 UNL     1      33.533   5.816  48.270  1.00  0.00    -0.007 C 
HETATM   13  C15 UNL     1      34.601   5.081  47.918  1.00  0.00     0.011 C 
HETATM   14  H9  UNL     1      30.267   5.126  48.183  1.00  0.00     0.160 HD
ENDROOT
BRANCH   8  15
HETATM   15  N3  UNL     1      28.465   6.315  47.829  1.00  0.00    -0.339 N 
HETATM   16  H4  UNL     1      28.502   5.921  46.839  1.00  0.00     0.167 HD
BRANCH  15  17
HETATM   17  C6  UNL     1      27.423   5.725  48.600  1.00  0.00     0.035 A 
HETATM   18  C7  UNL     1      27.327   4.393  48.893  1.00  0.00     0.029 A 
HETATM   19  C8  UNL     1      26.333   3.815  49.655  1.00  0.00     0.004 A 
HETATM   20  C9  UNL     1      25.346   4.626  50.174  1.00  0.00     0.019 A 
HETATM   21  C10 UNL     1      25.377   5.983  49.921  1.00  0.00     0.013 A 
HETATM   22 BR1  UNL     1      24.002   7.079  50.655  1.00  0.00    -0.051 Br
HETATM   23  C11 UNL     1      26.405   6.482  49.149  1.00  0.00     0.048 A 
ENDBRANCH  15  17
ENDBRANCH   8  15
BRANCH  13  24
HETATM   24  C16 UNL     1      34.681   3.678  47.553  1.00  0.00    -0.004 C 
HETATM   25  C17 UNL     1      34.903   3.213  46.337  1.00  0.00    -0.031 C 
HETATM   26  C18 UNL     1      35.106   4.148  45.172  1.00  0.00     0.036 C 
ENDBRANCH  13  24
TORSDOF 3
ENDMDL
MODEL 4
REMARK VINA RESULT:      -8.1      3.952      7.492
REMARK  3 active torsions:
REMARK  status: ('A' for Active; 'I' for Inactive)
REMARK    1  A    between atoms: C5_8  and  N3_9 
REMARK    2  A    between atoms: N3_9  and  C6_10 
REMARK    3  A    between atoms: C15_21  and  C16_22 
ROOT
HETATM    1  C1  UNL     1      27.904   2.420  53.114  1.00  0.00     0.052 C 
HETATM    2  C2  UNL     1      26.659   2.053  53.369  1.00  0.00     0.076 C 
HETATM    3  O1  UNL     1      25.566   2.821  53.816  1.00  0.00    -0.290 OA
HETATM    4  C3  UNL     1      24.358   2.879  53.094  1.00  0.00     0.202 A 
HETATM    5  N1  UNL     1      23.809   4.127  53.041  1.00  0.00    -0.215 NA
HETATM    6  C4  UNL     1      22.661   4.298  52.380  1.00  0.00     0.238 A 
HETATM    7  N2  UNL     1      22.022   3.294  51.761  1.00  0.00    -0.222 NA
HETATM    8  C5  UNL     1      22.482   2.023  51.752  1.00  0.00     0.160 A 
HETATM    9  C12 UNL     1      23.664   1.881  52.442  1.00  0.00     0.129 A 
HETATM   10  N4  UNL     1      24.118   0.527  52.450  1.00  0.00    -0.379 N 
HETATM   11  C13 UNL     1      25.308  -0.209  52.809  1.00  0.00     0.161 C 
HETATM   12  C14 UNL     1      26.482   0.609  53.121  1.00  0.00    -0.007 C 
HETATM   13  C15 UNL     1      27.601  -0.131  53.182  1.00  0.00     0.011 C 
HETATM   14  H9  UNL     1      23.394  -0.159  52.108  1.00  0.00     0.160 HD
ENDROOT
BRANCH   8  15
HETATM   15  N3  UNL     1      21.795   0.953  51.112  1.00  0.00    -0.339 N 
HETATM   16  H4  UNL     1      22.117   0.487  50.209  1.00  0.00     0.167 HD
BRANCH  15  17
HETATM   17  C6  UNL     1      20.579   0.391  51.598  1.00  0.00     0.035 A 
HETATM   18  C7  UNL     1      20.426  -0.201  52.821  1.00  0.00     0.029 A 
HETATM   19  C8  UNL     1      19.248  -0.728  53.308  1.00  0.00     0.004 A 
HETATM   20  C9  UNL     1      18.121  -0.666  52.515  1.00  0.00     0.019 A 
HETATM   21  C10 UNL     1      18.198  -0.082  51.267  1.00  0.00     0.013 A 
HETATM   22 BR1  UNL     1      16.625  -0.006  50.196  1.00  0.00    -0.051 Br
HETATM   23  C11 UNL     1      19.414   0.423  50.854  1.00  0.00     0.048 A 
ENDBRANCH  15  17
ENDBRANCH   8  15
BRANCH  13  24
HETATM   24  C16 UNL     1      27.779  -1.560  52.992  1.00  0.00    -0.004 C 
HETATM   25  C17 UNL     1      28.896  -2.229  53.213  1.00  0.00    -0.031 C 
HETATM   26  C18 UNL     1      30.137  -1.531  53.707  1.00  0.00     0.036 C 
ENDBRANCH  13  24
TORSDOF 3
ENDMDL
MODEL 5
REMARK VINA RESULT:      -8.1      4.162      5.287
REMARK  3 active torsions:
REMARK  status: ('A' for Active; 'I' for Inactive)
REMARK    1  A    between atoms: C5_8  and  N3_9 
REMARK    2  A    between atoms: N3_9  and  C6_10 
REMARK    3  A    between atoms: C15_21  and  C16_22 
ROOT
HETATM    1  C1  UNL     1      18.442  -1.111  52.737  1.00  0.00     0.052 C 
HETATM    2  C2  UNL     1      19.474  -0.331  53.017  1.00  0.00     0.076 C 
HETATM    3  O1  UNL     1      20.204  -0.197  54.214  1.00  0.00    -0.290 OA
HETATM    4  C3  UNL     1      21.599  -0.391  54.255  1.00  0.00     0.202 A 
HETATM    5  N1  UNL     1      22.026  -1.079  55.353  1.00  0.00    -0.215 NA
HETATM    6  C4  UNL     1      23.331  -1.320  55.495  1.00  0.00     0.238 A 
HETATM    7  N2  UNL     1      24.246  -0.918  54.600  1.00  0.00    -0.222 NA
HETATM    8  C5  UNL     1      23.928  -0.233  53.479  1.00  0.00     0.160 A 
HETATM    9  C12 UNL     1      22.577   0.000  53.364  1.00  0.00     0.129 A 
HETATM   10  N4  UNL     1      22.261   0.753  52.192  1.00  0.00    -0.379 N 
HETATM   11  C13 UNL     1      21.090   1.136  51.440  1.00  0.00     0.161 C 
HETATM   12  C14 UNL     1      19.843   0.483  51.844  1.00  0.00    -0.007 C 
HETATM   13  C15 UNL     1      18.865   0.681  50.945  1.00  0.00     0.011 C 
HETATM   14  H9  UNL     1      23.108   1.168  51.722  1.00  0.00     0.160 HD
ENDROOT
BRANCH   8  15
HETATM   15  N3  UNL     1      24.899   0.212  52.538  1.00  0.00    -0.339 N 
HETATM   16  H4  UNL     1      24.737   0.261  51.485  1.00  0.00     0.167 HD
BRANCH  15  17
HETATM   17  C6  UNL     1      26.214   0.627  52.895  1.00  0.00     0.035 A 
HETATM   18  C7  UNL     1      26.585   1.919  53.144  1.00  0.00     0.029 A 
HETATM   19  C8  UNL     1      27.849   2.328  53.511  1.00  0.00     0.004 A 
HETATM   20  C9  UNL     1      28.837   1.375  53.644  1.00  0.00     0.019 A 
HETATM   21  C10 UNL     1      28.538   0.047  53.409  1.00  0.00     0.013 A 
HETATM   22 BR1  UNL     1      29.921  -1.248  53.603  1.00  0.00    -0.051 Br
HETATM   23  C11 UNL     1      27.247  -0.279  53.046  1.00  0.00     0.048 A 
ENDBRANCH  15  17
ENDBRANCH   8  15
BRANCH  13  24
HETATM   24  C16 UNL     1      18.889   1.423  49.696  1.00  0.00    -0.004 C 
HETATM   25  C17 UNL     1      18.174   2.501  49.432  1.00  0.00    -0.031 C 
HETATM   26  C18 UNL     1      17.230   3.080  50.454  1.00  0.00     0.036 C 
ENDBRANCH  13  24
TORSDOF 3
ENDMDL
MODEL 6
REMARK VINA RESULT:      -7.9      3.330      7.874
REMARK  3 active torsions:
REMARK  status: ('A' for Active; 'I' for Inactive)
REMARK    1  A    between atoms: C5_8  and  N3_9 
REMARK    2  A    between atoms: N3_9  and  C6_10 
REMARK    3  A    between atoms: C15_21  and  C16_22 
ROOT
HETATM    1  C1  UNL     1      25.260   7.708  48.472  1.00  0.00     0.052 C 
HETATM    2  C2  UNL     1      25.127   6.812  49.438  1.00  0.00     0.076 C 
HETATM    3  O1  UNL     1      24.206   6.764  50.502  1.00  0.00    -0.290 OA
HETATM    4  C3  UNL     1      23.363   5.653  50.701  1.00  0.00     0.202 A 
HETATM    5  N1  UNL     1      22.088   5.987  51.055  1.00  0.00    -0.215 NA
HETATM    6  C4  UNL     1      21.202   5.011  51.268  1.00  0.00     0.238 A 
HETATM    7  N2  UNL     1      21.510   3.711  51.148  1.00  0.00    -0.222 NA
HETATM    8  C5  UNL     1      22.741   3.275  50.800  1.00  0.00     0.160 A 
HETATM    9  C12 UNL     1      23.629   4.304  50.589  1.00  0.00     0.129 A 
HETATM   10  N4  UNL     1      24.933   3.826  50.255  1.00  0.00    -0.379 N 
HETATM   11  C13 UNL     1      26.181   4.354  49.758  1.00  0.00     0.161 C 
HETATM   12  C14 UNL     1      26.135   5.744  49.297  1.00  0.00    -0.007 C 
HETATM   13  C15 UNL     1      27.241   6.078  48.612  1.00  0.00     0.011 C 
HETATM   14  H9  UNL     1      25.052   2.791  50.416  1.00  0.00     0.160 HD
ENDROOT
BRANCH   8  15
HETATM   15  N3  UNL     1      23.074   1.895  50.691  1.00  0.00    -0.339 N 
HETATM   16  H4  UNL     1      23.124   1.360  49.769  1.00  0.00     0.167 HD
BRANCH  15  17
HETATM   17  C6  UNL     1      23.363   1.060  51.808  1.00  0.00     0.035 A 
HETATM   18  C7  UNL     1      24.590   0.941  52.399  1.00  0.00     0.029 A 
HETATM   19  C8  UNL     1      24.874   0.152  53.493  1.00  0.00     0.004 A 
HETATM   20  C9  UNL     1      23.854  -0.587  54.054  1.00  0.00     0.019 A 
HETATM   21  C10 UNL     1      22.585  -0.518  53.513  1.00  0.00     0.013 A 
HETATM   22 BR1  UNL     1      21.195  -1.546  54.311  1.00  0.00    -0.051 Br
HETATM   23  C11 UNL     1      22.385   0.296  52.417  1.00  0.00     0.048 A 
ENDBRANCH  15  17
ENDBRANCH   8  15
BRANCH  13  24
HETATM   24  C16 UNL     1      28.411   5.278  48.295  1.00  0.00    -0.004 C 
HETATM   25  C17 UNL     1      29.637   5.742  48.135  1.00  0.00    -0.031 C 
HETATM   26  C18 UNL     1      29.937   7.212  48.278  1.00  0.00     0.036 C 
ENDBRANCH  13  24
TORSDOF 3
ENDMDL
MODEL 7
REMARK VINA RESULT:      -7.9      2.903      5.047
REMARK  3 active torsions:
REMARK  status: ('A' for Active; 'I' for Inactive)
REMARK    1  A    between atoms: C5_8  and  N3_9 
REMARK    2  A    between atoms: N3_9  and  C6_10 
REMARK    3  A    between atoms: C15_21  and  C16_22 
ROOT
HETATM    1  C1  UNL     1      23.426   1.354  52.118  1.00  0.00     0.052 C 
HETATM    2  C2  UNL     1      24.156   1.910  51.164  1.00  0.00     0.076 C 
HETATM    3  O1  UNL     1      23.757   2.479  49.939  1.00  0.00    -0.290 OA
HETATM    4  C3  UNL     1      24.082   3.807  49.600  1.00  0.00     0.202 A 
HETATM    5  N1  UNL     1      23.064   4.483  48.993  1.00  0.00    -0.215 NA
HETATM    6  C4  UNL     1      23.262   5.752  48.627  1.00  0.00     0.238 A 
HETATM    7  N2  UNL     1      24.421   6.396  48.833  1.00  0.00    -0.222 NA
HETATM    8  C5  UNL     1      25.488   5.818  49.428  1.00  0.00     0.160 A 
HETATM    9  C12 UNL     1      25.252   4.512  49.790  1.00  0.00     0.129 A 
HETATM   10  N4  UNL     1      26.400   3.906  50.386  1.00  0.00    -0.379 N 
HETATM   11  C13 UNL     1      26.730   2.701  51.110  1.00  0.00     0.161 C 
HETATM   12  C14 UNL     1      25.586   1.885  51.524  1.00  0.00    -0.007 C 
HETATM   13  C15 UNL     1      25.945   0.939  52.408  1.00  0.00     0.011 C 
HETATM   14  H9  UNL     1      27.279   4.476  50.273  1.00  0.00     0.160 HD
ENDROOT
BRANCH   8  15
HETATM   15  N3  UNL     1      26.725   6.493  49.629  1.00  0.00    -0.339 N 
HETATM   16  H4  UNL     1      27.053   6.878  50.568  1.00  0.00     0.167 HD
BRANCH  15  17
HETATM   17  C6  UNL     1      27.664   6.751  48.590  1.00  0.00     0.035 A 
HETATM   18  C7  UNL     1      27.507   7.692  47.611  1.00  0.00     0.029 A 
HETATM   19  C8  UNL     1      28.420   7.963  46.614  1.00  0.00     0.004 A 
HETATM   20  C9  UNL     1      29.593   7.239  46.580  1.00  0.00     0.019 A 
HETATM   21  C10 UNL     1      29.823   6.271  47.537  1.00  0.00     0.013 A 
HETATM   22 BR1  UNL     1      31.455   5.290  47.468  1.00  0.00    -0.051 Br
HETATM   23  C11 UNL     1      28.859   6.061  48.501  1.00  0.00     0.048 A 
ENDBRANCH  15  17
ENDBRANCH   8  15
BRANCH  13  24
HETATM   24  C16 UNL     1      27.252   0.642  52.968  1.00  0.00    -0.004 C 
HETATM   25  C17 UNL     1      27.779  -0.563  53.086  1.00  0.00    -0.031 C 
HETATM   26  C18 UNL     1      27.032  -1.788  52.623  1.00  0.00     0.036 C 
ENDBRANCH  13  24
TORSDOF 3
ENDMDL
MODEL 8
REMARK VINA RESULT:      -7.7      2.674      5.021
REMARK  3 active torsions:
REMARK  status: ('A' for Active; 'I' for Inactive)
REMARK    1  A    between atoms: C5_8  and  N3_9 
REMARK    2  A    between atoms: N3_9  and  C6_10 
REMARK    3  A    between atoms: C15_21  and  C16_22 
ROOT
HETATM    1  C1  UNL     1      22.251  -1.250  54.114  1.00  0.00     0.052 C 
HETATM    2  C2  UNL     1      22.440  -0.301  53.211  1.00  0.00     0.076 C 
HETATM    3  O1  UNL     1      21.573   0.177  52.209  1.00  0.00    -0.290 OA
HETATM    4  C3  UNL     1      21.217   1.538  52.127  1.00  0.00     0.202 A 
HETATM    5  N1  UNL     1      19.901   1.744  51.833  1.00  0.00    -0.215 NA
HETATM    6  C4  UNL     1      19.453   2.998  51.730  1.00  0.00     0.238 A 
HETATM    7  N2  UNL     1      20.242   4.069  51.906  1.00  0.00    -0.222 NA
HETATM    8  C5  UNL     1      21.557   3.973  52.202  1.00  0.00     0.160 A 
HETATM    9  C12 UNL     1      21.987   2.670  52.299  1.00  0.00     0.129 A 
HETATM   10  N4  UNL     1      23.385   2.586  52.580  1.00  0.00    -0.379 N 
HETATM   11  C13 UNL     1      24.349   1.584  52.969  1.00  0.00     0.161 C 
HETATM   12  C14 UNL     1      23.786   0.287  53.351  1.00  0.00    -0.007 C 
HETATM   13  C15 UNL     1      24.701  -0.495  53.946  1.00  0.00     0.011 C 
HETATM   14  H9  UNL     1      23.887   3.506  52.471  1.00  0.00     0.160 HD
ENDROOT
BRANCH   8  15
HETATM   15  N3  UNL     1      22.400   5.108  52.370  1.00  0.00    -0.339 N 
HETATM   16  H4  UNL     1      22.704   5.496  53.316  1.00  0.00     0.167 HD
BRANCH  15  17
HETATM   17  C6  UNL     1      22.922   5.872  51.288  1.00  0.00     0.035 A 
HETATM   18  C7  UNL     1      22.323   6.978  50.751  1.00  0.00     0.029 A 
HETATM   19  C8  UNL     1      22.831   7.737  49.718  1.00  0.00     0.004 A 
HETATM   20  C9  UNL     1      24.039   7.370  49.164  1.00  0.00     0.019 A 
HETATM   21  C10 UNL     1      24.705   6.264  49.654  1.00  0.00     0.013 A 
HETATM   22 BR1  UNL     1      26.374   5.784  48.872  1.00  0.00    -0.051 Br
HETATM   23  C11 UNL     1      24.128   5.559  50.690  1.00  0.00     0.048 A 
ENDBRANCH  15  17
ENDBRANCH   8  15
BRANCH  13  24
HETATM   24  C16 UNL     1      26.099  -0.230  54.237  1.00  0.00    -0.004 C 
HETATM   25  C17 UNL     1      27.126  -0.670  53.532  1.00  0.00    -0.031 C 
HETATM   26  C18 UNL     1      26.920  -1.523  52.307  1.00  0.00     0.036 C 
ENDBRANCH  13  24
TORSDOF 3
ENDMDL
MODEL 9
REMARK VINA RESULT:      -7.6      3.236      5.118
REMARK  3 active torsions:
REMARK  status: ('A' for Active; 'I' for Inactive)
REMARK    1  A    between atoms: C5_8  and  N3_9 
REMARK    2  A    between atoms: N3_9  and  C6_10 
REMARK    3  A    between atoms: C15_21  and  C16_22 
ROOT
HETATM    1  C1  UNL     1      19.719   2.747  49.850  1.00  0.00     0.052 C 
HETATM    2  C2  UNL     1      20.835   2.052  50.004  1.00  0.00     0.076 C 
HETATM    3  O1  UNL     1      22.054   2.135  49.303  1.00  0.00    -0.290 OA
HETATM    4  C3  UNL     1      23.274   2.373  49.966  1.00  0.00     0.202 A 
HETATM    5  N1  UNL     1      24.096   3.241  49.309  1.00  0.00    -0.215 NA
HETATM    6  C4  UNL     1      25.280   3.540  49.848  1.00  0.00     0.238 A 
HETATM    7  N2  UNL     1      25.700   3.023  51.013  1.00  0.00    -0.222 NA
HETATM    8  C5  UNL     1      24.962   2.157  51.742  1.00  0.00     0.160 A 
HETATM    9  C12 UNL     1      23.749   1.870  51.159  1.00  0.00     0.129 A 
HETATM   10  N4  UNL     1      22.997   0.928  51.926  1.00  0.00    -0.379 N 
HETATM   11  C13 UNL     1      21.656   0.395  51.963  1.00  0.00     0.161 C 
HETATM   12  C14 UNL     1      20.688   1.069  51.095  1.00  0.00    -0.007 C 
HETATM   13  C15 UNL     1      19.427   0.701  51.376  1.00  0.00     0.011 C 
HETATM   14  H9  UNL     1      23.559   0.467  52.688  1.00  0.00     0.160 HD
ENDROOT
BRANCH   8  15
HETATM   15  N3  UNL     1      25.414   1.593  52.969  1.00  0.00    -0.339 N 
HETATM   16  H4  UNL     1      24.781   1.375  53.799  1.00  0.00     0.167 HD
BRANCH  15  17
HETATM   17  C6  UNL     1      26.775   1.271  53.237  1.00  0.00     0.035 A 
HETATM   18  C7  UNL     1      27.723   2.166  53.651  1.00  0.00     0.029 A 
HETATM   19  C8  UNL     1      29.037   1.860  53.934  1.00  0.00     0.004 A 
HETATM   20  C9  UNL     1      29.453   0.552  53.795  1.00  0.00     0.019 A 
HETATM   21  C10 UNL     1      28.552  -0.409  53.382  1.00  0.00     0.013 A 
HETATM   22 BR1  UNL     1      29.154  -2.207  53.203  1.00  0.00    -0.051 Br
HETATM   23  C11 UNL     1      27.255  -0.020  53.119  1.00  0.00     0.048 A 
ENDBRANCH  15  17
ENDBRANCH   8  15
BRANCH  13  24
HETATM   24  C16 UNL     1      18.936  -0.234  52.374  1.00  0.00    -0.004 C 
HETATM   25  C17 UNL     1      17.757  -0.828  52.352  1.00  0.00    -0.031 C 
HETATM   26  C18 UNL     1      16.778  -0.575  51.234  1.00  0.00     0.036 C 
ENDBRANCH  13  24
TORSDOF 3
ENDMDL
