MODEL 1
REMARK VINA RESULT:      -8.5      0.000      0.000
REMARK  3 active torsions:
REMARK  status: ('A' for Active; 'I' for Inactive)
REMARK    1  A    between atoms: C2_2  and  C6_7 
REMARK    2  A    between atoms: C3_3  and  C4_4 
REMARK    3  A    between atoms: C5_5  and  N1_6 
ROOT
HETATM    1  C6  UNL     1      25.343  -0.723  54.422  1.00  0.00     0.049 A 
HETATM    2  C7  UNL     1      24.176  -0.372  53.991  1.00  0.00     0.015 A 
HETATM    3  C8  UNL     1      23.288   0.410  53.034  1.00  0.00     0.051 C 
HETATM    4  C9  UNL     1      24.046   1.093  51.983  1.00  0.00     0.048 C 
HETATM    5  C10 UNL     1      23.319   1.625  51.061  1.00  0.00    -0.004 C 
HETATM    6  C11 UNL     1      22.097   2.032  51.273  1.00  0.00     0.095 C 
HETATM    7  N2  UNL     1      21.274   1.152  51.964  1.00  0.00    -0.281 NA
HETATM    8  C12 UNL     1      19.990   1.006  51.861  1.00  0.00     0.092 C 
HETATM    9  C13 UNL     1      19.550  -0.074  52.816  1.00  0.00     0.075 C 
HETATM   10  C14 UNL     1      20.290   0.105  54.114  1.00  0.00    -0.002 C 
HETATM   11  C15 UNL     1      21.176  -0.787  54.525  1.00  0.00     0.115 C 
HETATM   12  N3  UNL     1      22.181  -1.464  55.332  1.00  0.00    -0.243 NA
HETATM   13  C16 UNL     1      23.455  -1.203  55.004  1.00  0.00     0.136 A 
HETATM   14  N4  UNL     1      24.750  -1.558  55.440  1.00  0.00    -0.340 N 
HETATM   15  H18 UNL     1      25.161  -2.180  56.200  1.00  0.00     0.167 HD
ENDROOT
BRANCH   1  16
HETATM   16  C2  UNL     1      26.724  -0.452  54.093  1.00  0.00    -0.035 C 
HETATM   17  C1  UNL     1      27.319  -0.989  52.840  1.00  0.00     0.050 C 
HETATM   18  C3  UNL     1      27.494   0.278  54.888  1.00  0.00     0.010 C 
BRANCH  18  19
HETATM   19  C4  UNL     1      28.879   0.594  54.630  1.00  0.00     0.017 C 
HETATM   20  C5  UNL     1      29.177   1.753  54.126  1.00  0.00     0.080 C 
BRANCH  20  21
HETATM   21  N1  UNL     1      28.193   2.733  53.815  1.00  0.00    -0.408 N 
HETATM   22  H7  UNL     1      27.811   3.697  53.676  1.00  0.00     0.155 HD
HETATM   23  H8  UNL     1      27.195   2.657  53.533  1.00  0.00     0.155 HD
ENDBRANCH  20  21
ENDBRANCH  18  19
ENDBRANCH   1  16
TORSDOF 3
ENDMDL
MODEL 2
REMARK VINA RESULT:      -8.4      1.829      3.527
REMARK  3 active torsions:
REMARK  status: ('A' for Active; 'I' for Inactive)
REMARK    1  A    between atoms: C2_2  and  C6_7 
REMARK    2  A    between atoms: C3_3  and  C4_4 
REMARK    3  A    between atoms: C5_5  and  N1_6 
ROOT
HETATM    1  C6  UNL     1      25.910   0.662  52.727  1.00  0.00     0.049 A 
HETATM    2  C7  UNL     1      24.627   0.498  52.743  1.00  0.00     0.015 A 
HETATM    3  C8  UNL     1      23.373  -0.148  53.316  1.00  0.00     0.051 C 
HETATM    4  C9  UNL     1      23.644  -0.966  54.500  1.00  0.00     0.048 C 
HETATM    5  C10 UNL     1      22.589  -1.390  55.107  1.00  0.00    -0.004 C 
HETATM    6  C11 UNL     1      21.454  -1.589  54.494  1.00  0.00     0.095 C 
HETATM    7  N2  UNL     1      21.036  -0.573  53.643  1.00  0.00    -0.281 NA
HETATM    8  C12 UNL     1      19.824  -0.223  53.347  1.00  0.00     0.092 C 
HETATM    9  C13 UNL     1      19.879   0.933  52.382  1.00  0.00     0.075 C 
HETATM   10  C14 UNL     1      20.962   0.662  51.373  1.00  0.00    -0.002 C 
HETATM   11  C15 UNL     1      22.055   1.406  51.325  1.00  0.00     0.115 C 
HETATM   12  N3  UNL     1      23.354   1.926  50.925  1.00  0.00    -0.243 NA
HETATM   13  C16 UNL     1      24.401   1.455  51.616  1.00  0.00     0.136 A 
HETATM   14  N4  UNL     1      25.805   1.603  51.636  1.00  0.00    -0.340 N 
HETATM   15  H18 UNL     1      26.526   2.165  51.090  1.00  0.00     0.167 HD
ENDROOT
BRANCH   1  16
HETATM   16  C2  UNL     1      27.055   0.164  53.454  1.00  0.00    -0.035 C 
HETATM   17  C1  UNL     1      27.134   0.316  54.932  1.00  0.00     0.050 C 
HETATM   18  C3  UNL     1      28.060  -0.439  52.832  1.00  0.00     0.010 C 
BRANCH  18  19
HETATM   19  C4  UNL     1      29.236  -0.964  53.485  1.00  0.00     0.017 C 
HETATM   20  C5  UNL     1      29.388  -2.251  53.567  1.00  0.00     0.080 C 
BRANCH  20  21
HETATM   21  N1  UNL     1      28.441  -3.173  53.039  1.00  0.00    -0.408 N 
HETATM   22  H7  UNL     1      28.105  -4.085  52.652  1.00  0.00     0.155 HD
HETATM   23  H8  UNL     1      27.426  -3.092  52.834  1.00  0.00     0.155 HD
ENDBRANCH  20  21
ENDBRANCH  18  19
ENDBRANCH   1  16
TORSDOF 3
ENDMDL
MODEL 3
REMARK VINA RESULT:      -7.9      1.707      6.370
REMARK  3 active torsions:
REMARK  status: ('A' for Active; 'I' for Inactive)
REMARK    1  A    between atoms: C2_2  and  C6_7 
REMARK    2  A    between atoms: C3_3  and  C4_4 
REMARK    3  A    between atoms: C5_5  and  N1_6 
ROOT
HETATM    1  C6  UNL     1      22.667  -0.354  53.399  1.00  0.00     0.049 A 
HETATM    2  C7  UNL     1      23.874   0.102  53.324  1.00  0.00     0.015 A 
HETATM    3  C8  UNL     1      24.931   0.977  52.664  1.00  0.00     0.051 C 
HETATM    4  C9  UNL     1      24.384   1.830  51.606  1.00  0.00     0.048 C 
HETATM    5  C10 UNL     1      25.213   2.701  51.141  1.00  0.00    -0.004 C 
HETATM    6  C11 UNL     1      26.505   2.519  51.150  1.00  0.00     0.095 C 
HETATM    7  N2  UNL     1      27.047   2.059  52.344  1.00  0.00    -0.281 NA
HETATM    8  C12 UNL     1      28.226   2.287  52.830  1.00  0.00     0.092 C 
HETATM    9  C13 UNL     1      28.349   1.573  54.152  1.00  0.00     0.075 C 
HETATM   10  C14 UNL     1      27.728   0.208  54.016  1.00  0.00    -0.002 C 
HETATM   11  C15 UNL     1      26.627  -0.111  54.677  1.00  0.00     0.115 C 
HETATM   12  N3  UNL     1      25.487  -0.866  55.176  1.00  0.00    -0.243 NA
HETATM   13  C16 UNL     1      24.341  -0.691  54.503  1.00  0.00     0.136 A 
HETATM   14  N4  UNL     1      23.011  -1.160  54.547  1.00  0.00    -0.340 N 
HETATM   15  H18 UNL     1      22.452  -1.831  55.156  1.00  0.00     0.167 HD
ENDROOT
BRANCH   1  16
HETATM   16  C2  UNL     1      21.421  -0.187  52.685  1.00  0.00    -0.035 C 
HETATM   17  C1  UNL     1      21.421   0.226  51.256  1.00  0.00     0.050 C 
HETATM   18  C3  UNL     1      20.252  -0.396  53.277  1.00  0.00     0.010 C 
BRANCH  18  19
HETATM   19  C4  UNL     1      18.968  -0.252  52.634  1.00  0.00     0.017 C 
HETATM   20  C5  UNL     1      18.003  -1.055  52.970  1.00  0.00     0.080 C 
BRANCH  20  21
HETATM   21  N1  UNL     1      18.156  -2.076  53.949  1.00  0.00    -0.408 N 
HETATM   22  H7  UNL     1      18.025  -2.541  54.876  1.00  0.00     0.155 HD
HETATM   23  H8  UNL     1      18.664  -2.982  53.940  1.00  0.00     0.155 HD
ENDBRANCH  20  21
ENDBRANCH  18  19
ENDBRANCH   1  16
TORSDOF 3
ENDMDL
MODEL 4
REMARK VINA RESULT:      -7.8      1.771      6.818
REMARK  3 active torsions:
REMARK  status: ('A' for Active; 'I' for Inactive)
REMARK    1  A    between atoms: C2_2  and  C6_7 
REMARK    2  A    between atoms: C3_3  and  C4_4 
REMARK    3  A    between atoms: C5_5  and  N1_6 
ROOT
HETATM    1  C6  UNL     1      23.574   1.651  51.163  1.00  0.00     0.049 A 
HETATM    2  C7  UNL     1      24.608   1.468  51.918  1.00  0.00     0.015 A 
HETATM    3  C8  UNL     1      25.286   0.812  53.113  1.00  0.00     0.051 C 
HETATM    4  C9  UNL     1      24.444  -0.191  53.767  1.00  0.00     0.048 C 
HETATM    5  C10 UNL     1      25.044  -0.882  54.675  1.00  0.00    -0.004 C 
HETATM    6  C11 UNL     1      26.059  -0.422  55.355  1.00  0.00     0.095 C 
HETATM    7  N2  UNL     1      27.054   0.204  54.615  1.00  0.00    -0.281 NA
HETATM    8  C12 UNL     1      28.324   0.264  54.868  1.00  0.00     0.092 C 
HETATM    9  C13 UNL     1      28.995   1.053  53.774  1.00  0.00     0.075 C 
HETATM   10  C14 UNL     1      28.132   2.240  53.442  1.00  0.00    -0.002 C 
HETATM   11  C15 UNL     1      27.534   2.344  52.266  1.00  0.00     0.115 C 
HETATM   12  N3  UNL     1      26.725   2.855  51.170  1.00  0.00    -0.243 NA
HETATM   13  C16 UNL     1      25.464   2.401  51.124  1.00  0.00     0.136 A 
HETATM   14  N4  UNL     1      24.311   2.570  50.327  1.00  0.00    -0.340 N 
HETATM   15  H18 UNL     1      24.051   3.132  49.461  1.00  0.00     0.167 HD
ENDROOT
BRANCH   1  16
HETATM   16  C2  UNL     1      22.209   1.181  51.096  1.00  0.00    -0.035 C 
HETATM   17  C1  UNL     1      21.516   1.063  49.785  1.00  0.00     0.050 C 
HETATM   18  C3  UNL     1      21.540   0.842  52.190  1.00  0.00     0.010 C 
BRANCH  18  19
HETATM   19  C4  UNL     1      20.178   0.364  52.207  1.00  0.00     0.017 C 
HETATM   20  C5  UNL     1      19.733  -0.229  53.273  1.00  0.00     0.080 C 
BRANCH  20  21
HETATM   21  N1  UNL     1      20.532  -0.430  54.433  1.00  0.00    -0.408 N 
HETATM   22  H7  UNL     1      21.084  -0.150  55.276  1.00  0.00     0.155 HD
HETATM   23  H8  UNL     1      20.901  -1.289  54.888  1.00  0.00     0.155 HD
ENDBRANCH  20  21
ENDBRANCH  18  19
ENDBRANCH   1  16
TORSDOF 3
ENDMDL
MODEL 5
REMARK VINA RESULT:      -7.7      1.664      3.148
REMARK  3 active torsions:
REMARK  status: ('A' for Active; 'I' for Inactive)
REMARK    1  A    between atoms: C2_2  and  C6_7 
REMARK    2  A    between atoms: C3_3  and  C4_4 
REMARK    3  A    between atoms: C5_5  and  N1_6 
ROOT
HETATM    1  C6  UNL     1      25.126   0.824  52.306  1.00  0.00     0.049 A 
HETATM    2  C7  UNL     1      23.853   0.608  52.365  1.00  0.00     0.015 A 
HETATM    3  C8  UNL     1      22.648  -0.107  52.962  1.00  0.00     0.051 C 
HETATM    4  C9  UNL     1      22.996  -0.950  54.107  1.00  0.00     0.048 C 
HETATM    5  C10 UNL     1      21.983  -1.436  54.739  1.00  0.00    -0.004 C 
HETATM    6  C11 UNL     1      20.834  -1.662  54.162  1.00  0.00     0.095 C 
HETATM    7  N2  UNL     1      20.344  -0.637  53.361  1.00  0.00    -0.281 NA
HETATM    8  C12 UNL     1      19.108  -0.327  53.122  1.00  0.00     0.092 C 
HETATM    9  C13 UNL     1      19.081   0.860  52.195  1.00  0.00     0.075 C 
HETATM   10  C14 UNL     1      20.134   0.665  51.138  1.00  0.00    -0.002 C 
HETATM   11  C15 UNL     1      21.194   1.454  51.074  1.00  0.00     0.115 C 
HETATM   12  N3  UNL     1      22.455   2.039  50.643  1.00  0.00    -0.243 NA
HETATM   13  C16 UNL     1      23.546   1.589  51.279  1.00  0.00     0.136 A 
HETATM   14  N4  UNL     1      24.942   1.794  51.252  1.00  0.00    -0.340 N 
HETATM   15  H18 UNL     1      25.619   2.402  50.699  1.00  0.00     0.167 HD
ENDROOT
BRANCH   1  16
HETATM   16  C2  UNL     1      26.318   0.350  52.973  1.00  0.00    -0.035 C 
HETATM   17  C1  UNL     1      26.943  -0.939  52.572  1.00  0.00     0.050 C 
HETATM   18  C3  UNL     1      26.885   1.044  53.951  1.00  0.00     0.010 C 
BRANCH  18  19
HETATM   19  C4  UNL     1      28.073   0.640  54.664  1.00  0.00     0.017 C 
HETATM   20  C5  UNL     1      29.160   1.336  54.521  1.00  0.00     0.080 C 
BRANCH  20  21
HETATM   21  N1  UNL     1      29.233   2.487  53.687  1.00  0.00    -0.408 N 
HETATM   22  H7  UNL     1      29.355   3.501  53.463  1.00  0.00     0.155 HD
HETATM   23  H8  UNL     1      29.131   2.614  52.661  1.00  0.00     0.155 HD
ENDBRANCH  20  21
ENDBRANCH  18  19
ENDBRANCH   1  16
TORSDOF 3
ENDMDL
MODEL 6
REMARK VINA RESULT:      -7.6      1.642      2.246
REMARK  3 active torsions:
REMARK  status: ('A' for Active; 'I' for Inactive)
REMARK    1  A    between atoms: C2_2  and  C6_7 
REMARK    2  A    between atoms: C3_3  and  C4_4 
REMARK    3  A    between atoms: C5_5  and  N1_6 
ROOT
HETATM    1  C6  UNL     1      23.755  -0.331  53.465  1.00  0.00     0.049 A 
HETATM    2  C7  UNL     1      22.536  -0.261  53.039  1.00  0.00     0.015 A 
HETATM    3  C8  UNL     1      21.503   0.213  52.026  1.00  0.00     0.051 C 
HETATM    4  C9  UNL     1      22.104   0.882  50.870  1.00  0.00     0.048 C 
HETATM    5  C10 UNL     1      21.276   1.146  49.917  1.00  0.00    -0.004 C 
HETATM    6  C11 UNL     1      20.003   1.344  50.124  1.00  0.00     0.095 C 
HETATM    7  N2  UNL     1      19.371   0.424  50.950  1.00  0.00    -0.281 NA
HETATM    8  C12 UNL     1      18.136   0.032  50.916  1.00  0.00     0.092 C 
HETATM    9  C13 UNL     1      17.921  -0.978  52.014  1.00  0.00     0.075 C 
HETATM   10  C14 UNL     1      18.632  -0.498  53.250  1.00  0.00    -0.002 C 
HETATM   11  C15 UNL     1      19.677  -1.151  53.735  1.00  0.00     0.115 C 
HETATM   12  N3  UNL     1      20.803  -1.519  54.580  1.00  0.00    -0.243 NA
HETATM   13  C16 UNL     1      21.999  -1.072  54.174  1.00  0.00     0.136 A 
HETATM   14  N4  UNL     1      23.344  -1.123  54.601  1.00  0.00    -0.340 N 
HETATM   15  H18 UNL     1      23.876  -1.554  55.415  1.00  0.00     0.167 HD
ENDROOT
BRANCH   1  16
HETATM   16  C2  UNL     1      25.056   0.145  53.051  1.00  0.00    -0.035 C 
HETATM   17  C1  UNL     1      25.241   1.561  52.631  1.00  0.00     0.050 C 
HETATM   18  C3  UNL     1      26.112  -0.656  53.034  1.00  0.00     0.010 C 
BRANCH  18  19
HETATM   19  C4  UNL     1      27.441  -0.258  52.635  1.00  0.00     0.017 C 
HETATM   20  C5  UNL     1      28.349  -0.093  53.549  1.00  0.00     0.080 C 
BRANCH  20  21
HETATM   21  N1  UNL     1      28.092  -0.291  54.935  1.00  0.00    -0.408 N 
HETATM   22  H7  UNL     1      27.657  -0.739  55.774  1.00  0.00     0.155 HD
HETATM   23  H8  UNL     1      28.441   0.192  55.787  1.00  0.00     0.155 HD
ENDBRANCH  20  21
ENDBRANCH  18  19
ENDBRANCH   1  16
TORSDOF 3
ENDMDL
MODEL 7
REMARK VINA RESULT:      -7.5      2.743      4.311
REMARK  3 active torsions:
REMARK  status: ('A' for Active; 'I' for Inactive)
REMARK    1  A    between atoms: C2_2  and  C6_7 
REMARK    2  A    between atoms: C3_3  and  C4_4 
REMARK    3  A    between atoms: C5_5  and  N1_6 
ROOT
HETATM    1  C6  UNL     1      25.414   2.182  51.471  1.00  0.00     0.049 A 
HETATM    2  C7  UNL     1      24.419   1.602  52.059  1.00  0.00     0.015 A 
HETATM    3  C8  UNL     1      22.936   1.511  52.391  1.00  0.00     0.051 C 
HETATM    4  C9  UNL     1      22.129   2.498  51.670  1.00  0.00     0.048 C 
HETATM    5  C10 UNL     1      20.856   2.342  51.798  1.00  0.00    -0.004 C 
HETATM    6  C11 UNL     1      20.315   1.783  52.847  1.00  0.00     0.095 C 
HETATM    7  N2  UNL     1      20.902   0.600  53.276  1.00  0.00    -0.281 NA
HETATM    8  C12 UNL     1      20.338  -0.406  53.869  1.00  0.00     0.092 C 
HETATM    9  C13 UNL     1      21.385  -1.457  54.135  1.00  0.00     0.075 C 
HETATM   10  C14 UNL     1      22.637  -0.773  54.614  1.00  0.00    -0.002 C 
HETATM   11  C15 UNL     1      23.741  -0.777  53.885  1.00  0.00     0.115 C 
HETATM   12  N3  UNL     1      25.108  -0.533  53.449  1.00  0.00    -0.243 NA
HETATM   13  C16 UNL     1      25.279   0.534  52.656  1.00  0.00     0.136 A 
HETATM   14  N4  UNL     1      26.334   1.200  51.996  1.00  0.00    -0.340 N 
HETATM   15  H18 UNL     1      27.385   1.066  51.899  1.00  0.00     0.167 HD
ENDROOT
BRANCH   1  16
HETATM   16  C2  UNL     1      25.624   3.332  50.621  1.00  0.00    -0.035 C 
HETATM   17  C1  UNL     1      26.606   3.274  49.505  1.00  0.00     0.050 C 
HETATM   18  C3  UNL     1      24.953   4.461  50.807  1.00  0.00     0.010 C 
BRANCH  18  19
HETATM   19  C4  UNL     1      25.104   5.650  50.004  1.00  0.00     0.017 C 
HETATM   20  C5  UNL     1      24.899   6.810  50.551  1.00  0.00     0.080 C 
BRANCH  20  21
HETATM   21  N1  UNL     1      24.531   6.962  51.917  1.00  0.00    -0.408 N 
HETATM   22  H7  UNL     1      24.042   6.721  52.811  1.00  0.00     0.155 HD
HETATM   23  H8  UNL     1      24.788   7.667  52.637  1.00  0.00     0.155 HD
ENDBRANCH  20  21
ENDBRANCH  18  19
ENDBRANCH   1  16
TORSDOF 3
ENDMDL
MODEL 8
REMARK VINA RESULT:      -7.5      2.081      6.827
REMARK  3 active torsions:
REMARK  status: ('A' for Active; 'I' for Inactive)
REMARK    1  A    between atoms: C2_2  and  C6_7 
REMARK    2  A    between atoms: C3_3  and  C4_4 
REMARK    3  A    between atoms: C5_5  and  N1_6 
ROOT
HETATM    1  C6  UNL     1      20.419  -0.365  53.371  1.00  0.00     0.049 A 
HETATM    2  C7  UNL     1      21.696  -0.193  53.480  1.00  0.00     0.015 A 
HETATM    3  C8  UNL     1      23.002   0.428  53.006  1.00  0.00     0.051 C 
HETATM    4  C9  UNL     1      22.814   1.393  51.921  1.00  0.00     0.048 C 
HETATM    5  C10 UNL     1      23.873   2.059  51.611  1.00  0.00    -0.004 C 
HETATM    6  C11 UNL     1      25.078   1.590  51.787  1.00  0.00     0.095 C 
HETATM    7  N2  UNL     1      25.329   1.006  53.022  1.00  0.00    -0.281 NA
HETATM    8  C12 UNL     1      26.449   0.957  53.672  1.00  0.00     0.092 C 
HETATM    9  C13 UNL     1      26.222   0.218  54.967  1.00  0.00     0.075 C 
HETATM   10  C14 UNL     1      25.339  -0.969  54.690  1.00  0.00    -0.002 C 
HETATM   11  C15 UNL     1      24.113  -1.038  55.182  1.00  0.00     0.115 C 
HETATM   12  N3  UNL     1      22.775  -1.521  55.489  1.00  0.00    -0.243 NA
HETATM   13  C16 UNL     1      21.803  -1.084  54.676  1.00  0.00     0.136 A 
HETATM   14  N4  UNL     1      20.409  -1.241  54.519  1.00  0.00    -0.340 N 
HETATM   15  H18 UNL     1      19.635  -1.774  55.019  1.00  0.00     0.167 HD
ENDROOT
BRANCH   1  16
HETATM   16  C2  UNL     1      19.355   0.087  52.503  1.00  0.00    -0.035 C 
HETATM   17  C1  UNL     1      19.386   1.457  51.923  1.00  0.00     0.050 C 
HETATM   18  C3  UNL     1      18.330  -0.698  52.199  1.00  0.00     0.010 C 
BRANCH  18  19
HETATM   19  C4  UNL     1      17.231  -0.322  51.342  1.00  0.00     0.017 C 
HETATM   20  C5  UNL     1      16.022  -0.368  51.812  1.00  0.00     0.080 C 
BRANCH  20  21
HETATM   21  N1  UNL     1      15.729  -0.773  53.145  1.00  0.00    -0.408 N 
HETATM   22  H7  UNL     1      15.862  -1.305  54.035  1.00  0.00     0.155 HD
HETATM   23  H8  UNL     1      14.978  -0.499  53.810  1.00  0.00     0.155 HD
ENDBRANCH  20  21
ENDBRANCH  18  19
ENDBRANCH   1  16
TORSDOF 3
ENDMDL
MODEL 9
REMARK VINA RESULT:      -7.4      2.334      5.521
REMARK  3 active torsions:
REMARK  status: ('A' for Active; 'I' for Inactive)
REMARK    1  A    between atoms: C2_2  and  C6_7 
REMARK    2  A    between atoms: C3_3  and  C4_4 
REMARK    3  A    between atoms: C5_5  and  N1_6 
ROOT
HETATM    1  C6  UNL     1      24.997   0.239  53.535  1.00  0.00     0.049 A 
HETATM    2  C7  UNL     1      24.943   1.074  52.550  1.00  0.00     0.015 A 
HETATM    3  C8  UNL     1      24.164   1.814  51.471  1.00  0.00     0.051 C 
HETATM    4  C9  UNL     1      22.721   1.583  51.550  1.00  0.00     0.048 C 
HETATM    5  C10 UNL     1      22.018   2.322  50.761  1.00  0.00    -0.004 C 
HETATM    6  C11 UNL     1      22.484   2.796  49.638  1.00  0.00     0.095 C 
HETATM    7  N2  UNL     1      23.746   3.373  49.698  1.00  0.00    -0.281 NA
HETATM    8  C12 UNL     1      24.219   4.342  48.979  1.00  0.00     0.092 C 
HETATM    9  C13 UNL     1      25.635   4.618  49.415  1.00  0.00     0.075 C 
HETATM   10  C14 UNL     1      26.330   3.303  49.643  1.00  0.00    -0.002 C 
HETATM   11  C15 UNL     1      26.712   2.932  50.854  1.00  0.00     0.115 C 
HETATM   12  N3  UNL     1      27.276   2.149  51.944  1.00  0.00    -0.243 NA
HETATM   13  C16 UNL     1      26.406   1.376  52.609  1.00  0.00     0.136 A 
HETATM   14  N4  UNL     1      26.417   0.458  53.681  1.00  0.00    -0.340 N 
HETATM   15  H18 UNL     1      27.148   0.063  54.347  1.00  0.00     0.167 HD
ENDROOT
BRANCH   1  16
HETATM   16  C2  UNL     1      24.080  -0.608  54.264  1.00  0.00    -0.035 C 
HETATM   17  C1  UNL     1      24.498  -1.251  55.538  1.00  0.00     0.050 C 
HETATM   18  C3  UNL     1      22.849  -0.833  53.823  1.00  0.00     0.010 C 
BRANCH  18  19
HETATM   19  C4  UNL     1      21.875  -1.663  54.491  1.00  0.00     0.017 C 
HETATM   20  C5  UNL     1      20.614  -1.483  54.237  1.00  0.00     0.080 C 
BRANCH  20  21
HETATM   21  N1  UNL     1      20.147  -0.498  53.322  1.00  0.00    -0.408 N 
HETATM   22  H7  UNL     1      20.038   0.462  52.920  1.00  0.00     0.155 HD
HETATM   23  H8  UNL     1      19.538  -0.557  52.481  1.00  0.00     0.155 HD
ENDBRANCH  20  21
ENDBRANCH  18  19
ENDBRANCH   1  16
TORSDOF 3
ENDMDL
