MODEL 1
REMARK VINA RESULT:      -8.2      0.000      0.000
REMARK  4 active torsions:
REMARK  status: ('A' for Active; 'I' for Inactive)
REMARK    1  A    between atoms: C2_2  and  C3_3 
REMARK    2  A    between atoms: C4_4  and  C5_5 
REMARK       I    between atoms: C5_5  and  N1_7 
REMARK    3  A    between atoms: N1_7  and  C6_8 
REMARK    4  A    between atoms: N4_15  and  C11_16 
ROOT
HETATM    1  C6  UNL     1      23.901   1.390  52.983  1.00  0.00     0.233 A 
HETATM    2  C7  UNL     1      24.167   2.142  51.741  1.00  0.00     0.055 A 
HETATM    3  C8  UNL     1      23.338   2.049  50.718  1.00  0.00     0.089 A 
HETATM    4  C9  UNL     1      22.140   1.220  50.742  1.00  0.00     0.104 A 
HETATM    5  N2  UNL     1      21.436   1.216  49.678  1.00  0.00    -0.237 NA
HETATM    6  C10 UNL     1      21.784   1.977  48.515  1.00  0.00     0.256 A 
HETATM    7  N3  UNL     1      22.842   2.716  48.480  1.00  0.00    -0.160 NA
HETATM    8  N4  UNL     1      23.720   2.817  49.593  1.00  0.00    -0.231 N 
HETATM    9  C17 UNL     1      21.891   0.481  51.973  1.00  0.00     0.147 A 
HETATM   10  N5  UNL     1      22.715   0.592  52.954  1.00  0.00    -0.270 NA
ENDROOT
BRANCH   1  11
HETATM   11  N1  UNL     1      25.010   0.554  53.400  1.00  0.00    -0.331 N 
HETATM   12  C5  UNL     1      26.149   1.076  54.060  1.00  0.00     0.243 C 
HETATM   13  O1  UNL     1      26.130   2.340  54.261  1.00  0.00    -0.269 OA
HETATM   14  H6  UNL     1      25.032  -0.476  53.239  1.00  0.00     0.165 HD
BRANCH  12  15
HETATM   15  C4  UNL     1      27.314   0.408  54.533  1.00  0.00     0.074 C 
HETATM   16  C3  UNL     1      28.075   0.008  53.548  1.00  0.00     0.005 C 
BRANCH  16  17
HETATM   17  C2  UNL     1      29.297  -0.686  53.817  1.00  0.00    -0.010 C 
HETATM   18  C1  UNL     1      30.259  -1.564  53.789  1.00  0.00     0.011 C 
ENDBRANCH  16  17
ENDBRANCH  12  15
ENDBRANCH   1  11
BRANCH   8  19
HETATM   19  C11 UNL     1      24.816   3.662  49.368  1.00  0.00     0.060 A 
HETATM   20  C12 UNL     1      26.169   3.416  49.403  1.00  0.00     0.032 A 
HETATM   21  C13 UNL     1      27.122   4.370  49.125  1.00  0.00     0.004 A 
HETATM   22  C14 UNL     1      26.745   5.652  48.791  1.00  0.00     0.019 A 
HETATM   23  C15 UNL     1      25.405   5.973  48.738  1.00  0.00     0.013 A 
HETATM   24 BR1  UNL     1      24.866   7.742  48.278  1.00  0.00    -0.051 Br
HETATM   25  C16 UNL     1      24.494   4.977  49.024  1.00  0.00     0.050 A 
ENDBRANCH   8  19
TORSDOF 4
ENDMDL
MODEL 2
REMARK VINA RESULT:      -7.9      2.765      6.286
REMARK  4 active torsions:
REMARK  status: ('A' for Active; 'I' for Inactive)
REMARK    1  A    between atoms: C2_2  and  C3_3 
REMARK    2  A    between atoms: C4_4  and  C5_5 
REMARK       I    between atoms: C5_5  and  N1_7 
REMARK    3  A    between atoms: N1_7  and  C6_8 
REMARK    4  A    between atoms: N4_15  and  C11_16 
ROOT
HETATM    1  C6  UNL     1      23.248   2.173  51.287  1.00  0.00     0.233 A 
HETATM    2  C7  UNL     1      24.047   1.200  52.055  1.00  0.00     0.055 A 
HETATM    3  C8  UNL     1      23.494   0.516  53.040  1.00  0.00     0.089 A 
HETATM    4  C9  UNL     1      22.098   0.672  53.426  1.00  0.00     0.104 A 
HETATM    5  N2  UNL     1      21.700  -0.046  54.402  1.00  0.00    -0.237 NA
HETATM    6  C10 UNL     1      22.559  -0.960  55.094  1.00  0.00     0.256 A 
HETATM    7  N3  UNL     1      23.798  -1.110  54.762  1.00  0.00    -0.160 NA
HETATM    8  N4  UNL     1      24.378  -0.375  53.693  1.00  0.00    -0.231 N 
HETATM    9  C17 UNL     1      21.321   1.638  52.660  1.00  0.00     0.147 A 
HETATM   10  N5  UNL     1      21.886   2.289  51.706  1.00  0.00    -0.270 NA
ENDROOT
BRANCH   1  11
HETATM   11  N1  UNL     1      23.833   3.500  51.250  1.00  0.00    -0.331 N 
HETATM   12  C5  UNL     1      24.631   3.948  50.168  1.00  0.00     0.243 C 
HETATM   13  O1  UNL     1      24.797   3.098  49.226  1.00  0.00    -0.269 OA
HETATM   14  H6  UNL     1      23.701   4.197  52.014  1.00  0.00     0.165 HD
BRANCH  12  15
HETATM   15  C4  UNL     1      25.276   5.201  49.970  1.00  0.00     0.074 C 
HETATM   16  C3  UNL     1      26.145   5.150  48.994  1.00  0.00     0.005 C 
BRANCH  16  17
HETATM   17  C2  UNL     1      26.899   6.312  48.640  1.00  0.00    -0.010 C 
HETATM   18  C1  UNL     1      27.850   7.200  48.559  1.00  0.00     0.011 C 
ENDBRANCH  16  17
ENDBRANCH  12  15
ENDBRANCH   1  11
BRANCH   8  19
HETATM   19  C11 UNL     1      25.734  -0.667  53.482  1.00  0.00     0.060 A 
HETATM   20  C12 UNL     1      26.343  -1.736  52.868  1.00  0.00     0.032 A 
HETATM   21  C13 UNL     1      27.707  -1.852  52.722  1.00  0.00     0.004 A 
HETATM   22  C14 UNL     1      28.543  -0.868  53.202  1.00  0.00     0.019 A 
HETATM   23  C15 UNL     1      28.003   0.233  53.831  1.00  0.00     0.013 A 
HETATM   24 BR1  UNL     1      29.146   1.603  54.502  1.00  0.00    -0.051 Br
HETATM   25  C16 UNL     1      26.630   0.297  53.948  1.00  0.00     0.050 A 
ENDBRANCH   8  19
TORSDOF 4
ENDMDL
MODEL 3
REMARK VINA RESULT:      -7.7      2.872      3.558
REMARK  4 active torsions:
REMARK  status: ('A' for Active; 'I' for Inactive)
REMARK    1  A    between atoms: C2_2  and  C3_3 
REMARK    2  A    between atoms: C4_4  and  C5_5 
REMARK       I    between atoms: C5_5  and  N1_7 
REMARK    3  A    between atoms: N1_7  and  C6_8 
REMARK    4  A    between atoms: N4_15  and  C11_16 
ROOT
HETATM    1  C6  UNL     1      22.939   0.164  53.562  1.00  0.00     0.233 A 
HETATM    2  C7  UNL     1      22.251   0.612  52.336  1.00  0.00     0.055 A 
HETATM    3  C8  UNL     1      20.964   0.367  52.168  1.00  0.00     0.089 A 
HETATM    4  C9  UNL     1      20.159  -0.345  53.153  1.00  0.00     0.104 A 
HETATM    5  N2  UNL     1      18.932  -0.521  52.855  1.00  0.00    -0.237 NA
HETATM    6  C10 UNL     1      18.356  -0.053  51.629  1.00  0.00     0.256 A 
HETATM    7  N3  UNL     1      19.057   0.579  50.748  1.00  0.00    -0.160 NA
HETATM    8  N4  UNL     1      20.438   0.847  50.946  1.00  0.00    -0.231 N 
HETATM    9  C17 UNL     1      20.852  -0.783  54.358  1.00  0.00     0.147 A 
HETATM   10  N5  UNL     1      22.105  -0.529  54.494  1.00  0.00    -0.270 NA
ENDROOT
BRANCH   1  11
HETATM   11  N1  UNL     1      24.113  -0.646  53.302  1.00  0.00    -0.331 N 
HETATM   12  C5  UNL     1      25.408  -0.087  53.168  1.00  0.00     0.243 C 
HETATM   13  O1  UNL     1      25.466   1.185  53.292  1.00  0.00    -0.269 OA
HETATM   14  H6  UNL     1      24.072  -1.683  53.199  1.00  0.00     0.165 HD
BRANCH  12  15
HETATM   15  C4  UNL     1      26.654  -0.726  52.914  1.00  0.00     0.074 C 
HETATM   16  C3  UNL     1      27.633  -0.155  53.566  1.00  0.00     0.005 C 
BRANCH  16  17
HETATM   17  C2  UNL     1      28.968  -0.653  53.443  1.00  0.00    -0.010 C 
HETATM   18  C1  UNL     1      30.142  -1.144  53.723  1.00  0.00     0.011 C 
ENDBRANCH  16  17
ENDBRANCH  12  15
ENDBRANCH   1  11
BRANCH   8  19
HETATM   19  C11 UNL     1      21.034   1.540  49.881  1.00  0.00     0.060 A 
HETATM   20  C12 UNL     1      21.663   1.083  48.747  1.00  0.00     0.032 A 
HETATM   21  C13 UNL     1      22.174   1.915  47.776  1.00  0.00     0.004 A 
HETATM   22  C14 UNL     1      22.072   3.282  47.908  1.00  0.00     0.019 A 
HETATM   23  C15 UNL     1      21.454   3.812  49.021  1.00  0.00     0.013 A 
HETATM   24 BR1  UNL     1      21.306   5.701  49.220  1.00  0.00    -0.051 Br
HETATM   25  C16 UNL     1      20.960   2.932  49.961  1.00  0.00     0.050 A 
ENDBRANCH   8  19
TORSDOF 4
ENDMDL
MODEL 4
REMARK VINA RESULT:      -7.6      3.123      6.522
REMARK  4 active torsions:
REMARK  status: ('A' for Active; 'I' for Inactive)
REMARK    1  A    between atoms: C2_2  and  C3_3 
REMARK    2  A    between atoms: C4_4  and  C5_5 
REMARK       I    between atoms: C5_5  and  N1_7 
REMARK    3  A    between atoms: N1_7  and  C6_8 
REMARK    4  A    between atoms: N4_15  and  C11_16 
ROOT
HETATM    1  C6  UNL     1      24.912   3.131  49.511  1.00  0.00     0.233 A 
HETATM    2  C7  UNL     1      25.456   2.477  50.717  1.00  0.00     0.055 A 
HETATM    3  C8  UNL     1      24.659   1.800  51.523  1.00  0.00     0.089 A 
HETATM    4  C9  UNL     1      23.228   1.659  51.286  1.00  0.00     0.104 A 
HETATM    5  N2  UNL     1      22.577   0.987  52.152  1.00  0.00    -0.237 NA
HETATM    6  C10 UNL     1      23.198   0.395  53.301  1.00  0.00     0.256 A 
HETATM    7  N3  UNL     1      24.464   0.511  53.523  1.00  0.00    -0.160 NA
HETATM    8  N4  UNL     1      25.313   1.232  52.641  1.00  0.00    -0.231 N 
HETATM    9  C17 UNL     1      22.704   2.312  50.093  1.00  0.00     0.147 A 
HETATM   10  N5  UNL     1      23.504   2.963  49.326  1.00  0.00    -0.270 NA
ENDROOT
BRANCH   1  11
HETATM   11  N1  UNL     1      25.222   4.546  49.432  1.00  0.00    -0.331 N 
HETATM   12  C5  UNL     1      26.499   5.023  49.045  1.00  0.00     0.243 C 
HETATM   13  O1  UNL     1      27.358   4.116  48.771  1.00  0.00    -0.269 OA
HETATM   14  H6  UNL     1      24.526   5.290  49.655  1.00  0.00     0.165 HD
BRANCH  12  15
HETATM   15  C4  UNL     1      26.970   6.360  48.917  1.00  0.00     0.074 C 
HETATM   16  C3  UNL     1      26.343   7.174  49.726  1.00  0.00     0.005 C 
BRANCH  16  17
HETATM   17  C2  UNL     1      26.674   8.566  49.747  1.00  0.00    -0.010 C 
HETATM   18  C1  UNL     1      27.234   9.705  50.039  1.00  0.00     0.011 C 
ENDBRANCH  16  17
ENDBRANCH  12  15
ENDBRANCH   1  11
BRANCH   8  19
HETATM   19  C11 UNL     1      26.656   1.254  53.047  1.00  0.00     0.060 A 
HETATM   20  C12 UNL     1      27.446   2.285  53.498  1.00  0.00     0.032 A 
HETATM   21  C13 UNL     1      28.757   2.122  53.887  1.00  0.00     0.004 A 
HETATM   22  C14 UNL     1      29.348   0.879  53.837  1.00  0.00     0.019 A 
HETATM   23  C15 UNL     1      28.616  -0.202  53.393  1.00  0.00     0.013 A 
HETATM   24 BR1  UNL     1      29.418  -1.929  53.316  1.00  0.00    -0.051 Br
HETATM   25  C16 UNL     1      27.307   0.019  53.017  1.00  0.00     0.050 A 
ENDBRANCH   8  19
TORSDOF 4
ENDMDL
MODEL 5
REMARK VINA RESULT:      -7.5      1.633      1.843
REMARK  4 active torsions:
REMARK  status: ('A' for Active; 'I' for Inactive)
REMARK    1  A    between atoms: C2_2  and  C3_3 
REMARK    2  A    between atoms: C4_4  and  C5_5 
REMARK       I    between atoms: C5_5  and  N1_7 
REMARK    3  A    between atoms: N1_7  and  C6_8 
REMARK    4  A    between atoms: N4_15  and  C11_16 
ROOT
HETATM    1  C6  UNL     1      24.259   2.855  52.415  1.00  0.00     0.233 A 
HETATM    2  C7  UNL     1      24.669   3.639  51.235  1.00  0.00     0.055 A 
HETATM    3  C8  UNL     1      23.768   4.036  50.355  1.00  0.00     0.089 A 
HETATM    4  C9  UNL     1      22.348   3.734  50.485  1.00  0.00     0.104 A 
HETATM    5  N2  UNL     1      21.592   4.171  49.556  1.00  0.00    -0.237 NA
HETATM    6  C10 UNL     1      22.089   4.920  48.439  1.00  0.00     0.256 A 
HETATM    7  N3  UNL     1      23.344   5.195  48.312  1.00  0.00    -0.160 NA
HETATM    8  N4  UNL     1      24.302   4.772  49.272  1.00  0.00    -0.231 N 
HETATM    9  C17 UNL     1      21.958   2.957  51.655  1.00  0.00     0.147 A 
HETATM   10  N5  UNL     1      22.857   2.585  52.495  1.00  0.00    -0.270 NA
ENDROOT
BRANCH   1  11
HETATM   11  N1  UNL     1      24.978   1.603  52.555  1.00  0.00    -0.331 N 
HETATM   12  C5  UNL     1      25.974   1.406  53.543  1.00  0.00     0.243 C 
HETATM   13  O1  UNL     1      26.195   2.411  54.303  1.00  0.00    -0.269 OA
HETATM   14  H6  UNL     1      24.804   0.780  51.939  1.00  0.00     0.165 HD
BRANCH  12  15
HETATM   15  C4  UNL     1      26.769   0.257  53.817  1.00  0.00     0.074 C 
HETATM   16  C3  UNL     1      27.982   0.383  53.344  1.00  0.00     0.005 C 
BRANCH  16  17
HETATM   17  C2  UNL     1      28.936  -0.668  53.517  1.00  0.00    -0.010 C 
HETATM   18  C1  UNL     1      30.057  -1.321  53.635  1.00  0.00     0.011 C 
ENDBRANCH  16  17
ENDBRANCH  12  15
ENDBRANCH   1  11
BRANCH   8  19
HETATM   19  C11 UNL     1      25.615   5.160  48.963  1.00  0.00     0.060 A 
HETATM   20  C12 UNL     1      26.795   4.455  48.991  1.00  0.00     0.032 A 
HETATM   21  C13 UNL     1      28.009   4.992  48.625  1.00  0.00     0.004 A 
HETATM   22  C14 UNL     1      28.091   6.300  48.203  1.00  0.00     0.019 A 
HETATM   23  C15 UNL     1      26.947   7.069  48.151  1.00  0.00     0.013 A 
HETATM   24 BR1  UNL     1      27.043   8.882  47.570  1.00  0.00    -0.051 Br
HETATM   25  C16 UNL     1      25.759   6.479  48.529  1.00  0.00     0.050 A 
ENDBRANCH   8  19
TORSDOF 4
ENDMDL
MODEL 6
REMARK VINA RESULT:      -7.5      3.272      6.790
REMARK  4 active torsions:
REMARK  status: ('A' for Active; 'I' for Inactive)
REMARK    1  A    between atoms: C2_2  and  C3_3 
REMARK    2  A    between atoms: C4_4  and  C5_5 
REMARK       I    between atoms: C5_5  and  N1_7 
REMARK    3  A    between atoms: N1_7  and  C6_8 
REMARK    4  A    between atoms: N4_15  and  C11_16 
ROOT
HETATM    1  C6  UNL     1      22.701   1.335  51.330  1.00  0.00     0.233 A 
HETATM    2  C7  UNL     1      23.865   1.060  52.194  1.00  0.00     0.055 A 
HETATM    3  C8  UNL     1      23.737   0.278  53.250  1.00  0.00     0.089 A 
HETATM    4  C9  UNL     1      22.475  -0.347  53.626  1.00  0.00     0.104 A 
HETATM    5  N2  UNL     1      22.495  -1.069  54.676  1.00  0.00    -0.237 NA
HETATM    6  C10 UNL     1      23.679  -1.270  55.458  1.00  0.00     0.256 A 
HETATM    7  N3  UNL     1      24.804  -0.724  55.137  1.00  0.00    -0.160 NA
HETATM    8  N4  UNL     1      24.930   0.106  53.991  1.00  0.00    -0.231 N 
HETATM    9  C17 UNL     1      21.334  -0.065  52.764  1.00  0.00     0.147 A 
HETATM   10  N5  UNL     1      21.488   0.700  51.742  1.00  0.00    -0.270 NA
ENDROOT
BRANCH   1  11
HETATM   11  N1  UNL     1      22.441   2.750  51.145  1.00  0.00    -0.331 N 
HETATM   12  C5  UNL     1      22.792   3.438  49.958  1.00  0.00     0.243 C 
HETATM   13  O1  UNL     1      23.355   2.722  49.060  1.00  0.00    -0.269 OA
HETATM   14  H6  UNL     1      21.983   3.340  51.874  1.00  0.00     0.165 HD
BRANCH  12  15
HETATM   15  C4  UNL     1      22.614   4.808  49.613  1.00  0.00     0.074 C 
HETATM   16  C3  UNL     1      23.427   5.177  48.657  1.00  0.00     0.005 C 
BRANCH  16  17
HETATM   17  C2  UNL     1      23.403   6.520  48.168  1.00  0.00    -0.010 C 
HETATM   18  C1  UNL     1      23.702   7.770  47.954  1.00  0.00     0.011 C 
ENDBRANCH  16  17
ENDBRANCH  12  15
ENDBRANCH   1  11
BRANCH   8  19
HETATM   19  C11 UNL     1      26.225   0.613  53.805  1.00  0.00     0.060 A 
HETATM   20  C12 UNL     1      26.684   1.906  53.709  1.00  0.00     0.032 A 
HETATM   21  C13 UNL     1      28.013   2.231  53.552  1.00  0.00     0.004 A 
HETATM   22  C14 UNL     1      28.966   1.239  53.483  1.00  0.00     0.019 A 
HETATM   23  C15 UNL     1      28.580  -0.081  53.570  1.00  0.00     0.013 A 
HETATM   24 BR1  UNL     1      29.887  -1.465  53.475  1.00  0.00    -0.051 Br
HETATM   25  C16 UNL     1      27.236  -0.348  53.728  1.00  0.00     0.050 A 
ENDBRANCH   8  19
TORSDOF 4
ENDMDL
MODEL 7
REMARK VINA RESULT:      -7.1      1.747      2.071
REMARK  4 active torsions:
REMARK  status: ('A' for Active; 'I' for Inactive)
REMARK    1  A    between atoms: C2_2  and  C3_3 
REMARK    2  A    between atoms: C4_4  and  C5_5 
REMARK       I    between atoms: C5_5  and  N1_7 
REMARK    3  A    between atoms: N1_7  and  C6_8 
REMARK    4  A    between atoms: N4_15  and  C11_16 
ROOT
HETATM    1  C6  UNL     1      23.344   1.233  52.415  1.00  0.00     0.233 A 
HETATM    2  C7  UNL     1      23.267   2.494  51.653  1.00  0.00     0.055 A 
HETATM    3  C8  UNL     1      22.332   2.660  50.735  1.00  0.00     0.089 A 
HETATM    4  C9  UNL     1      21.343   1.637  50.420  1.00  0.00     0.104 A 
HETATM    5  N2  UNL     1      20.505   1.928  49.504  1.00  0.00    -0.237 NA
HETATM    6  C10 UNL     1      20.517   3.183  48.811  1.00  0.00     0.256 A 
HETATM    7  N3  UNL     1      21.387   4.098  49.081  1.00  0.00    -0.160 NA
HETATM    8  N4  UNL     1      22.381   3.912  50.079  1.00  0.00    -0.231 N 
HETATM    9  C17 UNL     1      21.432   0.397  51.179  1.00  0.00     0.147 A 
HETATM   10  N5  UNL     1      22.353   0.265  52.067  1.00  0.00    -0.270 NA
ENDROOT
BRANCH   1  11
HETATM   11  N1  UNL     1      24.649   0.601  52.355  1.00  0.00    -0.331 N 
HETATM   12  C5  UNL     1      25.094  -0.317  53.338  1.00  0.00     0.243 C 
HETATM   13  O1  UNL     1      24.263  -0.548  54.283  1.00  0.00    -0.269 OA
HETATM   14  H6  UNL     1      25.330   0.786  51.588  1.00  0.00     0.165 HD
BRANCH  12  15
HETATM   15  C4  UNL     1      26.327  -1.020  53.434  1.00  0.00     0.074 C 
HETATM   16  C3  UNL     1      27.343  -0.204  53.552  1.00  0.00     0.005 C 
BRANCH  16  17
HETATM   17  C2  UNL     1      28.672  -0.719  53.663  1.00  0.00    -0.010 C 
HETATM   18  C1  UNL     1      29.932  -0.966  53.438  1.00  0.00     0.011 C 
ENDBRANCH  16  17
ENDBRANCH  12  15
ENDBRANCH   1  11
BRANCH   8  19
HETATM   19  C11 UNL     1      23.239   5.012  50.228  1.00  0.00     0.060 A 
HETATM   20  C12 UNL     1      23.090   6.185  50.929  1.00  0.00     0.032 A 
HETATM   21  C13 UNL     1      24.059   7.161  50.992  1.00  0.00     0.004 A 
HETATM   22  C14 UNL     1      25.256   6.994  50.331  1.00  0.00     0.019 A 
HETATM   23  C15 UNL     1      25.476   5.843  49.606  1.00  0.00     0.013 A 
HETATM   24 BR1  UNL     1      27.126   5.597  48.685  1.00  0.00    -0.051 Br
HETATM   25  C16 UNL     1      24.471   4.898  49.579  1.00  0.00     0.050 A 
ENDBRANCH   8  19
TORSDOF 4
ENDMDL
MODEL 8
REMARK VINA RESULT:      -7.0      3.051      7.428
REMARK  4 active torsions:
REMARK  status: ('A' for Active; 'I' for Inactive)
REMARK    1  A    between atoms: C2_2  and  C3_3 
REMARK    2  A    between atoms: C4_4  and  C5_5 
REMARK       I    between atoms: C5_5  and  N1_7 
REMARK    3  A    between atoms: N1_7  and  C6_8 
REMARK    4  A    between atoms: N4_15  and  C11_16 
ROOT
HETATM    1  C6  UNL     1      24.505   3.244  51.055  1.00  0.00     0.233 A 
HETATM    2  C7  UNL     1      24.048   2.060  51.809  1.00  0.00     0.055 A 
HETATM    3  C8  UNL     1      24.921   1.164  52.231  1.00  0.00     0.089 A 
HETATM    4  C9  UNL     1      26.353   1.276  51.987  1.00  0.00     0.104 A 
HETATM    5  N2  UNL     1      27.078   0.332  52.443  1.00  0.00    -0.237 NA
HETATM    6  C10 UNL     1      26.537  -0.786  53.158  1.00  0.00     0.256 A 
HETATM    7  N3  UNL     1      25.270  -0.898  53.383  1.00  0.00    -0.160 NA
HETATM    8  N4  UNL     1      24.343   0.080  52.933  1.00  0.00    -0.231 N 
HETATM    9  C17 UNL     1      26.790   2.449  51.240  1.00  0.00     0.147 A 
HETATM   10  N5  UNL     1      25.917   3.306  50.842  1.00  0.00    -0.270 NA
ENDROOT
BRANCH   1  11
HETATM   11  N1  UNL     1      23.838   3.408  49.778  1.00  0.00    -0.331 N 
HETATM   12  C5  UNL     1      23.403   4.670  49.304  1.00  0.00     0.243 C 
HETATM   13  O1  UNL     1      23.641   5.655  50.085  1.00  0.00    -0.269 OA
HETATM   14  H6  UNL     1      23.641   2.609  49.137  1.00  0.00     0.165 HD
BRANCH  12  15
HETATM   15  C4  UNL     1      22.740   5.008  48.091  1.00  0.00     0.074 C 
HETATM   16  C3  UNL     1      22.377   3.943  47.425  1.00  0.00     0.005 C 
BRANCH  16  17
HETATM   17  C2  UNL     1      21.693   4.072  46.175  1.00  0.00    -0.010 C 
HETATM   18  C1  UNL     1      20.923   3.840  45.150  1.00  0.00     0.011 C 
ENDBRANCH  16  17
ENDBRANCH  12  15
ENDBRANCH   1  11
BRANCH   8  19
HETATM   19  C11 UNL     1      23.012  -0.214  53.265  1.00  0.00     0.060 A 
HETATM   20  C12 UNL     1      22.470  -0.809  54.380  1.00  0.00     0.032 A 
HETATM   21  C13 UNL     1      21.117  -0.998  54.558  1.00  0.00     0.004 A 
HETATM   22  C14 UNL     1      20.225  -0.585  53.593  1.00  0.00     0.019 A 
HETATM   23  C15 UNL     1      20.697   0.018  52.447  1.00  0.00     0.013 A 
HETATM   24 BR1  UNL     1      19.476   0.593  51.101  1.00  0.00    -0.051 Br
HETATM   25  C16 UNL     1      22.061   0.183  52.322  1.00  0.00     0.050 A 
ENDBRANCH   8  19
TORSDOF 4
ENDMDL
MODEL 9
REMARK VINA RESULT:      -6.9      1.949      2.818
REMARK  4 active torsions:
REMARK  status: ('A' for Active; 'I' for Inactive)
REMARK    1  A    between atoms: C2_2  and  C3_3 
REMARK    2  A    between atoms: C4_4  and  C5_5 
REMARK       I    between atoms: C5_5  and  N1_7 
REMARK    3  A    between atoms: N1_7  and  C6_8 
REMARK    4  A    between atoms: N4_15  and  C11_16 
ROOT
HETATM    1  C6  UNL     1      22.704   2.042  50.883  1.00  0.00     0.233 A 
HETATM    2  C7  UNL     1      23.076   3.321  50.249  1.00  0.00     0.055 A 
HETATM    3  C8  UNL     1      22.665   3.599  49.025  1.00  0.00     0.089 A 
HETATM    4  C9  UNL     1      21.843   2.688  48.239  1.00  0.00     0.104 A 
HETATM    5  N2  UNL     1      21.528   3.081  47.068  1.00  0.00    -0.237 NA
HETATM    6  C10 UNL     1      21.946   4.344  46.535  1.00  0.00     0.256 A 
HETATM    7  N3  UNL     1      22.674   5.162  47.220  1.00  0.00    -0.160 NA
HETATM    8  N4  UNL     1      23.100   4.855  48.540  1.00  0.00    -0.231 N 
HETATM    9  C17 UNL     1      21.485   1.427  48.878  1.00  0.00     0.147 A 
HETATM   10  N5  UNL     1      21.899   1.184  50.071  1.00  0.00    -0.270 NA
ENDROOT
BRANCH   1  11
HETATM   11  N1  UNL     1      23.844   1.284  51.365  1.00  0.00    -0.331 N 
HETATM   12  C5  UNL     1      23.894   0.735  52.670  1.00  0.00     0.243 C 
HETATM   13  O1  UNL     1      22.861   0.954  53.393  1.00  0.00    -0.269 OA
HETATM   14  H6  UNL     1      24.688   1.102  50.781  1.00  0.00     0.165 HD
BRANCH  12  15
HETATM   15  C4  UNL     1      24.920  -0.025  53.299  1.00  0.00     0.074 C 
HETATM   16  C3  UNL     1      26.027  -0.013  52.603  1.00  0.00     0.005 C 
BRANCH  16  17
HETATM   17  C2  UNL     1      27.180  -0.720  53.069  1.00  0.00    -0.010 C 
HETATM   18  C1  UNL     1      28.336  -1.318  53.114  1.00  0.00     0.011 C 
ENDBRANCH  16  17
ENDBRANCH  12  15
ENDBRANCH   1  11
BRANCH   8  19
HETATM   19  C11 UNL     1      23.885   5.860  49.125  1.00  0.00     0.060 A 
HETATM   20  C12 UNL     1      23.598   6.767  50.118  1.00  0.00     0.032 A 
HETATM   21  C13 UNL     1      24.510   7.681  50.598  1.00  0.00     0.004 A 
HETATM   22  C14 UNL     1      25.787   7.723  50.084  1.00  0.00     0.019 A 
HETATM   23  C15 UNL     1      26.146   6.844  49.084  1.00  0.00     0.013 A 
HETATM   24 BR1  UNL     1      27.908   6.891  48.361  1.00  0.00    -0.051 Br
HETATM   25  C16 UNL     1      25.192   5.950  48.642  1.00  0.00     0.050 A 
ENDBRANCH   8  19
TORSDOF 4
ENDMDL
