MODEL 1
REMARK VINA RESULT:      -8.0      0.000      0.000
REMARK  8 active torsions:
REMARK  status: ('A' for Active; 'I' for Inactive)
REMARK    1  A    between atoms: N1_2  and  C3_4 
REMARK    2  A    between atoms: C3_4  and  C4_5 
REMARK    3  A    between atoms: C4_5  and  C5_7 
REMARK    4  A    between atoms: C5_7  and  O2_8 
REMARK    5  A    between atoms: C5_7  and  C6_9 
REMARK    6  A    between atoms: C7_10  and  C8_11 
REMARK    7  A    between atoms: C12_17  and  C13_18 
REMARK    8  A    between atoms: C18_24  and  C19_25 
ROOT
HETATM    1  C8  UNL     1      25.761  -0.150  54.157  1.00  0.00     0.169 C 
HETATM    2  N2  UNL     1      26.746  -0.671  54.808  1.00  0.00    -0.155 NA
HETATM    3  N3  UNL     1      28.147  -0.443  54.837  1.00  0.00    -0.288 N 
HETATM    4  C9  UNL     1      28.932   0.590  54.208  1.00  0.00     0.105 C 
HETATM    5  C10 UNL     1      28.639   1.784  53.717  1.00  0.00    -0.002 C 
HETATM    6  C11 UNL     1      27.506   2.722  53.508  1.00  0.00     0.088 C 
HETATM    7  C12 UNL     1      26.352   1.985  52.927  1.00  0.00     0.051 C 
HETATM    8  N4  UNL     1      25.696   0.889  53.187  1.00  0.00    -0.231 NA
HETATM    9  H13 UNL     1      28.692  -1.125  55.396  1.00  0.00     0.188 HD
ENDROOT
BRANCH   1  10
HETATM   10  C7  UNL     1      24.462  -0.733  54.474  1.00  0.00     0.053 C 
HETATM   11  C6  UNL     1      23.460  -0.618  53.619  1.00  0.00     0.016 C 
BRANCH  11  12
HETATM   12  C5  UNL     1      22.145  -1.225  53.973  1.00  0.00     0.212 C 
BRANCH  12  13
HETATM   13  C4  UNL     1      21.067  -0.207  54.009  1.00  0.00     0.187 C 
HETATM   14  O1  UNL     1      20.749   0.458  54.980  1.00  0.00    -0.293 OA
BRANCH  13  15
HETATM   15  C3  UNL     1      20.256   0.089  52.795  1.00  0.00     0.352 C 
BRANCH  15  16
HETATM   16  N1  UNL     1      20.691   1.267  52.111  1.00  0.00     0.086 N 
HETATM   17  C1  UNL     1      19.585   2.195  51.927  1.00  0.00     0.309 C 
HETATM   18  C2  UNL     1      21.424   1.051  50.905  1.00  0.00     0.309 C 
ENDBRANCH  15  16
ENDBRANCH  13  15
ENDBRANCH  12  13
BRANCH  12  19
HETATM   19  O2  UNL     1      22.243  -1.817  55.220  1.00  0.00    -0.384 OA
HETATM   20  H10 UNL     1      22.207  -1.109  55.922  1.00  0.00     0.211 HD
ENDBRANCH  12  19
ENDBRANCH  11  12
ENDBRANCH   1  10
BRANCH   7  21
HETATM   21  C13 UNL     1      25.786   2.655  51.745  1.00  0.00     0.005 A 
HETATM   22  C14 UNL     1      26.646   2.632  50.660  1.00  0.00     0.014 A 
HETATM   23  C15 UNL     1      26.265   3.224  49.456  1.00  0.00     0.004 A 
HETATM   24  C16 UNL     1      25.022   3.851  49.309  1.00  0.00     0.043 A 
HETATM   25  C17 UNL     1      24.209   3.844  50.423  1.00  0.00     0.130 A 
HETATM   26  F1  UNL     1      22.986   4.435  50.350  1.00  0.00    -0.205 F 
HETATM   27  C18 UNL     1      24.555   3.267  51.628  1.00  0.00     0.052 A 
BRANCH  27  28
HETATM   28  C19 UNL     1      23.744   3.233  52.816  1.00  0.00     0.274 C 
HETATM   29  O3  UNL     1      23.813   4.359  53.390  1.00  0.00    -0.301 OA
ENDBRANCH  27  28
ENDBRANCH   7  21
TORSDOF 8
ENDMDL
MODEL 2
REMARK VINA RESULT:      -8.0      4.300      8.205
REMARK  8 active torsions:
REMARK  status: ('A' for Active; 'I' for Inactive)
REMARK    1  A    between atoms: N1_2  and  C3_4 
REMARK    2  A    between atoms: C3_4  and  C4_5 
REMARK    3  A    between atoms: C4_5  and  C5_7 
REMARK    4  A    between atoms: C5_7  and  O2_8 
REMARK    5  A    between atoms: C5_7  and  C6_9 
REMARK    6  A    between atoms: C7_10  and  C8_11 
REMARK    7  A    between atoms: C12_17  and  C13_18 
REMARK    8  A    between atoms: C18_24  and  C19_25 
ROOT
HETATM    1  C8  UNL     1      25.243   3.560  50.282  1.00  0.00     0.169 C 
HETATM    2  N2  UNL     1      24.040   3.412  49.836  1.00  0.00    -0.155 NA
HETATM    3  N3  UNL     1      23.007   2.466  50.066  1.00  0.00    -0.288 N 
HETATM    4  C9  UNL     1      22.930   1.390  51.023  1.00  0.00     0.105 C 
HETATM    5  C10 UNL     1      23.565   1.133  52.156  1.00  0.00    -0.002 C 
HETATM    6  C11 UNL     1      24.610   1.670  53.065  1.00  0.00     0.088 C 
HETATM    7  C12 UNL     1      25.795   2.086  52.268  1.00  0.00     0.051 C 
HETATM    8  N4  UNL     1      26.021   2.810  51.207  1.00  0.00    -0.231 NA
HETATM    9  H13 UNL     1      22.178   2.561  49.450  1.00  0.00     0.188 HD
ENDROOT
BRANCH   1  10
HETATM   10  C7  UNL     1      25.941   4.719  49.737  1.00  0.00     0.053 C 
HETATM   11  C6  UNL     1      27.008   4.548  48.975  1.00  0.00     0.016 C 
BRANCH  11  12
HETATM   12  C5  UNL     1      27.700   5.752  48.433  1.00  0.00     0.212 C 
BRANCH  12  13
HETATM   13  C4  UNL     1      29.153   5.512  48.254  1.00  0.00     0.187 C 
HETATM   14  O1  UNL     1      29.664   4.454  47.930  1.00  0.00    -0.293 OA
BRANCH  13  15
HETATM   15  C3  UNL     1      30.139   6.607  48.469  1.00  0.00     0.352 C 
BRANCH  15  16
HETATM   16  N1  UNL     1      31.488   6.134  48.529  1.00  0.00     0.086 N 
HETATM   17  C1  UNL     1      31.991   6.183  49.894  1.00  0.00     0.309 C 
HETATM   18  C2  UNL     1      32.394   6.721  47.595  1.00  0.00     0.309 C 
ENDBRANCH  15  16
ENDBRANCH  13  15
ENDBRANCH  12  13
BRANCH  12  19
HETATM   19  O2  UNL     1      27.526   6.807  49.313  1.00  0.00    -0.384 OA
HETATM   20  H10 UNL     1      26.779   7.384  48.988  1.00  0.00     0.211 HD
ENDBRANCH  12  19
ENDBRANCH  11  12
ENDBRANCH   1  10
BRANCH   7  21
HETATM   21  C13 UNL     1      27.057   1.551  52.803  1.00  0.00     0.005 A 
HETATM   22  C14 UNL     1      27.808   2.515  53.453  1.00  0.00     0.014 A 
HETATM   23  C15 UNL     1      29.036   2.176  54.021  1.00  0.00     0.004 A 
HETATM   24  C16 UNL     1      29.540   0.872  53.952  1.00  0.00     0.043 A 
HETATM   25  C17 UNL     1      28.749  -0.045  53.291  1.00  0.00     0.130 A 
HETATM   26  F1  UNL     1      29.178  -1.331  53.187  1.00  0.00    -0.205 F 
HETATM   27  C18 UNL     1      27.530   0.257  52.719  1.00  0.00     0.052 A 
BRANCH  27  28
HETATM   28  C19 UNL     1      26.670  -0.661  52.021  1.00  0.00     0.274 C 
HETATM   29  O3  UNL     1      26.164  -1.465  52.859  1.00  0.00    -0.301 OA
ENDBRANCH  27  28
ENDBRANCH   7  21
TORSDOF 8
ENDMDL
MODEL 3
REMARK VINA RESULT:      -8.0      4.125      7.553
REMARK  8 active torsions:
REMARK  status: ('A' for Active; 'I' for Inactive)
REMARK    1  A    between atoms: N1_2  and  C3_4 
REMARK    2  A    between atoms: C3_4  and  C4_5 
REMARK    3  A    between atoms: C4_5  and  C5_7 
REMARK    4  A    between atoms: C5_7  and  O2_8 
REMARK    5  A    between atoms: C5_7  and  C6_9 
REMARK    6  A    between atoms: C7_10  and  C8_11 
REMARK    7  A    between atoms: C12_17  and  C13_18 
REMARK    8  A    between atoms: C18_24  and  C19_25 
ROOT
HETATM    1  C8  UNL     1      25.604   2.343  51.002  1.00  0.00     0.169 C 
HETATM    2  N2  UNL     1      24.350   2.605  50.843  1.00  0.00    -0.155 NA
HETATM    3  N3  UNL     1      23.145   1.976  51.254  1.00  0.00    -0.288 N 
HETATM    4  C9  UNL     1      22.938   0.857  52.139  1.00  0.00     0.105 C 
HETATM    5  C10 UNL     1      23.681   0.286  53.074  1.00  0.00    -0.002 C 
HETATM    6  C11 UNL     1      25.005   0.380  53.742  1.00  0.00     0.088 C 
HETATM    7  C12 UNL     1      26.069   0.534  52.715  1.00  0.00     0.051 C 
HETATM    8  N4  UNL     1      26.284   1.290  51.674  1.00  0.00    -0.231 NA
HETATM    9  H13 UNL     1      22.278   2.383  50.855  1.00  0.00     0.188 HD
ENDROOT
BRANCH   1  10
HETATM   10  C7  UNL     1      26.498   3.311  50.377  1.00  0.00     0.053 C 
HETATM   11  C6  UNL     1      26.009   4.430  49.871  1.00  0.00     0.016 C 
BRANCH  11  12
HETATM   12  C5  UNL     1      26.949   5.399  49.238  1.00  0.00     0.212 C 
BRANCH  12  13
HETATM   13  C4  UNL     1      26.221   6.472  48.516  1.00  0.00     0.187 C 
HETATM   14  O1  UNL     1      25.041   6.450  48.211  1.00  0.00    -0.293 OA
BRANCH  13  15
HETATM   15  C3  UNL     1      26.922   7.716  48.092  1.00  0.00     0.352 C 
BRANCH  15  16
HETATM   16  N1  UNL     1      27.755   8.260  49.119  1.00  0.00     0.086 N 
HETATM   17  C1  UNL     1      26.967   9.035  50.066  1.00  0.00     0.309 C 
HETATM   18  C2  UNL     1      28.913   8.965  48.672  1.00  0.00     0.309 C 
ENDBRANCH  15  16
ENDBRANCH  13  15
ENDBRANCH  12  13
BRANCH  12  19
HETATM   19  O2  UNL     1      27.756   4.723  48.339  1.00  0.00    -0.384 OA
HETATM   20  H10 UNL     1      27.805   5.243  47.489  1.00  0.00     0.211 HD
ENDBRANCH  12  19
ENDBRANCH  11  12
ENDBRANCH   1  10
BRANCH   7  21
HETATM   21  C13 UNL     1      27.186  -0.406  52.908  1.00  0.00     0.005 A 
HETATM   22  C14 UNL     1      26.855  -1.701  52.550  1.00  0.00     0.014 A 
HETATM   23  C15 UNL     1      27.799  -2.720  52.671  1.00  0.00     0.004 A 
HETATM   24  C16 UNL     1      29.091  -2.469  53.149  1.00  0.00     0.043 A 
HETATM   25  C17 UNL     1      29.362  -1.161  53.491  1.00  0.00     0.130 A 
HETATM   26  F1  UNL     1      30.598  -0.845  53.962  1.00  0.00    -0.205 F 
HETATM   27  C18 UNL     1      28.451  -0.130  53.383  1.00  0.00     0.052 A 
BRANCH  27  28
HETATM   28  C19 UNL     1      28.685   1.248  53.724  1.00  0.00     0.274 C 
HETATM   29  O3  UNL     1      28.676   1.364  54.985  1.00  0.00    -0.301 OA
ENDBRANCH  27  28
ENDBRANCH   7  21
TORSDOF 8
ENDMDL
MODEL 4
REMARK VINA RESULT:      -7.8      2.193      5.644
REMARK  8 active torsions:
REMARK  status: ('A' for Active; 'I' for Inactive)
REMARK    1  A    between atoms: N1_2  and  C3_4 
REMARK    2  A    between atoms: C3_4  and  C4_5 
REMARK    3  A    between atoms: C4_5  and  C5_7 
REMARK    4  A    between atoms: C5_7  and  O2_8 
REMARK    5  A    between atoms: C5_7  and  C6_9 
REMARK    6  A    between atoms: C7_10  and  C8_11 
REMARK    7  A    between atoms: C12_17  and  C13_18 
REMARK    8  A    between atoms: C18_24  and  C19_25 
ROOT
HETATM    1  C8  UNL     1      21.765  -0.516  53.530  1.00  0.00     0.169 C 
HETATM    2  N2  UNL     1      20.815  -1.218  54.050  1.00  0.00    -0.155 NA
HETATM    3  N3  UNL     1      19.408  -1.267  53.873  1.00  0.00    -0.288 N 
HETATM    4  C9  UNL     1      18.570  -0.601  52.906  1.00  0.00     0.105 C 
HETATM    5  C10 UNL     1      18.807  -0.038  51.732  1.00  0.00    -0.002 C 
HETATM    6  C11 UNL     1      19.898   0.250  50.766  1.00  0.00     0.088 C 
HETATM    7  C12 UNL     1      21.066   0.816  51.491  1.00  0.00     0.051 C 
HETATM    8  N4  UNL     1      21.769   0.511  52.546  1.00  0.00    -0.231 NA
HETATM    9  H13 UNL     1      18.900  -1.876  54.542  1.00  0.00     0.188 HD
ENDROOT
BRANCH   1  10
HETATM   10  C7  UNL     1      23.092  -0.835  54.046  1.00  0.00     0.053 C 
HETATM   11  C6  UNL     1      24.108  -0.025  53.799  1.00  0.00     0.016 C 
BRANCH  11  12
HETATM   12  C5  UNL     1      25.451  -0.379  54.341  1.00  0.00     0.212 C 
BRANCH  12  13
HETATM   13  C4  UNL     1      26.364  -0.848  53.270  1.00  0.00     0.187 C 
HETATM   14  O1  UNL     1      26.850  -1.963  53.187  1.00  0.00    -0.293 OA
BRANCH  13  15
HETATM   15  C3  UNL     1      26.771   0.060  52.162  1.00  0.00     0.352 C 
BRANCH  15  16
HETATM   16  N1  UNL     1      27.048   1.391  52.609  1.00  0.00     0.086 N 
HETATM   17  C1  UNL     1      26.750   2.359  51.564  1.00  0.00     0.309 C 
HETATM   18  C2  UNL     1      28.337   1.596  53.188  1.00  0.00     0.309 C 
ENDBRANCH  15  16
ENDBRANCH  13  15
ENDBRANCH  12  13
BRANCH  12  19
HETATM   19  O2  UNL     1      25.308  -1.386  55.280  1.00  0.00    -0.384 OA
HETATM   20  H10 UNL     1      24.688  -2.082  54.922  1.00  0.00     0.211 HD
ENDBRANCH  12  19
ENDBRANCH  11  12
ENDBRANCH   1  10
BRANCH   7  21
HETATM   21  C13 UNL     1      21.581   2.046  50.868  1.00  0.00     0.005 A 
HETATM   22  C14 UNL     1      22.404   1.787  49.786  1.00  0.00     0.014 A 
HETATM   23  C15 UNL     1      22.979   2.843  49.079  1.00  0.00     0.004 A 
HETATM   24  C16 UNL     1      22.745   4.177  49.435  1.00  0.00     0.043 A 
HETATM   25  C17 UNL     1      21.918   4.373  50.522  1.00  0.00     0.130 A 
HETATM   26  F1  UNL     1      21.647   5.644  50.923  1.00  0.00    -0.205 F 
HETATM   27  C18 UNL     1      21.334   3.351  51.242  1.00  0.00     0.052 A 
BRANCH  27  28
HETATM   28  C19 UNL     1      20.466   3.504  52.379  1.00  0.00     0.274 C 
HETATM   29  O3  UNL     1      19.285   3.703  51.968  1.00  0.00    -0.301 OA
ENDBRANCH  27  28
ENDBRANCH   7  21
TORSDOF 8
ENDMDL
MODEL 5
REMARK VINA RESULT:      -7.8      3.128      6.475
REMARK  8 active torsions:
REMARK  status: ('A' for Active; 'I' for Inactive)
REMARK    1  A    between atoms: N1_2  and  C3_4 
REMARK    2  A    between atoms: C3_4  and  C4_5 
REMARK    3  A    between atoms: C4_5  and  C5_7 
REMARK    4  A    between atoms: C5_7  and  O2_8 
REMARK    5  A    between atoms: C5_7  and  C6_9 
REMARK    6  A    between atoms: C7_10  and  C8_11 
REMARK    7  A    between atoms: C12_17  and  C13_18 
REMARK    8  A    between atoms: C18_24  and  C19_25 
ROOT
HETATM    1  C8  UNL     1      23.423   2.553  52.348  1.00  0.00     0.169 C 
HETATM    2  N2  UNL     1      22.170   2.387  52.085  1.00  0.00    -0.155 NA
HETATM    3  N3  UNL     1      21.317   1.257  51.999  1.00  0.00    -0.288 N 
HETATM    4  C9  UNL     1      21.570  -0.125  52.325  1.00  0.00     0.105 C 
HETATM    5  C10 UNL     1      22.475  -0.731  53.078  1.00  0.00    -0.002 C 
HETATM    6  C11 UNL     1      23.646  -0.463  53.951  1.00  0.00     0.088 C 
HETATM    7  C12 UNL     1      24.565   0.488  53.271  1.00  0.00     0.051 C 
HETATM    8  N4  UNL     1      24.466   1.637  52.663  1.00  0.00    -0.231 NA
HETATM    9  H13 UNL     1      20.361   1.452  51.645  1.00  0.00     0.188 HD
ENDROOT
BRANCH   1  10
HETATM   10  C7  UNL     1      23.859   3.945  52.318  1.00  0.00     0.053 C 
HETATM   11  C6  UNL     1      23.521   4.719  51.300  1.00  0.00     0.016 C 
BRANCH  11  12
HETATM   12  C5  UNL     1      23.982   6.138  51.299  1.00  0.00     0.212 C 
BRANCH  12  13
HETATM   13  C4  UNL     1      25.115   6.342  50.364  1.00  0.00     0.187 C 
HETATM   14  O1  UNL     1      25.878   7.293  50.368  1.00  0.00    -0.293 OA
BRANCH  13  15
HETATM   15  C3  UNL     1      25.415   5.345  49.299  1.00  0.00     0.352 C 
BRANCH  15  16
HETATM   16  N1  UNL     1      26.613   4.606  49.553  1.00  0.00     0.086 N 
HETATM   17  C1  UNL     1      27.644   4.944  48.582  1.00  0.00     0.309 C 
HETATM   18  C2  UNL     1      26.453   3.195  49.706  1.00  0.00     0.309 C 
ENDBRANCH  15  16
ENDBRANCH  13  15
ENDBRANCH  12  13
BRANCH  12  19
HETATM   19  O2  UNL     1      24.389   6.481  52.577  1.00  0.00    -0.384 OA
HETATM   20  H10 UNL     1      25.090   7.190  52.517  1.00  0.00     0.211 HD
ENDBRANCH  12  19
ENDBRANCH  11  12
ENDBRANCH   1  10
BRANCH   7  21
HETATM   21  C13 UNL     1      25.964   0.028  53.274  1.00  0.00     0.005 A 
HETATM   22  C14 UNL     1      26.105  -1.244  52.747  1.00  0.00     0.014 A 
HETATM   23  C15 UNL     1      27.367  -1.833  52.675  1.00  0.00     0.004 A 
HETATM   24  C16 UNL     1      28.513  -1.167  53.127  1.00  0.00     0.043 A 
HETATM   25  C17 UNL     1      28.311   0.096  53.642  1.00  0.00     0.130 A 
HETATM   26  F1  UNL     1      29.381   0.800  54.098  1.00  0.00    -0.205 F 
HETATM   27  C18 UNL     1      27.076   0.707  53.727  1.00  0.00     0.052 A 
BRANCH  27  28
HETATM   28  C19 UNL     1      26.814   2.020  54.254  1.00  0.00     0.274 C 
HETATM   29  O3  UNL     1      27.864   2.721  54.147  1.00  0.00    -0.301 OA
ENDBRANCH  27  28
ENDBRANCH   7  21
TORSDOF 8
ENDMDL
MODEL 6
REMARK VINA RESULT:      -7.7      4.099      7.932
REMARK  8 active torsions:
REMARK  status: ('A' for Active; 'I' for Inactive)
REMARK    1  A    between atoms: N1_2  and  C3_4 
REMARK    2  A    between atoms: C3_4  and  C4_5 
REMARK    3  A    between atoms: C4_5  and  C5_7 
REMARK    4  A    between atoms: C5_7  and  O2_8 
REMARK    5  A    between atoms: C5_7  and  C6_9 
REMARK    6  A    between atoms: C7_10  and  C8_11 
REMARK    7  A    between atoms: C12_17  and  C13_18 
REMARK    8  A    between atoms: C18_24  and  C19_25 
ROOT
HETATM    1  C8  UNL     1      25.410   3.195  50.382  1.00  0.00     0.169 C 
HETATM    2  N2  UNL     1      24.186   3.372  50.012  1.00  0.00    -0.155 NA
HETATM    3  N3  UNL     1      22.975   2.660  50.218  1.00  0.00    -0.288 N 
HETATM    4  C9  UNL     1      22.698   1.524  51.061  1.00  0.00     0.105 C 
HETATM    5  C10 UNL     1      23.311   0.999  52.111  1.00  0.00    -0.002 C 
HETATM    6  C11 UNL     1      24.493   1.179  52.992  1.00  0.00     0.088 C 
HETATM    7  C12 UNL     1      25.702   1.412  52.158  1.00  0.00     0.051 C 
HETATM    8  N4  UNL     1      26.038   2.186  51.164  1.00  0.00    -0.231 NA
HETATM    9  H13 UNL     1      22.161   3.010  49.677  1.00  0.00     0.188 HD
ENDROOT
BRANCH   1  10
HETATM   10  C7  UNL     1      26.329   4.225  49.910  1.00  0.00     0.053 C 
HETATM   11  C6  UNL     1      25.869   5.246  49.206  1.00  0.00     0.016 C 
BRANCH  11  12
HETATM   12  C5  UNL     1      26.834   6.283  48.739  1.00  0.00     0.212 C 
BRANCH  12  13
HETATM   13  C4  UNL     1      28.127   5.680  48.333  1.00  0.00     0.187 C 
HETATM   14  O1  UNL     1      28.425   4.501  48.431  1.00  0.00    -0.293 OA
BRANCH  13  15
HETATM   15  C3  UNL     1      29.209   6.518  47.746  1.00  0.00     0.352 C 
BRANCH  15  16
HETATM   16  N1  UNL     1      30.418   6.477  48.509  1.00  0.00     0.086 N 
HETATM   17  C1  UNL     1      30.779   7.808  48.975  1.00  0.00     0.309 C 
HETATM   18  C2  UNL     1      31.516   5.800  47.897  1.00  0.00     0.309 C 
ENDBRANCH  15  16
ENDBRANCH  13  15
ENDBRANCH  12  13
BRANCH  12  19
HETATM   19  O2  UNL     1      27.063   7.182  49.766  1.00  0.00    -0.384 OA
HETATM   20  H10 UNL     1      26.524   8.006  49.606  1.00  0.00     0.211 HD
ENDBRANCH  12  19
ENDBRANCH  11  12
ENDBRANCH   1  10
BRANCH   7  21
HETATM   21  C13 UNL     1      26.832   0.549  52.540  1.00  0.00     0.005 A 
HETATM   22  C14 UNL     1      26.542  -0.797  52.397  1.00  0.00     0.014 A 
HETATM   23  C15 UNL     1      27.504  -1.755  52.717  1.00  0.00     0.004 A 
HETATM   24  C16 UNL     1      28.773  -1.392  53.185  1.00  0.00     0.043 A 
HETATM   25  C17 UNL     1      29.003  -0.037  53.308  1.00  0.00     0.130 A 
HETATM   26  F1  UNL     1      30.215   0.387  53.757  1.00  0.00    -0.205 F 
HETATM   27  C18 UNL     1      28.074   0.935  53.000  1.00  0.00     0.052 A 
BRANCH  27  28
HETATM   28  C19 UNL     1      28.266   2.357  53.111  1.00  0.00     0.274 C 
HETATM   29  O3  UNL     1      28.273   2.675  54.337  1.00  0.00    -0.301 OA
ENDBRANCH  27  28
ENDBRANCH   7  21
TORSDOF 8
ENDMDL
MODEL 7
REMARK VINA RESULT:      -7.7      2.572      6.199
REMARK  8 active torsions:
REMARK  status: ('A' for Active; 'I' for Inactive)
REMARK    1  A    between atoms: N1_2  and  C3_4 
REMARK    2  A    between atoms: C3_4  and  C4_5 
REMARK    3  A    between atoms: C4_5  and  C5_7 
REMARK    4  A    between atoms: C5_7  and  O2_8 
REMARK    5  A    between atoms: C5_7  and  C6_9 
REMARK    6  A    between atoms: C7_10  and  C8_11 
REMARK    7  A    between atoms: C12_17  and  C13_18 
REMARK    8  A    between atoms: C18_24  and  C19_25 
ROOT
HETATM    1  C8  UNL     1      24.696   2.690  53.398  1.00  0.00     0.169 C 
HETATM    2  N2  UNL     1      25.812   2.476  54.012  1.00  0.00    -0.155 NA
HETATM    3  N3  UNL     1      26.394   1.348  54.646  1.00  0.00    -0.288 N 
HETATM    4  C9  UNL     1      25.952  -0.024  54.690  1.00  0.00     0.105 C 
HETATM    5  C10 UNL     1      25.123  -0.736  53.944  1.00  0.00    -0.002 C 
HETATM    6  C11 UNL     1      24.232  -0.641  52.758  1.00  0.00     0.088 C 
HETATM    7  C12 UNL     1      23.393   0.583  52.866  1.00  0.00     0.051 C 
HETATM    8  N4  UNL     1      23.585   1.849  53.110  1.00  0.00    -0.231 NA
HETATM    9  H13 UNL     1      27.275   1.538  55.160  1.00  0.00     0.188 HD
ENDROOT
BRANCH   1  10
HETATM   10  C7  UNL     1      24.541   4.052  52.901  1.00  0.00     0.053 C 
HETATM   11  C6  UNL     1      23.867   4.274  51.785  1.00  0.00     0.016 C 
BRANCH  11  12
HETATM   12  C5  UNL     1      23.726   5.678  51.303  1.00  0.00     0.212 C 
BRANCH  12  13
HETATM   13  C4  UNL     1      24.361   5.865  49.975  1.00  0.00     0.187 C 
HETATM   14  O1  UNL     1      23.786   5.822  48.901  1.00  0.00    -0.293 OA
BRANCH  13  15
HETATM   15  C3  UNL     1      25.821   6.131  49.858  1.00  0.00     0.352 C 
BRANCH  15  16
HETATM   16  N1  UNL     1      26.481   5.221  48.974  1.00  0.00     0.086 N 
HETATM   17  C1  UNL     1      26.632   3.914  49.597  1.00  0.00     0.309 C 
HETATM   18  C2  UNL     1      27.699   5.689  48.395  1.00  0.00     0.309 C 
ENDBRANCH  15  16
ENDBRANCH  13  15
ENDBRANCH  12  13
BRANCH  12  19
HETATM   19  O2  UNL     1      24.332   6.530  52.211  1.00  0.00    -0.384 OA
HETATM   20  H10 UNL     1      25.321   6.406  52.166  1.00  0.00     0.211 HD
ENDBRANCH  12  19
ENDBRANCH  11  12
ENDBRANCH   1  10
BRANCH   7  21
HETATM   21  C13 UNL     1      21.964   0.314  52.638  1.00  0.00     0.005 A 
HETATM   22  C14 UNL     1      21.567   0.619  51.347  1.00  0.00     0.014 A 
HETATM   23  C15 UNL     1      20.241   0.424  50.962  1.00  0.00     0.004 A 
HETATM   24  C16 UNL     1      19.285  -0.078  51.853  1.00  0.00     0.043 A 
HETATM   25  C17 UNL     1      19.738  -0.362  53.124  1.00  0.00     0.130 A 
HETATM   26  F1  UNL     1      18.862  -0.853  54.041  1.00  0.00    -0.205 F 
HETATM   27  C18 UNL     1      21.042  -0.182  53.537  1.00  0.00     0.052 A 
BRANCH  27  28
HETATM   28  C19 UNL     1      21.563  -0.463  54.848  1.00  0.00     0.274 C 
HETATM   29  O3  UNL     1      21.633  -1.718  55.000  1.00  0.00    -0.301 OA
ENDBRANCH  27  28
ENDBRANCH   7  21
TORSDOF 8
ENDMDL
MODEL 8
REMARK VINA RESULT:      -7.7      2.350      5.636
REMARK  8 active torsions:
REMARK  status: ('A' for Active; 'I' for Inactive)
REMARK    1  A    between atoms: N1_2  and  C3_4 
REMARK    2  A    between atoms: C3_4  and  C4_5 
REMARK    3  A    between atoms: C4_5  and  C5_7 
REMARK    4  A    between atoms: C5_7  and  O2_8 
REMARK    5  A    between atoms: C5_7  and  C6_9 
REMARK    6  A    between atoms: C7_10  and  C8_11 
REMARK    7  A    between atoms: C12_17  and  C13_18 
REMARK    8  A    between atoms: C18_24  and  C19_25 
ROOT
HETATM    1  C8  UNL     1      22.620   0.694  52.180  1.00  0.00     0.169 C 
HETATM    2  N2  UNL     1      21.497   0.065  52.095  1.00  0.00    -0.155 NA
HETATM    3  N3  UNL     1      20.342   0.204  51.281  1.00  0.00    -0.288 N 
HETATM    4  C9  UNL     1      20.106   1.057  50.142  1.00  0.00     0.105 C 
HETATM    5  C10 UNL     1      20.905   1.698  49.305  1.00  0.00    -0.002 C 
HETATM    6  C11 UNL     1      22.340   1.944  49.006  1.00  0.00     0.088 C 
HETATM    7  C12 UNL     1      23.055   2.292  50.262  1.00  0.00     0.051 C 
HETATM    8  N4  UNL     1      23.153   1.804  51.467  1.00  0.00    -0.231 NA
HETATM    9  H13 UNL     1      19.542  -0.402  51.545  1.00  0.00     0.188 HD
ENDROOT
BRANCH   1  10
HETATM   10  C7  UNL     1      23.521   0.169  53.200  1.00  0.00     0.053 C 
HETATM   11  C6  UNL     1      24.810   0.039  52.938  1.00  0.00     0.016 C 
BRANCH  11  12
HETATM   12  C5  UNL     1      25.704  -0.501  54.002  1.00  0.00     0.212 C 
BRANCH  12  13
HETATM   13  C4  UNL     1      26.627   0.540  54.518  1.00  0.00     0.187 C 
HETATM   14  O1  UNL     1      26.348   1.714  54.692  1.00  0.00    -0.293 OA
BRANCH  13  15
HETATM   15  C3  UNL     1      28.031   0.203  54.880  1.00  0.00     0.352 C 
BRANCH  15  16
HETATM   16  N1  UNL     1      28.985   0.749  53.964  1.00  0.00     0.086 N 
HETATM   17  C1  UNL     1      29.939  -0.268  53.546  1.00  0.00     0.309 C 
HETATM   18  C2  UNL     1      29.625   1.955  54.380  1.00  0.00     0.309 C 
ENDBRANCH  15  16
ENDBRANCH  13  15
ENDBRANCH  12  13
BRANCH  12  19
HETATM   19  O2  UNL     1      26.453  -1.542  53.478  1.00  0.00    -0.384 OA
HETATM   20  H10 UNL     1      26.231  -2.383  53.967  1.00  0.00     0.211 HD
ENDBRANCH  12  19
ENDBRANCH  11  12
ENDBRANCH   1  10
BRANCH   7  21
HETATM   21  C13 UNL     1      23.878   3.506  50.130  1.00  0.00     0.005 A 
HETATM   22  C14 UNL     1      25.141   3.238  49.633  1.00  0.00     0.014 A 
HETATM   23  C15 UNL     1      26.051   4.278  49.445  1.00  0.00     0.004 A 
HETATM   24  C16 UNL     1      25.722   5.604  49.750  1.00  0.00     0.043 A 
HETATM   25  C17 UNL     1      24.450   5.810  50.243  1.00  0.00     0.130 A 
HETATM   26  F1  UNL     1      24.063   7.074  50.560  1.00  0.00    -0.205 F 
HETATM   27  C18 UNL     1      23.526   4.804  50.440  1.00  0.00     0.052 A 
BRANCH  27  28
HETATM   28  C19 UNL     1      22.191   4.966  50.950  1.00  0.00     0.274 C 
HETATM   29  O3  UNL     1      22.247   5.095  52.209  1.00  0.00    -0.301 OA
ENDBRANCH  27  28
ENDBRANCH   7  21
TORSDOF 8
ENDMDL
MODEL 9
REMARK VINA RESULT:      -7.6      2.605      5.978
REMARK  8 active torsions:
REMARK  status: ('A' for Active; 'I' for Inactive)
REMARK    1  A    between atoms: N1_2  and  C3_4 
REMARK    2  A    between atoms: C3_4  and  C4_5 
REMARK    3  A    between atoms: C4_5  and  C5_7 
REMARK    4  A    between atoms: C5_7  and  O2_8 
REMARK    5  A    between atoms: C5_7  and  C6_9 
REMARK    6  A    between atoms: C7_10  and  C8_11 
REMARK    7  A    between atoms: C12_17  and  C13_18 
REMARK    8  A    between atoms: C18_24  and  C19_25 
ROOT
HETATM    1  C8  UNL     1      23.575   0.572  52.931  1.00  0.00     0.169 C 
HETATM    2  N2  UNL     1      23.159  -0.178  53.896  1.00  0.00    -0.155 NA
HETATM    3  N3  UNL     1      21.878  -0.551  54.380  1.00  0.00    -0.288 N 
HETATM    4  C9  UNL     1      20.569  -0.299  53.832  1.00  0.00     0.105 C 
HETATM    5  C10 UNL     1      20.136   0.029  52.625  1.00  0.00    -0.002 C 
HETATM    6  C11 UNL     1      20.607   0.314  51.245  1.00  0.00     0.088 C 
HETATM    7  C12 UNL     1      21.760   1.252  51.299  1.00  0.00     0.051 C 
HETATM    8  N4  UNL     1      22.887   1.337  51.948  1.00  0.00    -0.231 NA
HETATM    9  H13 UNL     1      21.883  -1.089  55.268  1.00  0.00     0.188 HD
ENDROOT
BRANCH   1  10
HETATM   10  C7  UNL     1      25.027   0.652  52.823  1.00  0.00     0.053 C 
HETATM   11  C6  UNL     1      25.592   1.734  52.314  1.00  0.00     0.016 C 
BRANCH  11  12
HETATM   12  C5  UNL     1      27.078   1.786  52.217  1.00  0.00     0.212 C 
BRANCH  12  13
HETATM   13  C4  UNL     1      27.714   1.730  53.556  1.00  0.00     0.187 C 
HETATM   14  O1  UNL     1      28.004   2.692  54.247  1.00  0.00    -0.293 OA
BRANCH  13  15
HETATM   15  C3  UNL     1      28.061   0.424  54.182  1.00  0.00     0.352 C 
BRANCH  15  16
HETATM   16  N1  UNL     1      28.676  -0.485  53.264  1.00  0.00     0.086 N 
HETATM   17  C1  UNL     1      27.806  -1.622  53.003  1.00  0.00     0.309 C 
HETATM   18  C2  UNL     1      30.009  -0.883  53.583  1.00  0.00     0.309 C 
ENDBRANCH  15  16
ENDBRANCH  13  15
ENDBRANCH  12  13
BRANCH  12  19
HETATM   19  O2  UNL     1      27.450   2.966  51.595  1.00  0.00    -0.384 OA
HETATM   20  H10 UNL     1      28.044   3.485  52.206  1.00  0.00     0.211 HD
ENDBRANCH  12  19
ENDBRANCH  11  12
ENDBRANCH   1  10
BRANCH   7  21
HETATM   21  C13 UNL     1      21.607   2.394  50.383  1.00  0.00     0.005 A 
HETATM   22  C14 UNL     1      22.102   2.128  49.118  1.00  0.00     0.014 A 
HETATM   23  C15 UNL     1      22.037   3.105  48.124  1.00  0.00     0.004 A 
HETATM   24  C16 UNL     1      21.478   4.365  48.371  1.00  0.00     0.043 A 
HETATM   25  C17 UNL     1      21.003   4.572  49.649  1.00  0.00     0.130 A 
HETATM   26  F1  UNL     1      20.447   5.774  49.958  1.00  0.00    -0.205 F 
HETATM   27  C18 UNL     1      21.051   3.628  50.654  1.00  0.00     0.052 A 
BRANCH  27  28
HETATM   28  C19 UNL     1      20.570   3.795  51.999  1.00  0.00     0.274 C 
HETATM   29  O3  UNL     1      19.317   3.611  52.011  1.00  0.00    -0.301 OA
ENDBRANCH  27  28
ENDBRANCH   7  21
TORSDOF 8
ENDMDL
