MODEL 1
REMARK VINA RESULT:      -9.2      0.000      0.000
REMARK  3 active torsions:
REMARK  status: ('A' for Active; 'I' for Inactive)
REMARK    1  A    between atoms: N1_1  and  C1_2 
REMARK    2  A    between atoms: C4_5  and  N2_6 
REMARK    3  A    between atoms: N2_6  and  C5_7 
ROOT
HETATM    1  C1  UNL     1      24.335   0.609  53.432  1.00  0.00     0.246 C 
HETATM    2  C2  UNL     1      24.607   1.442  52.284  1.00  0.00     0.025 C 
HETATM    3  C3  UNL     1      25.312   2.229  51.451  1.00  0.00     0.033 A 
HETATM    4  C4  UNL     1      24.548   2.655  50.353  1.00  0.00     0.137 A 
HETATM    5  N3  UNL     1      25.089   3.464  49.433  1.00  0.00    -0.224 NA
HETATM    6  C10 UNL     1      26.334   3.890  49.511  1.00  0.00     0.235 A 
HETATM    7  N4  UNL     1      27.035   3.484  50.538  1.00  0.00    -0.245 NA
HETATM    8  C11 UNL     1      26.625   2.678  51.529  1.00  0.00     0.055 A 
HETATM    9  C12 UNL     1      27.132   2.123  52.655  1.00  0.00     0.082 C 
HETATM   10  C13 UNL     1      28.540   2.361  53.112  1.00  0.00     0.075 C 
HETATM   11  C14 UNL     1      29.138   1.864  54.194  1.00  0.00     0.107 C 
HETATM   12  O1  UNL     1      28.080   1.133  54.663  1.00  0.00    -0.350 OA
HETATM   13  C15 UNL     1      27.795  -0.082  53.988  1.00  0.00     0.075 A 
HETATM   14  C16 UNL     1      28.892  -0.803  53.504  1.00  0.00     0.037 A 
HETATM   15  C17 UNL     1      28.778  -2.001  52.828  1.00  0.00     0.003 A 
HETATM   16  C18 UNL     1      27.488  -2.463  52.650  1.00  0.00     0.001 A 
HETATM   17  C19 UNL     1      26.417  -1.746  53.130  1.00  0.00     0.010 A 
HETATM   18  C20 UNL     1      26.524  -0.564  53.797  1.00  0.00    -0.022 A 
HETATM   19  C21 UNL     1      25.483   0.281  54.349  1.00  0.00     0.080 C 
ENDROOT
BRANCH   4  20
HETATM   20  N2  UNL     1      23.201   2.356  50.013  1.00  0.00    -0.363 N 
HETATM   21  H5  UNL     1      22.817   1.539  49.526  1.00  0.00     0.162 HD
BRANCH  20  22
HETATM   22  C5  UNL     1      22.066   3.202  50.311  1.00  0.00     0.131 A 
HETATM   23  C6  UNL     1      21.904   3.495  51.729  1.00  0.00     0.003 A 
HETATM   24  C7  UNL     1      21.947   4.809  51.993  1.00  0.00     0.017 A 
HETATM   25  C8  UNL     1      22.148   5.481  50.711  1.00  0.00     0.009 A 
HETATM   26 BR1  UNL     1      22.288   7.372  50.473  1.00  0.00    -0.051 Br
HETATM   27  C9  UNL     1      22.218   4.583  49.737  1.00  0.00     0.021 A 
ENDBRANCH  20  22
ENDBRANCH   4  20
BRANCH   1  28
HETATM   28  N1  UNL     1      23.639  -0.627  53.058  1.00  0.00     0.086 N 
HETATM   29  H1  UNL     1      23.428  -1.157  53.924  1.00  0.00     0.313 HD
HETATM   30  H2  UNL     1      22.818  -0.338  52.499  1.00  0.00     0.313 HD
ENDBRANCH   1  28
TORSDOF 3
ENDMDL
MODEL 2
REMARK VINA RESULT:      -9.1      2.903      6.050
REMARK  3 active torsions:
REMARK  status: ('A' for Active; 'I' for Inactive)
REMARK    1  A    between atoms: N1_1  and  C1_2 
REMARK    2  A    between atoms: C4_5  and  N2_6 
REMARK    3  A    between atoms: N2_6  and  C5_7 
ROOT
HETATM    1  C1  UNL     1      22.541   4.277  52.085  1.00  0.00     0.246 C 
HETATM    2  C2  UNL     1      23.724   3.468  51.911  1.00  0.00     0.025 C 
HETATM    3  C3  UNL     1      24.507   2.375  51.961  1.00  0.00     0.033 A 
HETATM    4  C4  UNL     1      25.788   2.619  51.438  1.00  0.00     0.137 A 
HETATM    5  N3  UNL     1      26.705   1.643  51.429  1.00  0.00    -0.224 NA
HETATM    6  C10 UNL     1      26.458   0.437  51.898  1.00  0.00     0.235 A 
HETATM    7  N4  UNL     1      25.262   0.223  52.381  1.00  0.00    -0.245 NA
HETATM    8  C11 UNL     1      24.250   1.101  52.453  1.00  0.00     0.055 A 
HETATM    9  C12 UNL     1      22.966   1.130  52.880  1.00  0.00     0.082 C 
HETATM   10  C13 UNL     1      22.289  -0.059  53.493  1.00  0.00     0.075 C 
HETATM   11  C14 UNL     1      21.036  -0.141  53.939  1.00  0.00     0.107 C 
HETATM   12  O1  UNL     1      20.658   1.142  53.646  1.00  0.00    -0.350 OA
HETATM   13  C15 UNL     1      20.391   1.433  52.284  1.00  0.00     0.075 A 
HETATM   14  C16 UNL     1      19.797   0.414  51.529  1.00  0.00     0.037 A 
HETATM   15  C17 UNL     1      19.475   0.544  50.194  1.00  0.00     0.003 A 
HETATM   16  C18 UNL     1      19.779   1.766  49.624  1.00  0.00     0.001 A 
HETATM   17  C19 UNL     1      20.363   2.760  50.375  1.00  0.00     0.010 A 
HETATM   18  C20 UNL     1      20.682   2.637  51.693  1.00  0.00    -0.022 A 
HETATM   19  C21 UNL     1      21.293   3.600  52.588  1.00  0.00     0.080 C 
ENDROOT
BRANCH   4  20
HETATM   20  N2  UNL     1      26.325   3.805  50.869  1.00  0.00    -0.363 N 
HETATM   21  H5  UNL     1      26.832   4.574  51.322  1.00  0.00     0.162 HD
BRANCH  20  22
HETATM   22  C5  UNL     1      26.248   4.158  49.469  1.00  0.00     0.131 A 
HETATM   23  C6  UNL     1      25.417   5.325  49.200  1.00  0.00     0.003 A 
HETATM   24  C7  UNL     1      26.093   6.313  48.596  1.00  0.00     0.017 A 
HETATM   25  C8  UNL     1      27.463   5.831  48.428  1.00  0.00     0.009 A 
HETATM   26 BR1  UNL     1      28.884   6.823  47.620  1.00  0.00    -0.051 Br
HETATM   27  C9  UNL     1      27.573   4.603  48.919  1.00  0.00     0.021 A 
ENDBRANCH  20  22
ENDBRANCH   4  20
BRANCH   1  28
HETATM   28  N1  UNL     1      22.226   5.051  50.880  1.00  0.00     0.086 N 
HETATM   29  H1  UNL     1      22.803   5.912  50.884  1.00  0.00     0.313 HD
HETATM   30  H2  UNL     1      22.378   4.414  50.079  1.00  0.00     0.313 HD
ENDBRANCH   1  28
TORSDOF 3
ENDMDL
MODEL 3
REMARK VINA RESULT:      -8.7      3.445      7.549
REMARK  3 active torsions:
REMARK  status: ('A' for Active; 'I' for Inactive)
REMARK    1  A    between atoms: N1_1  and  C1_2 
REMARK    2  A    between atoms: C4_5  and  N2_6 
REMARK    3  A    between atoms: N2_6  and  C5_7 
ROOT
HETATM    1  C1  UNL     1      23.713   3.863  52.394  1.00  0.00     0.246 C 
HETATM    2  C2  UNL     1      23.479   2.487  52.762  1.00  0.00     0.025 C 
HETATM    3  C3  UNL     1      22.795   1.344  52.952  1.00  0.00     0.033 A 
HETATM    4  C4  UNL     1      23.609   0.319  53.459  1.00  0.00     0.137 A 
HETATM    5  N3  UNL     1      23.085  -0.884  53.727  1.00  0.00    -0.224 NA
HETATM    6  C10 UNL     1      21.810  -1.157  53.533  1.00  0.00     0.235 A 
HETATM    7  N4  UNL     1      21.063  -0.194  53.059  1.00  0.00    -0.245 NA
HETATM    8  C11 UNL     1      21.452   1.052  52.747  1.00  0.00     0.055 A 
HETATM    9  C12 UNL     1      20.905   2.187  52.253  1.00  0.00     0.082 C 
HETATM   10  C13 UNL     1      19.452   2.297  51.897  1.00  0.00     0.075 C 
HETATM   11  C14 UNL     1      18.815   3.358  51.402  1.00  0.00     0.107 C 
HETATM   12  O1  UNL     1      19.890   4.205  51.352  1.00  0.00    -0.350 OA
HETATM   13  C15 UNL     1      20.821   3.994  50.303  1.00  0.00     0.075 A 
HETATM   14  C16 UNL     1      20.297   3.570  49.075  1.00  0.00     0.037 A 
HETATM   15  C17 UNL     1      21.072   3.324  47.961  1.00  0.00     0.003 A 
HETATM   16  C18 UNL     1      22.430   3.523  48.124  1.00  0.00     0.001 A 
HETATM   17  C19 UNL     1      22.934   3.939  49.335  1.00  0.00     0.010 A 
HETATM   18  C20 UNL     1      22.174   4.184  50.437  1.00  0.00    -0.022 A 
HETATM   19  C21 UNL     1      22.579   4.623  51.758  1.00  0.00     0.080 C 
ENDROOT
BRANCH   4  20
HETATM   20  N2  UNL     1      24.999   0.327  53.759  1.00  0.00    -0.363 N 
HETATM   21  H5  UNL     1      25.469   0.378  54.669  1.00  0.00     0.162 HD
BRANCH  20  22
HETATM   22  C5  UNL     1      26.056   0.261  52.774  1.00  0.00     0.131 A 
HETATM   23  C6  UNL     1      26.994   1.374  52.841  1.00  0.00     0.003 A 
HETATM   24  C7  UNL     1      28.255   0.975  53.062  1.00  0.00     0.017 A 
HETATM   25  C8  UNL     1      28.214  -0.483  53.157  1.00  0.00     0.009 A 
HETATM   26 BR1  UNL     1      29.730  -1.605  53.469  1.00  0.00    -0.051 Br
HETATM   27  C9  UNL     1      26.969  -0.911  52.996  1.00  0.00     0.021 A 
ENDBRANCH  20  22
ENDBRANCH   4  20
BRANCH   1  28
HETATM   28  N1  UNL     1      24.921   4.013  51.575  1.00  0.00     0.086 N 
HETATM   29  H1  UNL     1      25.501   4.768  51.984  1.00  0.00     0.313 HD
HETATM   30  H2  UNL     1      25.363   3.078  51.539  1.00  0.00     0.313 HD
ENDBRANCH   1  28
TORSDOF 3
ENDMDL
MODEL 4
REMARK VINA RESULT:      -8.6      3.493      7.166
REMARK  3 active torsions:
REMARK  status: ('A' for Active; 'I' for Inactive)
REMARK    1  A    between atoms: N1_1  and  C1_2 
REMARK    2  A    between atoms: C4_5  and  N2_6 
REMARK    3  A    between atoms: N2_6  and  C5_7 
ROOT
HETATM    1  C1  UNL     1      21.591   0.253  52.068  1.00  0.00     0.246 C 
HETATM    2  C2  UNL     1      22.867   0.929  52.041  1.00  0.00     0.025 C 
HETATM    3  C3  UNL     1      23.864   1.694  51.561  1.00  0.00     0.033 A 
HETATM    4  C4  UNL     1      24.937   1.788  52.463  1.00  0.00     0.137 A 
HETATM    5  N3  UNL     1      26.027   2.496  52.137  1.00  0.00    -0.224 NA
HETATM    6  C10 UNL     1      26.143   3.122  50.983  1.00  0.00     0.235 A 
HETATM    7  N4  UNL     1      25.136   3.027  50.154  1.00  0.00    -0.245 NA
HETATM    8  C11 UNL     1      23.990   2.357  50.347  1.00  0.00     0.055 A 
HETATM    9  C12 UNL     1      22.836   2.116  49.682  1.00  0.00     0.082 C 
HETATM   10  C13 UNL     1      22.564   2.657  48.309  1.00  0.00     0.075 C 
HETATM   11  C14 UNL     1      21.468   2.487  47.572  1.00  0.00     0.107 C 
HETATM   12  O1  UNL     1      20.770   1.717  48.463  1.00  0.00    -0.350 OA
HETATM   13  C15 UNL     1      20.192   2.388  49.571  1.00  0.00     0.075 A 
HETATM   14  C16 UNL     1      19.702   3.679  49.336  1.00  0.00     0.037 A 
HETATM   15  C17 UNL     1      19.111   4.457  50.310  1.00  0.00     0.003 A 
HETATM   16  C18 UNL     1      19.027   3.881  51.564  1.00  0.00     0.001 A 
HETATM   17  C19 UNL     1      19.512   2.613  51.783  1.00  0.00     0.010 A 
HETATM   18  C20 UNL     1      20.095   1.840  50.825  1.00  0.00    -0.022 A 
HETATM   19  C21 UNL     1      20.640   0.500  50.927  1.00  0.00     0.080 C 
ENDROOT
BRANCH   4  20
HETATM   20  N2  UNL     1      25.085   1.228  53.761  1.00  0.00    -0.363 N 
HETATM   21  H5  UNL     1      24.774   1.594  54.668  1.00  0.00     0.162 HD
BRANCH  20  22
HETATM   22  C5  UNL     1      25.739  -0.029  54.049  1.00  0.00     0.131 A 
HETATM   23  C6  UNL     1      25.824  -0.926  52.904  1.00  0.00     0.003 A 
HETATM   24  C7  UNL     1      27.088  -1.248  52.593  1.00  0.00     0.017 A 
HETATM   25  C8  UNL     1      27.939  -0.552  53.556  1.00  0.00     0.009 A 
HETATM   26 BR1  UNL     1      29.848  -0.640  53.598  1.00  0.00    -0.051 Br
HETATM   27  C9  UNL     1      27.189   0.150  54.397  1.00  0.00     0.021 A 
ENDBRANCH  20  22
ENDBRANCH   4  20
BRANCH   1  28
HETATM   28  N1  UNL     1      20.891   0.457  53.341  1.00  0.00     0.086 N 
HETATM   29  H1  UNL     1      21.072  -0.363  53.949  1.00  0.00     0.313 HD
HETATM   30  H2  UNL     1      21.218   1.368  53.708  1.00  0.00     0.313 HD
ENDBRANCH   1  28
TORSDOF 3
ENDMDL
MODEL 5
REMARK VINA RESULT:      -8.3      4.869      7.828
REMARK  3 active torsions:
REMARK  status: ('A' for Active; 'I' for Inactive)
REMARK    1  A    between atoms: N1_1  and  C1_2 
REMARK    2  A    between atoms: C4_5  and  N2_6 
REMARK    3  A    between atoms: N2_6  and  C5_7 
ROOT
HETATM    1  C1  UNL     1      26.210   3.713  49.513  1.00  0.00     0.246 C 
HETATM    2  C2  UNL     1      26.468   5.069  49.088  1.00  0.00     0.025 C 
HETATM    3  C3  UNL     1      26.209   6.293  48.593  1.00  0.00     0.033 A 
HETATM    4  C4  UNL     1      27.355   7.104  48.565  1.00  0.00     0.137 A 
HETATM    5  N3  UNL     1      27.282   8.351  48.081  1.00  0.00    -0.224 NA
HETATM    6  C10 UNL     1      26.159   8.865  47.620  1.00  0.00     0.235 A 
HETATM    7  N4  UNL     1      25.100   8.099  47.653  1.00  0.00    -0.245 NA
HETATM    8  C11 UNL     1      25.027   6.838  48.107  1.00  0.00     0.055 A 
HETATM    9  C12 UNL     1      24.093   5.870  48.255  1.00  0.00     0.082 C 
HETATM   10  C13 UNL     1      22.663   6.054  47.843  1.00  0.00     0.075 C 
HETATM   11  C14 UNL     1      21.667   5.175  47.948  1.00  0.00     0.107 C 
HETATM   12  O1  UNL     1      22.386   4.159  48.518  1.00  0.00    -0.350 OA
HETATM   13  C15 UNL     1      22.707   4.296  49.892  1.00  0.00     0.075 A 
HETATM   14  C16 UNL     1      21.749   4.920  50.701  1.00  0.00     0.037 A 
HETATM   15  C17 UNL     1      21.914   5.126  52.055  1.00  0.00     0.003 A 
HETATM   16  C18 UNL     1      23.108   4.673  52.586  1.00  0.00     0.001 A 
HETATM   17  C19 UNL     1      24.042   4.063  51.782  1.00  0.00     0.010 A 
HETATM   18  C20 UNL     1      23.884   3.857  50.445  1.00  0.00    -0.022 A 
HETATM   19  C21 UNL     1      24.784   3.231  49.496  1.00  0.00     0.080 C 
ENDROOT
BRANCH   4  20
HETATM   20  N2  UNL     1      28.680   6.820  48.994  1.00  0.00    -0.363 N 
HETATM   21  H5  UNL     1      29.013   6.490  49.907  1.00  0.00     0.162 HD
BRANCH  20  22
HETATM   22  C5  UNL     1      29.862   6.957  48.172  1.00  0.00     0.131 A 
HETATM   23  C6  UNL     1      31.018   7.486  48.883  1.00  0.00     0.003 A 
HETATM   24  C7  UNL     1      32.065   6.650  48.863  1.00  0.00     0.017 A 
HETATM   25  C8  UNL     1      31.639   5.475  48.105  1.00  0.00     0.009 A 
HETATM   26 BR1  UNL     1      32.727   3.944  47.749  1.00  0.00    -0.051 Br
HETATM   27  C9  UNL     1      30.384   5.629  47.701  1.00  0.00     0.021 A 
ENDBRANCH  20  22
ENDBRANCH   4  20
BRANCH   1  28
HETATM   28  N1  UNL     1      26.807   3.427  50.822  1.00  0.00     0.086 N 
HETATM   29  H1  UNL     1      27.559   4.120  50.997  1.00  0.00     0.313 HD
HETATM   30  H2  UNL     1      26.028   3.431  51.502  1.00  0.00     0.313 HD
ENDBRANCH   1  28
TORSDOF 3
ENDMDL
MODEL 6
REMARK VINA RESULT:      -7.9      4.133      7.677
REMARK  3 active torsions:
REMARK  status: ('A' for Active; 'I' for Inactive)
REMARK    1  A    between atoms: N1_1  and  C1_2 
REMARK    2  A    between atoms: C4_5  and  N2_6 
REMARK    3  A    between atoms: N2_6  and  C5_7 
ROOT
HETATM    1  C1  UNL     1      23.369   6.577  51.084  1.00  0.00     0.246 C 
HETATM    2  C2  UNL     1      23.086   5.336  50.402  1.00  0.00     0.025 C 
HETATM    3  C3  UNL     1      22.829   4.507  49.375  1.00  0.00     0.033 A 
HETATM    4  C4  UNL     1      22.665   3.178  49.797  1.00  0.00     0.137 A 
HETATM    5  N3  UNL     1      22.383   2.220  48.905  1.00  0.00    -0.224 NA
HETATM    6  C10 UNL     1      22.248   2.472  47.618  1.00  0.00     0.235 A 
HETATM    7  N4  UNL     1      22.404   3.713  47.238  1.00  0.00    -0.245 NA
HETATM    8  C11 UNL     1      22.688   4.768  48.017  1.00  0.00     0.055 A 
HETATM    9  C12 UNL     1      22.901   6.098  47.880  1.00  0.00     0.082 C 
HETATM   10  C13 UNL     1      22.836   6.796  46.554  1.00  0.00     0.075 C 
HETATM   11  C14 UNL     1      23.032   8.090  46.307  1.00  0.00     0.107 C 
HETATM   12  O1  UNL     1      23.291   8.481  47.594  1.00  0.00    -0.350 OA
HETATM   13  C15 UNL     1      24.569   8.156  48.115  1.00  0.00     0.075 A 
HETATM   14  C16 UNL     1      25.643   8.201  47.216  1.00  0.00     0.037 A 
HETATM   15  C17 UNL     1      26.945   7.914  47.571  1.00  0.00     0.003 A 
HETATM   16  C18 UNL     1      27.139   7.570  48.896  1.00  0.00     0.001 A 
HETATM   17  C19 UNL     1      26.077   7.529  49.769  1.00  0.00     0.010 A 
HETATM   18  C20 UNL     1      24.791   7.811  49.425  1.00  0.00    -0.022 A 
HETATM   19  C21 UNL     1      23.594   7.806  50.243  1.00  0.00     0.080 C 
ENDROOT
BRANCH   4  20
HETATM   20  N2  UNL     1      22.757   2.621  51.102  1.00  0.00    -0.363 N 
HETATM   21  H5  UNL     1      22.580   3.061  52.012  1.00  0.00     0.162 HD
BRANCH  20  22
HETATM   22  C5  UNL     1      23.138   1.257  51.394  1.00  0.00     0.131 A 
HETATM   23  C6  UNL     1      24.317   1.142  52.242  1.00  0.00     0.003 A 
HETATM   24  C7  UNL     1      24.071   0.480  53.382  1.00  0.00     0.017 A 
HETATM   25  C8  UNL     1      22.658   0.108  53.345  1.00  0.00     0.009 A 
HETATM   26 BR1  UNL     1      21.742  -0.859  54.716  1.00  0.00    -0.051 Br
HETATM   27  C9  UNL     1      22.106   0.541  52.219  1.00  0.00     0.021 A 
ENDBRANCH  20  22
ENDBRANCH   4  20
BRANCH   1  28
HETATM   28  N1  UNL     1      24.467   6.435  52.046  1.00  0.00     0.086 N 
HETATM   29  H1  UNL     1      25.091   5.674  51.720  1.00  0.00     0.313 HD
HETATM   30  H2  UNL     1      24.904   7.369  52.127  1.00  0.00     0.313 HD
ENDBRANCH   1  28
TORSDOF 3
ENDMDL
MODEL 7
REMARK VINA RESULT:      -7.9      3.615      6.200
REMARK  3 active torsions:
REMARK  status: ('A' for Active; 'I' for Inactive)
REMARK    1  A    between atoms: N1_1  and  C1_2 
REMARK    2  A    between atoms: C4_5  and  N2_6 
REMARK    3  A    between atoms: N2_6  and  C5_7 
ROOT
HETATM    1  C1  UNL     1      21.577   1.747  49.347  1.00  0.00     0.246 C 
HETATM    2  C2  UNL     1      20.653   1.092  50.243  1.00  0.00     0.025 C 
HETATM    3  C3  UNL     1      20.226   0.445  51.342  1.00  0.00     0.033 A 
HETATM    4  C4  UNL     1      18.850   0.169  51.292  1.00  0.00     0.137 A 
HETATM    5  N3  UNL     1      18.261  -0.490  52.298  1.00  0.00    -0.224 NA
HETATM    6  C10 UNL     1      18.928  -0.903  53.358  1.00  0.00     0.235 A 
HETATM    7  N4  UNL     1      20.208  -0.640  53.392  1.00  0.00    -0.245 NA
HETATM    8  C11 UNL     1      20.925   0.009  52.461  1.00  0.00     0.055 A 
HETATM    9  C12 UNL     1      22.205   0.403  52.265  1.00  0.00     0.082 C 
HETATM   10  C13 UNL     1      23.299   0.122  53.252  1.00  0.00     0.075 C 
HETATM   11  C14 UNL     1      24.583   0.467  53.161  1.00  0.00     0.107 C 
HETATM   12  O1  UNL     1      24.511   1.107  51.953  1.00  0.00    -0.350 OA
HETATM   13  C15 UNL     1      23.932   2.402  51.950  1.00  0.00     0.075 A 
HETATM   14  C16 UNL     1      24.178   3.202  53.072  1.00  0.00     0.037 A 
HETATM   15  C17 UNL     1      23.686   4.483  53.217  1.00  0.00     0.003 A 
HETATM   16  C18 UNL     1      22.915   4.947  52.168  1.00  0.00     0.001 A 
HETATM   17  C19 UNL     1      22.680   4.152  51.070  1.00  0.00     0.010 A 
HETATM   18  C20 UNL     1      23.163   2.888  50.922  1.00  0.00    -0.022 A 
HETATM   19  C21 UNL     1      22.989   1.956  49.825  1.00  0.00     0.080 C 
ENDROOT
BRANCH   4  20
HETATM   20  N2  UNL     1      17.894   0.494  50.292  1.00  0.00    -0.363 N 
HETATM   21  H5  UNL     1      17.653  -0.011  49.432  1.00  0.00     0.162 HD
BRANCH  20  22
HETATM   22  C5  UNL     1      17.043   1.663  50.310  1.00  0.00     0.131 A 
HETATM   23  C6  UNL     1      17.359   2.607  51.375  1.00  0.00     0.003 A 
HETATM   24  C7  UNL     1      17.679   3.823  50.909  1.00  0.00     0.017 A 
HETATM   25  C8  UNL     1      17.587   3.744  49.453  1.00  0.00     0.009 A 
HETATM   26 BR1  UNL     1      17.936   5.188  48.251  1.00  0.00    -0.051 Br
HETATM   27  C9  UNL     1      17.226   2.520  49.089  1.00  0.00     0.021 A 
ENDBRANCH  20  22
ENDBRANCH   4  20
BRANCH   1  28
HETATM   28  N1  UNL     1      21.040   3.013  48.836  1.00  0.00     0.086 N 
HETATM   29  H1  UNL     1      21.066   2.985  47.800  1.00  0.00     0.313 HD
HETATM   30  H2  UNL     1      20.102   3.120  49.258  1.00  0.00     0.313 HD
ENDBRANCH   1  28
TORSDOF 3
ENDMDL
MODEL 8
REMARK VINA RESULT:      -7.8      7.121      9.908
REMARK  3 active torsions:
REMARK  status: ('A' for Active; 'I' for Inactive)
REMARK    1  A    between atoms: N1_1  and  C1_2 
REMARK    2  A    between atoms: C4_5  and  N2_6 
REMARK    3  A    between atoms: N2_6  and  C5_7 
ROOT
HETATM    1  C1  UNL     1      31.381   7.140  48.942  1.00  0.00     0.246 C 
HETATM    2  C2  UNL     1      30.179   7.939  48.917  1.00  0.00     0.025 C 
HETATM    3  C3  UNL     1      29.395   9.009  48.689  1.00  0.00     0.033 A 
HETATM    4  C4  UNL     1      28.067   8.784  49.087  1.00  0.00     0.137 A 
HETATM    5  N3  UNL     1      27.153   9.754  48.951  1.00  0.00    -0.224 NA
HETATM    6  C10 UNL     1      27.448  10.937  48.450  1.00  0.00     0.235 A 
HETATM    7  N4  UNL     1      28.687  11.132  48.083  1.00  0.00    -0.245 NA
HETATM    8  C11 UNL     1      29.701  10.257  48.160  1.00  0.00     0.055 A 
HETATM    9  C12 UNL     1      31.019  10.207  47.856  1.00  0.00     0.082 C 
HETATM   10  C13 UNL     1      31.756  11.368  47.258  1.00  0.00     0.075 C 
HETATM   11  C14 UNL     1      33.043  11.425  46.916  1.00  0.00     0.107 C 
HETATM   12  O1  UNL     1      33.382  10.150  47.282  1.00  0.00    -0.350 OA
HETATM   13  C15 UNL     1      32.967   9.106  46.417  1.00  0.00     0.075 A 
HETATM   14  C16 UNL     1      32.972   9.388  45.045  1.00  0.00     0.037 A 
HETATM   15  C17 UNL     1      32.598   8.477  44.079  1.00  0.00     0.003 A 
HETATM   16  C18 UNL     1      32.206   7.238  44.549  1.00  0.00     0.001 A 
HETATM   17  C19 UNL     1      32.205   6.971  45.898  1.00  0.00     0.010 A 
HETATM   18  C20 UNL     1      32.573   7.866  46.856  1.00  0.00    -0.022 A 
HETATM   19  C21 UNL     1      32.617   7.710  48.296  1.00  0.00     0.080 C 
ENDROOT
BRANCH   4  20
HETATM   20  N2  UNL     1      27.470   7.622  49.646  1.00  0.00    -0.363 N 
HETATM   21  H5  UNL     1      27.441   7.309  50.623  1.00  0.00     0.162 HD
BRANCH  20  22
HETATM   22  C5  UNL     1      26.757   6.614  48.892  1.00  0.00     0.131 A 
HETATM   23  C6  UNL     1      27.573   5.465  48.524  1.00  0.00     0.003 A 
HETATM   24  C7  UNL     1      27.090   4.312  49.008  1.00  0.00     0.017 A 
HETATM   25  C8  UNL     1      25.878   4.653  49.751  1.00  0.00     0.009 A 
HETATM   26 BR1  UNL     1      24.762   3.399  50.664  1.00  0.00    -0.051 Br
HETATM   27  C9  UNL     1      25.670   5.962  49.698  1.00  0.00     0.021 A 
ENDBRANCH  20  22
ENDBRANCH   4  20
BRANCH   1  28
HETATM   28  N1  UNL     1      31.147   5.783  48.437  1.00  0.00     0.086 N 
HETATM   29  H1  UNL     1      30.404   5.827  47.715  1.00  0.00     0.313 HD
HETATM   30  H2  UNL     1      32.064   5.432  48.113  1.00  0.00     0.313 HD
ENDBRANCH   1  28
TORSDOF 3
ENDMDL
MODEL 9
REMARK VINA RESULT:      -7.8      3.800      6.862
REMARK  3 active torsions:
REMARK  status: ('A' for Active; 'I' for Inactive)
REMARK    1  A    between atoms: N1_1  and  C1_2 
REMARK    2  A    between atoms: C4_5  and  N2_6 
REMARK    3  A    between atoms: N2_6  and  C5_7 
ROOT
HETATM    1  C1  UNL     1      21.747   2.603  48.911  1.00  0.00     0.246 C 
HETATM    2  C2  UNL     1      22.336   2.029  50.098  1.00  0.00     0.025 C 
HETATM    3  C3  UNL     1      23.232   1.849  51.086  1.00  0.00     0.033 A 
HETATM    4  C4  UNL     1      22.849   0.824  51.966  1.00  0.00     0.137 A 
HETATM    5  N3  UNL     1      23.637   0.497  52.998  1.00  0.00    -0.224 NA
HETATM    6  C10 UNL     1      24.783   1.105  53.232  1.00  0.00     0.235 A 
HETATM    7  N4  UNL     1      25.127   2.058  52.406  1.00  0.00    -0.245 NA
HETATM    8  C11 UNL     1      24.439   2.489  51.337  1.00  0.00     0.055 A 
HETATM    9  C12 UNL     1      24.563   3.423  50.365  1.00  0.00     0.082 C 
HETATM   10  C13 UNL     1      25.746   4.341  50.270  1.00  0.00     0.075 C 
HETATM   11  C14 UNL     1      25.964   5.293  49.363  1.00  0.00     0.107 C 
HETATM   12  O1  UNL     1      24.813   5.121  48.643  1.00  0.00    -0.350 OA
HETATM   13  C15 UNL     1      23.619   5.629  49.216  1.00  0.00     0.075 A 
HETATM   14  C16 UNL     1      23.731   6.817  49.949  1.00  0.00     0.037 A 
HETATM   15  C17 UNL     1      22.662   7.435  50.565  1.00  0.00     0.003 A 
HETATM   16  C18 UNL     1      21.442   6.802  50.416  1.00  0.00     0.001 A 
HETATM   17  C19 UNL     1      21.344   5.635  49.694  1.00  0.00     0.010 A 
HETATM   18  C20 UNL     1      22.395   5.022  49.084  1.00  0.00    -0.022 A 
HETATM   19  C21 UNL     1      22.423   3.802  48.301  1.00  0.00     0.080 C 
ENDROOT
BRANCH   4  20
HETATM   20  N2  UNL     1      21.683   0.011  51.961  1.00  0.00    -0.363 N 
HETATM   21  H5  UNL     1      21.492  -0.853  51.441  1.00  0.00     0.162 HD
BRANCH  20  22
HETATM   22  C5  UNL     1      20.489   0.275  52.734  1.00  0.00     0.131 A 
HETATM   23  C6  UNL     1      19.337   0.656  51.929  1.00  0.00     0.003 A 
HETATM   24  C7  UNL     1      18.298  -0.178  52.086  1.00  0.00     0.017 A 
HETATM   25  C8  UNL     1      18.728  -1.195  53.043  1.00  0.00     0.009 A 
HETATM   26 BR1  UNL     1      17.652  -2.653  53.652  1.00  0.00    -0.051 Br
HETATM   27  C9  UNL     1      19.975  -0.956  53.426  1.00  0.00     0.021 A 
ENDBRANCH  20  22
ENDBRANCH   4  20
BRANCH   1  28
HETATM   28  N1  UNL     1      20.319   2.886  49.091  1.00  0.00     0.086 N 
HETATM   29  H1  UNL     1      19.777   2.171  48.572  1.00  0.00     0.313 HD
HETATM   30  H2  UNL     1      20.157   2.916  50.112  1.00  0.00     0.313 HD
ENDBRANCH   1  28
TORSDOF 3
ENDMDL
