MODEL 1
REMARK VINA RESULT:      -8.7      0.000      0.000
REMARK  5 active torsions:
REMARK  status: ('A' for Active; 'I' for Inactive)
REMARK    1  A    between atoms: N1_1  and  C1_2 
REMARK    2  A    between atoms: C4_8  and  C5_9 
REMARK    3  A    between atoms: N4_17  and  C12_18 
REMARK    4  A    between atoms: C14_20  and  C15_21 
REMARK    5  A    between atoms: C15_21  and  N5_22 
ROOT
HETATM    1  C1  UNL     1      23.563  -1.057  54.896  1.00  0.00     0.143 A 
HETATM    2  N2  UNL     1      22.395  -1.250  55.292  1.00  0.00    -0.223 NA
HETATM    3  C2  UNL     1      21.145  -0.790  54.804  1.00  0.00     0.245 A 
HETATM    4  N3  UNL     1      21.065  -0.000  53.740  1.00  0.00    -0.195 NA
HETATM    5  S1  UNL     1      22.605   0.426  52.990  1.00  0.00     0.038 SA
HETATM    6  C3  UNL     1      24.099  -0.246  53.734  1.00  0.00     0.089 A 
HETATM    7  C4  UNL     1      25.155   0.295  52.950  1.00  0.00     0.012 A 
HETATM    8  C11 UNL     1      24.794   1.077  51.987  1.00  0.00     0.113 A 
HETATM    9  N4  UNL     1      23.451   1.355  51.743  1.00  0.00    -0.314 N 
ENDROOT
BRANCH   9  10
HETATM   10  C12 UNL     1      22.699   2.124  50.818  1.00  0.00     0.098 C 
HETATM   11  C13 UNL     1      22.023   1.378  49.721  1.00  0.00     0.032 C 
HETATM   12  C14 UNL     1      22.740   2.194  48.629  1.00  0.00     0.018 C 
HETATM   13  C19 UNL     1      23.527   2.817  49.756  1.00  0.00     0.032 C 
BRANCH  12  14
HETATM   14  C15 UNL     1      21.727   3.021  47.932  1.00  0.00     0.277 C 
BRANCH  14  15
HETATM   15  N5  UNL     1      22.078   3.814  46.848  1.00  0.00     0.088 N 
HETATM   16  C16 UNL     1      21.318   3.967  45.674  1.00  0.00     0.274 C 
HETATM   17  C17 UNL     1      21.280   5.476  45.976  1.00  0.00     0.060 C 
HETATM   18  C18 UNL     1      22.390   5.206  47.005  1.00  0.00     0.274 C 
ENDBRANCH  14  15
ENDBRANCH  12  14
ENDBRANCH   9  10
BRANCH   7  19
HETATM   19  C5  UNL     1      26.487  -0.025  53.370  1.00  0.00    -0.021 C 
HETATM   20  C6  UNL     1      26.899  -1.116  52.783  1.00  0.00     0.010 C 
HETATM   21  C7  UNL     1      28.130  -1.906  52.807  1.00  0.00    -0.001 C 
HETATM   22  C8  UNL     1      29.303  -1.604  53.390  1.00  0.00    -0.001 C 
HETATM   23  C9  UNL     1      29.437  -0.293  54.133  1.00  0.00     0.195 C 
HETATM   24  O1  UNL     1      28.304  -0.261  54.936  1.00  0.00    -0.383 OA
HETATM   25  C10 UNL     1      27.301   0.602  54.395  1.00  0.00     0.207 C 
ENDBRANCH   7  19
BRANCH   1  26
HETATM   26  N1  UNL     1      24.543  -1.673  55.640  1.00  0.00    -0.383 N 
HETATM   27  H1  UNL     1      24.084  -2.584  55.925  1.00  0.00     0.157 HD
HETATM   28  H2  UNL     1      25.287  -2.140  56.205  1.00  0.00     0.157 HD
ENDBRANCH   1  26
TORSDOF 5
ENDMDL
MODEL 2
REMARK VINA RESULT:      -8.6      2.136      2.612
REMARK  5 active torsions:
REMARK  status: ('A' for Active; 'I' for Inactive)
REMARK    1  A    between atoms: N1_1  and  C1_2 
REMARK    2  A    between atoms: C4_8  and  C5_9 
REMARK    3  A    between atoms: N4_17  and  C12_18 
REMARK    4  A    between atoms: C14_20  and  C15_21 
REMARK    5  A    between atoms: C15_21  and  N5_22 
ROOT
HETATM    1  C1  UNL     1      23.736  -1.128  54.947  1.00  0.00     0.143 A 
HETATM    2  N2  UNL     1      22.626  -1.546  55.336  1.00  0.00    -0.223 NA
HETATM    3  C2  UNL     1      21.319  -1.379  54.811  1.00  0.00     0.245 A 
HETATM    4  N3  UNL     1      21.099  -0.669  53.712  1.00  0.00    -0.195 NA
HETATM    5  S1  UNL     1      22.532   0.039  52.964  1.00  0.00     0.038 SA
HETATM    6  C3  UNL     1      24.117  -0.272  53.757  1.00  0.00     0.089 A 
HETATM    7  C4  UNL     1      25.053   0.446  52.963  1.00  0.00     0.012 A 
HETATM    8  C11 UNL     1      24.558   1.094  51.961  1.00  0.00     0.113 A 
HETATM    9  N4  UNL     1      23.193   1.073  51.687  1.00  0.00    -0.314 N 
ENDROOT
BRANCH   9  10
HETATM   10  C12 UNL     1      22.318   1.628  50.718  1.00  0.00     0.098 C 
HETATM   11  C13 UNL     1      21.190   2.454  51.231  1.00  0.00     0.032 C 
HETATM   12  C14 UNL     1      20.135   1.568  50.540  1.00  0.00     0.018 C 
HETATM   13  C19 UNL     1      21.286   0.662  50.174  1.00  0.00     0.032 C 
BRANCH  12  14
HETATM   14  C15 UNL     1      19.494   2.365  49.469  1.00  0.00     0.277 C 
BRANCH  14  15
HETATM   15  N5  UNL     1      18.241   2.934  49.656  1.00  0.00     0.088 N 
HETATM   16  C16 UNL     1      17.316   2.552  50.644  1.00  0.00     0.274 C 
HETATM   17  C17 UNL     1      17.367   4.003  51.157  1.00  0.00     0.060 C 
HETATM   18  C18 UNL     1      18.077   4.347  49.838  1.00  0.00     0.274 C 
ENDBRANCH  14  15
ENDBRANCH  12  14
ENDBRANCH   9  10
BRANCH   7  19
HETATM   19  C5  UNL     1      26.413   0.431  53.415  1.00  0.00    -0.021 C 
HETATM   20  C6  UNL     1      27.017  -0.651  53.004  1.00  0.00     0.010 C 
HETATM   21  C7  UNL     1      28.364  -1.204  53.141  1.00  0.00    -0.001 C 
HETATM   22  C8  UNL     1      29.458  -0.616  53.656  1.00  0.00    -0.001 C 
HETATM   23  C9  UNL     1      29.352   0.799  54.180  1.00  0.00     0.195 C 
HETATM   24  O1  UNL     1      28.217   0.762  54.980  1.00  0.00    -0.383 OA
HETATM   25  C10 UNL     1      27.090   1.343  54.318  1.00  0.00     0.207 C 
ENDBRANCH   7  19
BRANCH   1  26
HETATM   26  N1  UNL     1      24.807  -1.494  55.731  1.00  0.00    -0.383 N 
HETATM   27  H1  UNL     1      24.373  -2.167  56.423  1.00  0.00     0.157 HD
HETATM   28  H2  UNL     1      25.619  -1.770  56.326  1.00  0.00     0.157 HD
ENDBRANCH   1  26
TORSDOF 5
ENDMDL
MODEL 3
REMARK VINA RESULT:      -8.4      2.631      4.647
REMARK  5 active torsions:
REMARK  status: ('A' for Active; 'I' for Inactive)
REMARK    1  A    between atoms: N1_1  and  C1_2 
REMARK    2  A    between atoms: C4_8  and  C5_9 
REMARK    3  A    between atoms: N4_17  and  C12_18 
REMARK    4  A    between atoms: C14_20  and  C15_21 
REMARK    5  A    between atoms: C15_21  and  N5_22 
ROOT
HETATM    1  C1  UNL     1      25.680   2.702  51.530  1.00  0.00     0.143 A 
HETATM    2  N2  UNL     1      25.118   3.577  50.840  1.00  0.00    -0.223 NA
HETATM    3  C2  UNL     1      23.760   3.760  50.474  1.00  0.00     0.245 A 
HETATM    4  N3  UNL     1      22.815   2.917  50.870  1.00  0.00    -0.195 NA
HETATM    5  S1  UNL     1      23.366   1.572  51.872  1.00  0.00     0.038 SA
HETATM    6  C3  UNL     1      25.124   1.488  52.246  1.00  0.00     0.089 A 
HETATM    7  C4  UNL     1      25.262   0.302  53.017  1.00  0.00     0.012 A 
HETATM    8  C11 UNL     1      24.173  -0.362  53.225  1.00  0.00     0.113 A 
HETATM    9  N4  UNL     1      22.950   0.076  52.722  1.00  0.00    -0.314 N 
ENDROOT
BRANCH   9  10
HETATM   10  C12 UNL     1      21.599  -0.359  52.746  1.00  0.00     0.098 C 
HETATM   11  C13 UNL     1      20.762  -0.004  51.566  1.00  0.00     0.032 C 
HETATM   12  C14 UNL     1      19.725   0.732  52.436  1.00  0.00     0.018 C 
HETATM   13  C19 UNL     1      20.676   0.499  53.585  1.00  0.00     0.032 C 
BRANCH  12  14
HETATM   14  C15 UNL     1      18.460  -0.038  52.397  1.00  0.00     0.277 C 
BRANCH  14  15
HETATM   15  N5  UNL     1      17.373   0.414  51.662  1.00  0.00     0.088 N 
HETATM   16  C16 UNL     1      17.416   1.433  50.692  1.00  0.00     0.274 C 
HETATM   17  C17 UNL     1      16.881   0.400  49.682  1.00  0.00     0.060 C 
HETATM   18  C18 UNL     1      16.557  -0.484  50.897  1.00  0.00     0.274 C 
ENDBRANCH  14  15
ENDBRANCH  12  14
ENDBRANCH   9  10
BRANCH   7  19
HETATM   19  C5  UNL     1      26.595  -0.056  53.401  1.00  0.00    -0.021 C 
HETATM   20  C6  UNL     1      26.951  -1.173  52.826  1.00  0.00     0.010 C 
HETATM   21  C7  UNL     1      28.154  -2.005  52.829  1.00  0.00    -0.001 C 
HETATM   22  C8  UNL     1      29.355  -1.732  53.366  1.00  0.00    -0.001 C 
HETATM   23  C9  UNL     1      29.558  -0.410  54.075  1.00  0.00     0.195 C 
HETATM   24  O1  UNL     1      28.454  -0.321  54.913  1.00  0.00    -0.383 OA
HETATM   25  C10 UNL     1      27.464   0.564  54.384  1.00  0.00     0.207 C 
ENDBRANCH   7  19
BRANCH   1  26
HETATM   26  N1  UNL     1      27.042   2.848  51.666  1.00  0.00    -0.383 N 
HETATM   27  H1  UNL     1      27.150   3.118  52.683  1.00  0.00     0.157 HD
HETATM   28  H2  UNL     1      28.075   2.960  51.767  1.00  0.00     0.157 HD
ENDBRANCH   1  26
TORSDOF 5
ENDMDL
MODEL 4
REMARK VINA RESULT:      -7.9      3.625      5.565
REMARK  5 active torsions:
REMARK  status: ('A' for Active; 'I' for Inactive)
REMARK    1  A    between atoms: N1_1  and  C1_2 
REMARK    2  A    between atoms: C4_8  and  C5_9 
REMARK    3  A    between atoms: N4_17  and  C12_18 
REMARK    4  A    between atoms: C14_20  and  C15_21 
REMARK    5  A    between atoms: C15_21  and  N5_22 
ROOT
HETATM    1  C1  UNL     1      26.541   0.724  54.272  1.00  0.00     0.143 A 
HETATM    2  N2  UNL     1      27.749   1.005  54.411  1.00  0.00    -0.223 NA
HETATM    3  C2  UNL     1      28.621   1.821  53.646  1.00  0.00     0.245 A 
HETATM    4  N3  UNL     1      28.201   2.455  52.558  1.00  0.00    -0.195 NA
HETATM    5  S1  UNL     1      26.503   2.212  52.143  1.00  0.00     0.038 SA
HETATM    6  C3  UNL     1      25.534   1.147  53.222  1.00  0.00     0.089 A 
HETATM    7  C4  UNL     1      24.247   1.115  52.619  1.00  0.00     0.012 A 
HETATM    8  C11 UNL     1      24.121   1.799  51.530  1.00  0.00     0.113 A 
HETATM    9  N4  UNL     1      25.187   2.521  51.000  1.00  0.00    -0.314 N 
ENDROOT
BRANCH   9  10
HETATM   10  C12 UNL     1      25.421   3.358  49.878  1.00  0.00     0.098 C 
HETATM   11  C13 UNL     1      26.788   3.936  49.749  1.00  0.00     0.032 C 
HETATM   12  C14 UNL     1      26.252   5.380  49.734  1.00  0.00     0.018 C 
HETATM   13  C19 UNL     1      24.902   4.773  50.029  1.00  0.00     0.032 C 
BRANCH  12  14
HETATM   14  C15 UNL     1      26.493   5.948  48.387  1.00  0.00     0.277 C 
BRANCH  14  15
HETATM   15  N5  UNL     1      27.297   7.067  48.219  1.00  0.00     0.088 N 
HETATM   16  C16 UNL     1      28.703   7.055  48.165  1.00  0.00     0.274 C 
HETATM   17  C17 UNL     1      28.587   7.694  46.769  1.00  0.00     0.060 C 
HETATM   18  C18 UNL     1      27.114   7.965  47.115  1.00  0.00     0.274 C 
ENDBRANCH  14  15
ENDBRANCH  12  14
ENDBRANCH   9  10
BRANCH   7  19
HETATM   19  C5  UNL     1      23.273   0.269  53.243  1.00  0.00    -0.021 C 
HETATM   20  C6  UNL     1      22.098   0.839  53.228  1.00  0.00     0.010 C 
HETATM   21  C7  UNL     1      20.762   0.473  53.696  1.00  0.00    -0.001 C 
HETATM   22  C8  UNL     1      20.342  -0.708  54.180  1.00  0.00    -0.001 C 
HETATM   23  C9  UNL     1      21.329  -1.851  54.283  1.00  0.00     0.195 C 
HETATM   24  O1  UNL     1      22.431  -1.270  54.897  1.00  0.00    -0.383 OA
HETATM   25  C10 UNL     1      23.466  -0.982  53.952  1.00  0.00     0.207 C 
ENDBRANCH   7  19
BRANCH   1  26
HETATM   26  N1  UNL     1      26.023  -0.123  55.226  1.00  0.00    -0.383 N 
HETATM   27  H1  UNL     1      25.854  -1.015  54.682  1.00  0.00     0.157 HD
HETATM   28  H2  UNL     1      25.630  -0.764  55.950  1.00  0.00     0.157 HD
ENDBRANCH   1  26
TORSDOF 5
ENDMDL
MODEL 5
REMARK VINA RESULT:      -7.9      3.431      6.281
REMARK  5 active torsions:
REMARK  status: ('A' for Active; 'I' for Inactive)
REMARK    1  A    between atoms: N1_1  and  C1_2 
REMARK    2  A    between atoms: C4_8  and  C5_9 
REMARK    3  A    between atoms: N4_17  and  C12_18 
REMARK    4  A    between atoms: C14_20  and  C15_21 
REMARK    5  A    between atoms: C15_21  and  N5_22 
ROOT
HETATM    1  C1  UNL     1      26.958   1.847  53.308  1.00  0.00     0.143 A 
HETATM    2  N2  UNL     1      27.407   1.154  54.244  1.00  0.00    -0.223 NA
HETATM    3  C2  UNL     1      26.852   0.063  54.960  1.00  0.00     0.245 A 
HETATM    4  N3  UNL     1      25.641  -0.402  54.686  1.00  0.00    -0.195 NA
HETATM    5  S1  UNL     1      24.785   0.424  53.382  1.00  0.00     0.038 SA
HETATM    6  C3  UNL     1      25.634   1.789  52.574  1.00  0.00     0.089 A 
HETATM    7  C4  UNL     1      24.697   2.267  51.617  1.00  0.00     0.012 A 
HETATM    8  C11 UNL     1      23.562   1.651  51.586  1.00  0.00     0.113 A 
HETATM    9  N4  UNL     1      23.295   0.582  52.440  1.00  0.00    -0.314 N 
ENDROOT
BRANCH   9  10
HETATM   10  C12 UNL     1      22.218  -0.308  52.686  1.00  0.00     0.098 C 
HETATM   11  C13 UNL     1      20.949  -0.041  51.954  1.00  0.00     0.032 C 
HETATM   12  C14 UNL     1      20.137   0.067  53.259  1.00  0.00     0.018 C 
HETATM   13  C19 UNL     1      21.463  -0.043  53.972  1.00  0.00     0.032 C 
BRANCH  12  14
HETATM   14  C15 UNL     1      19.205  -1.083  53.318  1.00  0.00     0.277 C 
BRANCH  14  15
HETATM   15  N5  UNL     1      17.835  -0.898  53.184  1.00  0.00     0.088 N 
HETATM   16  C16 UNL     1      17.220  -0.030  52.263  1.00  0.00     0.274 C 
HETATM   17  C17 UNL     1      16.484  -1.259  51.699  1.00  0.00     0.060 C 
HETATM   18  C18 UNL     1      16.946  -2.002  52.963  1.00  0.00     0.274 C 
ENDBRANCH  14  15
ENDBRANCH  12  14
ENDBRANCH   9  10
BRANCH   7  19
HETATM   19  C5  UNL     1      25.091   3.420  50.863  1.00  0.00    -0.021 C 
HETATM   20  C6  UNL     1      26.195   3.181  50.209  1.00  0.00     0.010 C 
HETATM   21  C7  UNL     1      27.049   3.945  49.299  1.00  0.00    -0.001 C 
HETATM   22  C8  UNL     1      26.815   5.149  48.749  1.00  0.00    -0.001 C 
HETATM   23  C9  UNL     1      25.520   5.863  49.071  1.00  0.00     0.195 C 
HETATM   24  O1  UNL     1      25.437   5.771  50.455  1.00  0.00    -0.383 OA
HETATM   25  C10 UNL     1      24.518   4.754  50.859  1.00  0.00     0.207 C 
ENDBRANCH   7  19
BRANCH   1  26
HETATM   26  N1  UNL     1      27.796   2.844  52.863  1.00  0.00    -0.383 N 
HETATM   27  H1  UNL     1      27.456   3.692  53.397  1.00  0.00     0.157 HD
HETATM   28  H2  UNL     1      28.431   3.599  52.524  1.00  0.00     0.157 HD
ENDBRANCH   1  26
TORSDOF 5
ENDMDL
MODEL 6
REMARK VINA RESULT:      -7.7      3.840      4.709
REMARK  5 active torsions:
REMARK  status: ('A' for Active; 'I' for Inactive)
REMARK    1  A    between atoms: N1_1  and  C1_2 
REMARK    2  A    between atoms: C4_8  and  C5_9 
REMARK    3  A    between atoms: N4_17  and  C12_18 
REMARK    4  A    between atoms: C14_20  and  C15_21 
REMARK    5  A    between atoms: C15_21  and  N5_22 
ROOT
HETATM    1  C1  UNL     1      23.500   1.525  52.548  1.00  0.00     0.143 A 
HETATM    2  N2  UNL     1      22.308   1.884  52.460  1.00  0.00    -0.223 NA
HETATM    3  C2  UNL     1      21.675   2.862  51.652  1.00  0.00     0.245 A 
HETATM    4  N3  UNL     1      22.363   3.602  50.792  1.00  0.00    -0.195 NA
HETATM    5  S1  UNL     1      24.097   3.281  50.729  1.00  0.00     0.038 SA
HETATM    6  C3  UNL     1      24.740   2.003  51.820  1.00  0.00     0.089 A 
HETATM    7  C4  UNL     1      26.140   2.005  51.575  1.00  0.00     0.012 A 
HETATM    8  C11 UNL     1      26.557   2.866  50.706  1.00  0.00     0.113 A 
HETATM    9  N4  UNL     1      25.673   3.724  50.055  1.00  0.00    -0.314 N 
ENDROOT
BRANCH   9  10
HETATM   10  C12 UNL     1      25.750   4.751  49.079  1.00  0.00     0.098 C 
HETATM   11  C13 UNL     1      27.114   5.161  48.645  1.00  0.00     0.032 C 
HETATM   12  C14 UNL     1      26.876   6.630  49.045  1.00  0.00     0.018 C 
HETATM   13  C19 UNL     1      25.566   6.152  49.623  1.00  0.00     0.032 C 
BRANCH  12  14
HETATM   14  C15 UNL     1      26.847   7.445  47.809  1.00  0.00     0.277 C 
BRANCH  14  15
HETATM   15  N5  UNL     1      27.930   8.239  47.453  1.00  0.00     0.088 N 
HETATM   16  C16 UNL     1      29.075   8.451  48.243  1.00  0.00     0.274 C 
HETATM   17  C17 UNL     1      29.902   7.878  47.077  1.00  0.00     0.060 C 
HETATM   18  C18 UNL     1      28.635   8.038  46.220  1.00  0.00     0.274 C 
ENDBRANCH  14  15
ENDBRANCH  12  14
ENDBRANCH   9  10
BRANCH   7  19
HETATM   19  C5  UNL     1      26.927   1.114  52.375  1.00  0.00    -0.021 C 
HETATM   20  C6  UNL     1      26.741  -0.122  51.997  1.00  0.00     0.010 C 
HETATM   21  C7  UNL     1      27.255  -1.425  52.420  1.00  0.00    -0.001 C 
HETATM   22  C8  UNL     1      28.242  -1.689  53.292  1.00  0.00    -0.001 C 
HETATM   23  C9  UNL     1      28.958  -0.535  53.961  1.00  0.00     0.195 C 
HETATM   24  O1  UNL     1      27.919   0.273  54.405  1.00  0.00    -0.383 OA
HETATM   25  C10 UNL     1      27.731   1.403  53.549  1.00  0.00     0.207 C 
ENDBRANCH   7  19
BRANCH   1  26
HETATM   26  N1  UNL     1      23.747   0.530  53.466  1.00  0.00    -0.383 N 
HETATM   27  H1  UNL     1      24.634   0.861  53.939  1.00  0.00     0.157 HD
HETATM   28  H2  UNL     1      23.933  -0.225  54.162  1.00  0.00     0.157 HD
ENDBRANCH   1  26
TORSDOF 5
ENDMDL
MODEL 7
REMARK VINA RESULT:      -7.6      2.265      2.729
REMARK  5 active torsions:
REMARK  status: ('A' for Active; 'I' for Inactive)
REMARK    1  A    between atoms: N1_1  and  C1_2 
REMARK    2  A    between atoms: C4_8  and  C5_9 
REMARK    3  A    between atoms: N4_17  and  C12_18 
REMARK    4  A    between atoms: C14_20  and  C15_21 
REMARK    5  A    between atoms: C15_21  and  N5_22 
ROOT
HETATM    1  C1  UNL     1      22.669   0.058  53.609  1.00  0.00     0.143 A 
HETATM    2  N2  UNL     1      21.422   0.002  53.634  1.00  0.00    -0.223 NA
HETATM    3  C2  UNL     1      20.430   0.795  53.002  1.00  0.00     0.245 A 
HETATM    4  N3  UNL     1      20.753   1.814  52.217  1.00  0.00    -0.195 NA
HETATM    5  S1  UNL     1      22.483   2.104  52.019  1.00  0.00     0.038 SA
HETATM    6  C3  UNL     1      23.609   1.003  52.889  1.00  0.00     0.089 A 
HETATM    7  C4  UNL     1      24.902   1.504  52.572  1.00  0.00     0.012 A 
HETATM    8  C11 UNL     1      24.929   2.545  51.808  1.00  0.00     0.113 A 
HETATM    9  N4  UNL     1      23.756   3.123  51.329  1.00  0.00    -0.314 N 
ENDROOT
BRANCH   9  10
HETATM   10  C12 UNL     1      23.399   4.218  50.501  1.00  0.00     0.098 C 
HETATM   11  C13 UNL     1      23.627   4.053  49.039  1.00  0.00     0.032 C 
HETATM   12  C14 UNL     1      24.531   5.299  48.968  1.00  0.00     0.018 C 
HETATM   13  C19 UNL     1      24.412   5.343  50.472  1.00  0.00     0.032 C 
BRANCH  12  14
HETATM   14  C15 UNL     1      23.830   6.333  48.172  1.00  0.00     0.277 C 
BRANCH  14  15
HETATM   15  N5  UNL     1      24.541   7.287  47.458  1.00  0.00     0.088 N 
HETATM   16  C16 UNL     1      23.984   8.423  46.842  1.00  0.00     0.274 C 
HETATM   17  C17 UNL     1      24.924   9.274  47.716  1.00  0.00     0.060 C 
HETATM   18  C18 UNL     1      25.669   7.966  48.027  1.00  0.00     0.274 C 
ENDBRANCH  14  15
ENDBRANCH  12  14
ENDBRANCH   9  10
BRANCH   7  19
HETATM   19  C5  UNL     1      26.009   0.845  53.200  1.00  0.00    -0.021 C 
HETATM   20  C6  UNL     1      26.460  -0.115  52.438  1.00  0.00     0.010 C 
HETATM   21  C7  UNL     1      27.538  -1.099  52.537  1.00  0.00    -0.001 C 
HETATM   22  C8  UNL     1      28.512  -1.179  53.459  1.00  0.00    -0.001 C 
HETATM   23  C9  UNL     1      28.558  -0.151  54.569  1.00  0.00     0.195 C 
HETATM   24  O1  UNL     1      27.248  -0.117  55.031  1.00  0.00    -0.383 OA
HETATM   25  C10 UNL     1      26.547   1.027  54.536  1.00  0.00     0.207 C 
ENDBRANCH   7  19
BRANCH   1  26
HETATM   26  N1  UNL     1      23.314  -0.892  54.368  1.00  0.00    -0.383 N 
HETATM   27  H1  UNL     1      24.305  -0.523  54.415  1.00  0.00     0.157 HD
HETATM   28  H2  UNL     1      23.802  -1.613  54.943  1.00  0.00     0.157 HD
ENDBRANCH   1  26
TORSDOF 5
ENDMDL
MODEL 8
REMARK VINA RESULT:      -7.4      3.225      5.709
REMARK  5 active torsions:
REMARK  status: ('A' for Active; 'I' for Inactive)
REMARK    1  A    between atoms: N1_1  and  C1_2 
REMARK    2  A    between atoms: C4_8  and  C5_9 
REMARK    3  A    between atoms: N4_17  and  C12_18 
REMARK    4  A    between atoms: C14_20  and  C15_21 
REMARK    5  A    between atoms: C15_21  and  N5_22 
ROOT
HETATM    1  C1  UNL     1      24.424   3.080  50.448  1.00  0.00     0.143 A 
HETATM    2  N2  UNL     1      23.855   3.708  49.531  1.00  0.00    -0.223 NA
HETATM    3  C2  UNL     1      22.483   3.881  49.218  1.00  0.00     0.245 A 
HETATM    4  N3  UNL     1      21.528   3.323  49.952  1.00  0.00    -0.195 NA
HETATM    5  S1  UNL     1      22.086   2.367  51.327  1.00  0.00     0.038 SA
HETATM    6  C3  UNL     1      23.862   2.251  51.585  1.00  0.00     0.089 A 
HETATM    7  C4  UNL     1      23.997   1.402  52.717  1.00  0.00     0.012 A 
HETATM    8  C11 UNL     1      22.893   0.960  53.221  1.00  0.00     0.113 A 
HETATM    9  N4  UNL     1      21.657   1.310  52.681  1.00  0.00    -0.314 N 
ENDROOT
BRANCH   9  10
HETATM   10  C12 UNL     1      20.291   1.041  52.949  1.00  0.00     0.098 C 
HETATM   11  C13 UNL     1      19.934  -0.372  53.256  1.00  0.00     0.032 C 
HETATM   12  C14 UNL     1      18.916  -0.439  52.102  1.00  0.00     0.018 C 
HETATM   13  C19 UNL     1      19.416   0.933  51.718  1.00  0.00     0.032 C 
BRANCH  12  14
HETATM   14  C15 UNL     1      17.561  -0.559  52.689  1.00  0.00     0.277 C 
BRANCH  14  15
HETATM   15  N5  UNL     1      16.514  -1.106  51.960  1.00  0.00     0.088 N 
HETATM   16  C16 UNL     1      15.769  -2.239  52.336  1.00  0.00     0.274 C 
HETATM   17  C17 UNL     1      14.515  -1.345  52.290  1.00  0.00     0.060 C 
HETATM   18  C18 UNL     1      15.388  -0.316  51.554  1.00  0.00     0.274 C 
ENDBRANCH  14  15
ENDBRANCH  12  14
ENDBRANCH   9  10
BRANCH   7  19
HETATM   19  C5  UNL     1      25.335   1.075  53.111  1.00  0.00    -0.021 C 
HETATM   20  C6  UNL     1      25.637  -0.139  52.737  1.00  0.00     0.010 C 
HETATM   21  C7  UNL     1      26.816  -0.997  52.849  1.00  0.00    -0.001 C 
HETATM   22  C8  UNL     1      28.046  -0.672  53.283  1.00  0.00    -0.001 C 
HETATM   23  C9  UNL     1      28.314   0.749  53.730  1.00  0.00     0.195 C 
HETATM   24  O1  UNL     1      27.249   1.026  54.577  1.00  0.00    -0.383 OA
HETATM   25  C10 UNL     1      26.261   1.834  53.932  1.00  0.00     0.207 C 
ENDBRANCH   7  19
BRANCH   1  26
HETATM   26  N1  UNL     1      25.799   3.133  50.429  1.00  0.00    -0.383 N 
HETATM   27  H1  UNL     1      26.057   2.917  51.432  1.00  0.00     0.157 HD
HETATM   28  H2  UNL     1      26.842   3.175  50.414  1.00  0.00     0.157 HD
ENDBRANCH   1  26
TORSDOF 5
ENDMDL
MODEL 9
REMARK VINA RESULT:      -7.3      2.953      4.997
REMARK  5 active torsions:
REMARK  status: ('A' for Active; 'I' for Inactive)
REMARK    1  A    between atoms: N1_1  and  C1_2 
REMARK    2  A    between atoms: C4_8  and  C5_9 
REMARK    3  A    between atoms: N4_17  and  C12_18 
REMARK    4  A    between atoms: C14_20  and  C15_21 
REMARK    5  A    between atoms: C15_21  and  N5_22 
ROOT
HETATM    1  C1  UNL     1      26.399   0.175  54.309  1.00  0.00     0.143 A 
HETATM    2  N2  UNL     1      27.639   0.285  54.409  1.00  0.00    -0.223 NA
HETATM    3  C2  UNL     1      28.565   1.141  53.760  1.00  0.00     0.245 A 
HETATM    4  N3  UNL     1      28.171   2.030  52.857  1.00  0.00    -0.195 NA
HETATM    5  S1  UNL     1      26.437   2.069  52.531  1.00  0.00     0.038 SA
HETATM    6  C3  UNL     1      25.401   0.917  53.445  1.00  0.00     0.089 A 
HETATM    7  C4  UNL     1      24.090   1.154  52.946  1.00  0.00     0.012 A 
HETATM    8  C11 UNL     1      23.994   2.059  52.030  1.00  0.00     0.113 A 
HETATM    9  N4  UNL     1      25.113   2.753  51.576  1.00  0.00    -0.314 N 
ENDROOT
BRANCH   9  10
HETATM   10  C12 UNL     1      25.392   3.775  50.631  1.00  0.00     0.098 C 
HETATM   11  C13 UNL     1      24.593   5.026  50.745  1.00  0.00     0.032 C 
HETATM   12  C14 UNL     1      24.072   4.908  49.300  1.00  0.00     0.018 C 
HETATM   13  C19 UNL     1      24.759   3.564  49.271  1.00  0.00     0.032 C 
BRANCH  12  14
HETATM   14  C15 UNL     1      24.655   6.016  48.508  1.00  0.00     0.277 C 
BRANCH  14  15
HETATM   15  N5  UNL     1      23.857   7.049  48.032  1.00  0.00     0.088 N 
HETATM   16  C16 UNL     1      22.734   7.577  48.694  1.00  0.00     0.274 C 
HETATM   17  C17 UNL     1      23.445   8.943  48.666  1.00  0.00     0.060 C 
HETATM   18  C18 UNL     1      24.415   8.315  47.652  1.00  0.00     0.274 C 
ENDBRANCH  14  15
ENDBRANCH  12  14
ENDBRANCH   9  10
BRANCH   7  19
HETATM   19  C5  UNL     1      23.052   0.309  53.459  1.00  0.00    -0.021 C 
HETATM   20  C6  UNL     1      21.880   0.760  53.103  1.00  0.00     0.010 C 
HETATM   21  C7  UNL     1      20.496   0.336  53.315  1.00  0.00    -0.001 C 
HETATM   22  C8  UNL     1      20.049  -0.806  53.864  1.00  0.00    -0.001 C 
HETATM   23  C9  UNL     1      21.053  -1.829  54.349  1.00  0.00     0.195 C 
HETATM   24  O1  UNL     1      21.948  -1.074  55.096  1.00  0.00    -0.383 OA
HETATM   25  C10 UNL     1      23.152  -0.816  54.370  1.00  0.00     0.207 C 
ENDBRANCH   7  19
BRANCH   1  26
HETATM   26  N1  UNL     1      25.830  -0.790  55.110  1.00  0.00    -0.383 N 
HETATM   27  H1  UNL     1      26.299  -0.626  56.044  1.00  0.00     0.157 HD
HETATM   28  H2  UNL     1      25.399  -1.522  55.716  1.00  0.00     0.157 HD
ENDBRANCH   1  26
TORSDOF 5
ENDMDL
