MODEL 1
REMARK VINA RESULT:      -7.8      0.000      0.000
REMARK  5 active torsions:
REMARK  status: ('A' for Active; 'I' for Inactive)
REMARK    1  A    between atoms: N1_1  and  C1_2 
REMARK    2  A    between atoms: C6_9  and  C7_10 
REMARK    3  A    between atoms: C7_10  and  C8_11 
REMARK    4  A    between atoms: C8_11  and  C9_12 
REMARK       I    between atoms: C9_12  and  N2_14 
REMARK    5  A    between atoms: N2_14  and  C10_15 
ROOT
HETATM    1  C7  UNL     1      20.878   0.224  54.555  1.00  0.00     0.050 C 
ENDROOT
BRANCH   1   2
HETATM    2  C6  UNL     1      20.038   0.144  53.333  1.00  0.00    -0.030 A 
HETATM    3  C1  UNL     1      20.299   0.782  52.132  1.00  0.00     0.035 A 
HETATM    4  C2  UNL     1      19.418   0.617  51.059  1.00  0.00     0.073 A 
HETATM    5  C3  UNL     1      18.295  -0.150  51.135  1.00  0.00     0.140 A 
HETATM    6  F1  UNL     1      17.441  -0.311  50.098  1.00  0.00    -0.204 F 
HETATM    7  C4  UNL     1      18.013  -0.790  52.307  1.00  0.00     0.073 A 
HETATM    8 CL1  UNL     1      16.601  -1.793  52.493  1.00  0.00    -0.081 Cl
HETATM    9  C5  UNL     1      18.876  -0.632  53.364  1.00  0.00     0.036 A 
BRANCH   3  10
HETATM   10  N1  UNL     1      21.476   1.579  52.072  1.00  0.00    -0.399 N 
HETATM   11  H1  UNL     1      22.345   1.499  51.521  1.00  0.00     0.156 HD
HETATM   12  H2  UNL     1      21.253   2.343  52.775  1.00  0.00     0.156 HD
ENDBRANCH   3  10
ENDBRANCH   1   2
BRANCH   1  13
HETATM   13  C8  UNL     1      21.557  -1.098  54.763  1.00  0.00     0.108 C 
BRANCH  13  14
HETATM   14  C9  UNL     1      22.973  -1.088  54.431  1.00  0.00     0.221 C 
HETATM   15  O1  UNL     1      23.199  -1.590  55.555  1.00  0.00    -0.273 OA
HETATM   16  N2  UNL     1      23.795  -0.713  53.373  1.00  0.00    -0.336 N 
HETATM   17  H9  UNL     1      23.061  -0.369  52.726  1.00  0.00     0.168 HD
BRANCH  16  18
HETATM   18  C10 UNL     1      25.185  -0.805  53.286  1.00  0.00     0.103 C 
HETATM   19  C11 UNL     1      26.400  -0.558  53.598  1.00  0.00    -0.004 A 
HETATM   20  C12 UNL     1      27.580  -1.115  52.956  1.00  0.00     0.012 A 
HETATM   21  C15 UNL     1      26.560   0.372  54.705  1.00  0.00     0.123 A 
HETATM   22  C13 UNL     1      28.751  -0.755  53.400  1.00  0.00    -0.004 A 
HETATM   23  C14 UNL     1      28.946   0.184  54.517  1.00  0.00     0.175 A 
HETATM   24  N3  UNL     1      27.748   0.689  55.099  1.00  0.00    -0.297 NA
ENDBRANCH  16  18
ENDBRANCH  13  14
ENDBRANCH   1  13
TORSDOF 5
ENDMDL
MODEL 2
REMARK VINA RESULT:      -7.7      4.329      8.534
REMARK  5 active torsions:
REMARK  status: ('A' for Active; 'I' for Inactive)
REMARK    1  A    between atoms: N1_1  and  C1_2 
REMARK    2  A    between atoms: C6_9  and  C7_10 
REMARK    3  A    between atoms: C7_10  and  C8_11 
REMARK    4  A    between atoms: C8_11  and  C9_12 
REMARK       I    between atoms: C9_12  and  N2_14 
REMARK    5  A    between atoms: N2_14  and  C10_15 
ROOT
HETATM    1  C7  UNL     1      25.635   1.019  52.672  1.00  0.00     0.050 C 
ENDROOT
BRANCH   1   2
HETATM    2  C6  UNL     1      26.992   0.570  53.073  1.00  0.00    -0.030 A 
HETATM    3  C1  UNL     1      27.986   1.376  53.601  1.00  0.00     0.035 A 
HETATM    4  C2  UNL     1      29.223   0.816  53.935  1.00  0.00     0.073 A 
HETATM    5  C3  UNL     1      29.508  -0.505  53.765  1.00  0.00     0.140 A 
HETATM    6  F1  UNL     1      30.704  -1.049  54.087  1.00  0.00    -0.204 F 
HETATM    7  C4  UNL     1      28.546  -1.324  53.245  1.00  0.00     0.073 A 
HETATM    8 CL1  UNL     1      28.822  -3.025  52.994  1.00  0.00    -0.081 Cl
HETATM    9  C5  UNL     1      27.329  -0.778  52.916  1.00  0.00     0.036 A 
BRANCH   3  10
HETATM   10  N1  UNL     1      27.671   2.753  53.772  1.00  0.00    -0.399 N 
HETATM   11  H1  UNL     1      27.549   3.529  53.101  1.00  0.00     0.156 HD
HETATM   12  H2  UNL     1      27.577   2.822  54.826  1.00  0.00     0.156 HD
ENDBRANCH   3  10
ENDBRANCH   1   2
BRANCH   1  13
HETATM   13  C8  UNL     1      24.630   0.426  53.617  1.00  0.00     0.108 C 
BRANCH  13  14
HETATM   14  C9  UNL     1      23.286   0.348  53.068  1.00  0.00     0.221 C 
HETATM   15  O1  UNL     1      23.322  -0.888  53.261  1.00  0.00    -0.273 OA
HETATM   16  N2  UNL     1      22.320   1.201  52.544  1.00  0.00    -0.336 N 
HETATM   17  H9  UNL     1      22.842   2.093  52.634  1.00  0.00     0.168 HD
BRANCH  16  18
HETATM   18  C10 UNL     1      21.051   0.876  52.062  1.00  0.00     0.103 C 
HETATM   19  C11 UNL     1      19.897   0.327  52.072  1.00  0.00    -0.004 A 
HETATM   20  C12 UNL     1      18.886   0.437  51.032  1.00  0.00     0.012 A 
HETATM   21  C15 UNL     1      19.619  -0.470  53.257  1.00  0.00     0.123 A 
HETATM   22  C13 UNL     1      17.756  -0.190  51.202  1.00  0.00    -0.004 A 
HETATM   23  C14 UNL     1      17.446  -1.004  52.388  1.00  0.00     0.175 A 
HETATM   24  N3  UNL     1      18.479  -1.067  53.366  1.00  0.00    -0.297 NA
ENDBRANCH  16  18
ENDBRANCH  13  14
ENDBRANCH   1  13
TORSDOF 5
ENDMDL
MODEL 3
REMARK VINA RESULT:      -7.7      6.690      8.627
REMARK  5 active torsions:
REMARK  status: ('A' for Active; 'I' for Inactive)
REMARK    1  A    between atoms: N1_1  and  C1_2 
REMARK    2  A    between atoms: C6_9  and  C7_10 
REMARK    3  A    between atoms: C7_10  and  C8_11 
REMARK    4  A    between atoms: C8_11  and  C9_12 
REMARK       I    between atoms: C9_12  and  N2_14 
REMARK    5  A    between atoms: N2_14  and  C10_15 
ROOT
HETATM    1  C7  UNL     1      25.508   1.290  53.179  1.00  0.00     0.050 C 
ENDROOT
BRANCH   1   2
HETATM    2  C6  UNL     1      26.882   0.755  53.359  1.00  0.00    -0.030 A 
HETATM    3  C1  UNL     1      27.992   1.493  53.735  1.00  0.00     0.035 A 
HETATM    4  C2  UNL     1      29.230   0.856  53.867  1.00  0.00     0.073 A 
HETATM    5  C3  UNL     1      29.405  -0.475  53.639  1.00  0.00     0.140 A 
HETATM    6  F1  UNL     1      30.602  -1.093  53.765  1.00  0.00    -0.204 F 
HETATM    7  C4  UNL     1      28.328  -1.227  53.266  1.00  0.00     0.073 A 
HETATM    8 CL1  UNL     1      28.460  -2.935  52.955  1.00  0.00    -0.081 Cl
HETATM    9  C5  UNL     1      27.110  -0.606  53.136  1.00  0.00     0.036 A 
BRANCH   3  10
HETATM   10  N1  UNL     1      27.789   2.881  53.969  1.00  0.00    -0.399 N 
HETATM   11  H1  UNL     1      28.442   3.677  54.054  1.00  0.00     0.156 HD
HETATM   12  H2  UNL     1      26.733   2.934  54.045  1.00  0.00     0.156 HD
ENDBRANCH   3  10
ENDBRANCH   1   2
BRANCH   1  13
HETATM   13  C8  UNL     1      25.155   1.238  51.721  1.00  0.00     0.108 C 
BRANCH  13  14
HETATM   14  C9  UNL     1      25.414   2.480  51.012  1.00  0.00     0.221 C 
HETATM   15  O1  UNL     1      24.550   3.025  51.735  1.00  0.00    -0.273 OA
HETATM   16  N2  UNL     1      26.229   2.948  49.986  1.00  0.00    -0.336 N 
HETATM   17  H9  UNL     1      26.726   2.063  49.773  1.00  0.00     0.168 HD
BRANCH  16  18
HETATM   18  C10 UNL     1      26.299   4.239  49.459  1.00  0.00     0.103 C 
HETATM   19  C11 UNL     1      26.840   5.246  48.888  1.00  0.00    -0.004 A 
HETATM   20  C12 UNL     1      26.197   6.519  48.604  1.00  0.00     0.012 A 
HETATM   21  C15 UNL     1      28.230   5.046  48.506  1.00  0.00     0.123 A 
HETATM   22  C13 UNL     1      26.897   7.444  48.012  1.00  0.00    -0.004 A 
HETATM   23  C14 UNL     1      28.305   7.273  47.614  1.00  0.00     0.175 A 
HETATM   24  N3  UNL     1      28.870   6.003  47.921  1.00  0.00    -0.297 NA
ENDBRANCH  16  18
ENDBRANCH  13  14
ENDBRANCH   1  13
TORSDOF 5
ENDMDL
MODEL 4
REMARK VINA RESULT:      -7.4      5.724      6.849
REMARK  5 active torsions:
REMARK  status: ('A' for Active; 'I' for Inactive)
REMARK    1  A    between atoms: N1_1  and  C1_2 
REMARK    2  A    between atoms: C6_9  and  C7_10 
REMARK    3  A    between atoms: C7_10  and  C8_11 
REMARK    4  A    between atoms: C8_11  and  C9_12 
REMARK       I    between atoms: C9_12  and  N2_14 
REMARK    5  A    between atoms: N2_14  and  C10_15 
ROOT
HETATM    1  C7  UNL     1      26.283   1.250  53.037  1.00  0.00     0.050 C 
ENDROOT
BRANCH   1   2
HETATM    2  C6  UNL     1      25.110   0.447  53.467  1.00  0.00    -0.030 A 
HETATM    3  C1  UNL     1      25.080  -0.425  54.542  1.00  0.00     0.035 A 
HETATM    4  C2  UNL     1      23.902  -1.119  54.832  1.00  0.00     0.073 A 
HETATM    5  C3  UNL     1      22.761  -0.981  54.101  1.00  0.00     0.140 A 
HETATM    6  F1  UNL     1      21.620  -1.652  54.380  1.00  0.00    -0.204 F 
HETATM    7  C4  UNL     1      22.763  -0.128  53.035  1.00  0.00     0.073 A 
HETATM    8 CL1  UNL     1      21.350   0.112  52.044  1.00  0.00    -0.081 Cl
HETATM    9  C5  UNL     1      23.918   0.557  52.745  1.00  0.00     0.036 A 
BRANCH   3  10
HETATM   10  N1  UNL     1      26.280  -0.556  55.294  1.00  0.00    -0.399 N 
HETATM   11  H1  UNL     1      26.883  -1.367  55.510  1.00  0.00     0.156 HD
HETATM   12  H2  UNL     1      26.441   0.441  55.616  1.00  0.00     0.156 HD
ENDBRANCH   3  10
ENDBRANCH   1   2
BRANCH   1  13
HETATM   13  C8  UNL     1      26.428   1.136  51.547  1.00  0.00     0.108 C 
BRANCH  13  14
HETATM   14  C9  UNL     1      26.492   2.418  50.865  1.00  0.00     0.221 C 
HETATM   15  O1  UNL     1      27.443   2.725  51.618  1.00  0.00    -0.273 OA
HETATM   16  N2  UNL     1      25.839   3.087  49.835  1.00  0.00    -0.336 N 
HETATM   17  H9  UNL     1      25.152   2.350  49.588  1.00  0.00     0.168 HD
BRANCH  16  18
HETATM   18  C10 UNL     1      26.093   4.368  49.340  1.00  0.00     0.103 C 
HETATM   19  C11 UNL     1      26.785   5.312  48.828  1.00  0.00    -0.004 A 
HETATM   20  C12 UNL     1      26.313   6.654  48.525  1.00  0.00     0.012 A 
HETATM   21  C15 UNL     1      28.166   4.958  48.539  1.00  0.00     0.123 A 
HETATM   22  C13 UNL     1      27.154   7.500  48.002  1.00  0.00    -0.004 A 
HETATM   23  C14 UNL     1      28.557   7.173  47.699  1.00  0.00     0.175 A 
HETATM   24  N3  UNL     1      28.951   5.842  48.019  1.00  0.00    -0.297 NA
ENDBRANCH  16  18
ENDBRANCH  13  14
ENDBRANCH   1  13
TORSDOF 5
ENDMDL
MODEL 5
REMARK VINA RESULT:      -7.3      4.669      8.638
REMARK  5 active torsions:
REMARK  status: ('A' for Active; 'I' for Inactive)
REMARK    1  A    between atoms: N1_1  and  C1_2 
REMARK    2  A    between atoms: C6_9  and  C7_10 
REMARK    3  A    between atoms: C7_10  and  C8_11 
REMARK    4  A    between atoms: C8_11  and  C9_12 
REMARK       I    between atoms: C9_12  and  N2_14 
REMARK    5  A    between atoms: N2_14  and  C10_15 
ROOT
HETATM    1  C7  UNL     1      25.631  -1.092  52.952  1.00  0.00     0.050 C 
ENDROOT
BRANCH   1   2
HETATM    2  C6  UNL     1      27.072  -0.791  53.144  1.00  0.00    -0.030 A 
HETATM    3  C1  UNL     1      28.098  -1.721  53.141  1.00  0.00     0.035 A 
HETATM    4  C2  UNL     1      29.416  -1.294  53.335  1.00  0.00     0.073 A 
HETATM    5  C3  UNL     1      29.749   0.011  53.532  1.00  0.00     0.140 A 
HETATM    6  F1  UNL     1      31.023   0.426  53.721  1.00  0.00    -0.204 F 
HETATM    7  C4  UNL     1      28.758   0.950  53.541  1.00  0.00     0.073 A 
HETATM    8 CL1  UNL     1      29.093   2.642  53.785  1.00  0.00    -0.081 Cl
HETATM    9  C5  UNL     1      27.462   0.536  53.350  1.00  0.00     0.036 A 
BRANCH   3  10
HETATM   10  N1  UNL     1      27.731  -3.079  52.933  1.00  0.00    -0.399 N 
HETATM   11  H1  UNL     1      26.825  -3.534  52.732  1.00  0.00     0.156 HD
HETATM   12  H2  UNL     1      28.664  -3.572  53.037  1.00  0.00     0.156 HD
ENDBRANCH   3  10
ENDBRANCH   1   2
BRANCH   1  13
HETATM   13  C8  UNL     1      24.820  -0.080  53.709  1.00  0.00     0.108 C 
BRANCH  13  14
HETATM   14  C9  UNL     1      23.523   0.195  53.113  1.00  0.00     0.221 C 
HETATM   15  O1  UNL     1      23.872   1.392  53.004  1.00  0.00    -0.273 OA
HETATM   16  N2  UNL     1      22.361  -0.492  52.778  1.00  0.00    -0.336 N 
HETATM   17  H9  UNL     1      22.647  -1.437  53.095  1.00  0.00     0.168 HD
BRANCH  16  18
HETATM   18  C10 UNL     1      21.200   0.013  52.189  1.00  0.00     0.103 C 
HETATM   19  C11 UNL     1      20.295   0.878  51.931  1.00  0.00    -0.004 A 
HETATM   20  C12 UNL     1      19.147   0.685  51.059  1.00  0.00     0.012 A 
HETATM   21  C15 UNL     1      20.480   2.159  52.597  1.00  0.00     0.123 A 
HETATM   22  C13 UNL     1      18.317   1.677  50.904  1.00  0.00    -0.004 A 
HETATM   23  C14 UNL     1      18.476   2.984  51.564  1.00  0.00     0.175 A 
HETATM   24  N3  UNL     1      19.621   3.103  52.402  1.00  0.00    -0.297 NA
ENDBRANCH  16  18
ENDBRANCH  13  14
ENDBRANCH   1  13
TORSDOF 5
ENDMDL
MODEL 6
REMARK VINA RESULT:      -7.3      1.995      2.333
REMARK  5 active torsions:
REMARK  status: ('A' for Active; 'I' for Inactive)
REMARK    1  A    between atoms: N1_1  and  C1_2 
REMARK    2  A    between atoms: C6_9  and  C7_10 
REMARK    3  A    between atoms: C7_10  and  C8_11 
REMARK    4  A    between atoms: C8_11  and  C9_12 
REMARK       I    between atoms: C9_12  and  N2_14 
REMARK    5  A    between atoms: N2_14  and  C10_15 
ROOT
HETATM    1  C7  UNL     1      20.809  -0.239  54.001  1.00  0.00     0.050 C 
ENDROOT
BRANCH   1   2
HETATM    2  C6  UNL     1      19.821  -0.150  52.896  1.00  0.00    -0.030 A 
HETATM    3  C1  UNL     1      18.586  -0.775  52.866  1.00  0.00     0.035 A 
HETATM    4  C2  UNL     1      17.754  -0.602  51.756  1.00  0.00     0.073 A 
HETATM    5  C3  UNL     1      18.100   0.161  50.683  1.00  0.00     0.140 A 
HETATM    6  F1  UNL     1      17.296   0.329  49.607  1.00  0.00    -0.204 F 
HETATM    7  C4  UNL     1      19.312   0.789  50.685  1.00  0.00     0.073 A 
HETATM    8 CL1  UNL     1      19.837   1.785  49.357  1.00  0.00    -0.081 Cl
HETATM    9  C5  UNL     1      20.133   0.623  51.774  1.00  0.00     0.036 A 
BRANCH   3  10
HETATM   10  N1  UNL     1      18.242  -1.568  53.996  1.00  0.00    -0.399 N 
HETATM   11  H1  UNL     1      18.083  -1.334  54.989  1.00  0.00     0.156 HD
HETATM   12  H2  UNL     1      18.176  -2.536  53.566  1.00  0.00     0.156 HD
ENDBRANCH   3  10
ENDBRANCH   1   2
BRANCH   1  13
HETATM   13  C8  UNL     1      21.953  -1.106  53.559  1.00  0.00     0.108 C 
BRANCH  13  14
HETATM   14  C9  UNL     1      23.236  -0.424  53.552  1.00  0.00     0.221 C 
HETATM   15  O1  UNL     1      23.472  -0.943  54.666  1.00  0.00    -0.273 OA
HETATM   16  N2  UNL     1      23.959   0.433  52.729  1.00  0.00    -0.336 N 
HETATM   17  H9  UNL     1      23.273   0.514  51.956  1.00  0.00     0.168 HD
BRANCH  16  18
HETATM   18  C10 UNL     1      25.227   0.975  52.948  1.00  0.00     0.103 C 
HETATM   19  C11 UNL     1      26.424   1.019  53.394  1.00  0.00    -0.004 A 
HETATM   20  C12 UNL     1      27.369   2.110  53.210  1.00  0.00     0.012 A 
HETATM   21  C15 UNL     1      26.830  -0.159  54.146  1.00  0.00     0.123 A 
HETATM   22  C13 UNL     1      28.556   1.991  53.733  1.00  0.00    -0.004 A 
HETATM   23  C14 UNL     1      28.996   0.814  54.500  1.00  0.00     0.175 A 
HETATM   24  N3  UNL     1      28.022  -0.215  54.640  1.00  0.00    -0.297 NA
ENDBRANCH  16  18
ENDBRANCH  13  14
ENDBRANCH   1  13
TORSDOF 5
ENDMDL
MODEL 7
REMARK VINA RESULT:      -7.3      4.892      5.561
REMARK  5 active torsions:
REMARK  status: ('A' for Active; 'I' for Inactive)
REMARK    1  A    between atoms: N1_1  and  C1_2 
REMARK    2  A    between atoms: C6_9  and  C7_10 
REMARK    3  A    between atoms: C7_10  and  C8_11 
REMARK    4  A    between atoms: C8_11  and  C9_12 
REMARK       I    between atoms: C9_12  and  N2_14 
REMARK    5  A    between atoms: N2_14  and  C10_15 
ROOT
HETATM    1  C7  UNL     1      23.946   4.329  52.772  1.00  0.00     0.050 C 
ENDROOT
BRANCH   1   2
HETATM    2  C6  UNL     1      23.789   4.752  51.357  1.00  0.00    -0.030 A 
HETATM    3  C1  UNL     1      23.986   6.033  50.871  1.00  0.00     0.035 A 
HETATM    4  C2  UNL     1      23.801   6.290  49.510  1.00  0.00     0.073 A 
HETATM    5  C3  UNL     1      23.430   5.329  48.619  1.00  0.00     0.140 A 
HETATM    6  F1  UNL     1      23.250   5.575  47.301  1.00  0.00    -0.204 F 
HETATM    7  C4  UNL     1      23.228   4.056  49.070  1.00  0.00     0.073 A 
HETATM    8 CL1  UNL     1      22.753   2.764  48.003  1.00  0.00    -0.081 Cl
HETATM    9  C5  UNL     1      23.409   3.799  50.407  1.00  0.00     0.036 A 
BRANCH   3  10
HETATM   10  N1  UNL     1      24.373   7.024  51.816  1.00  0.00    -0.399 N 
HETATM   11  H1  UNL     1      25.224   7.146  52.389  1.00  0.00     0.156 HD
HETATM   12  H2  UNL     1      23.531   7.669  51.808  1.00  0.00     0.156 HD
ENDBRANCH   3  10
ENDBRANCH   1   2
BRANCH   1  13
HETATM   13  C8  UNL     1      23.822   2.834  52.847  1.00  0.00     0.108 C 
BRANCH  13  14
HETATM   14  C9  UNL     1      25.091   2.150  53.038  1.00  0.00     0.221 C 
HETATM   15  O1  UNL     1      24.444   1.124  53.345  1.00  0.00    -0.273 OA
HETATM   16  N2  UNL     1      26.451   2.426  52.947  1.00  0.00    -0.336 N 
HETATM   17  H9  UNL     1      26.384   3.418  52.654  1.00  0.00     0.168 HD
BRANCH  16  18
HETATM   18  C10 UNL     1      27.524   1.567  53.191  1.00  0.00     0.103 C 
HETATM   19  C11 UNL     1      28.138   0.449  53.271  1.00  0.00    -0.004 A 
HETATM   20  C12 UNL     1      29.523   0.258  53.675  1.00  0.00     0.012 A 
HETATM   21  C15 UNL     1      27.331  -0.708  52.914  1.00  0.00     0.123 A 
HETATM   22  C13 UNL     1      29.994  -0.956  53.702  1.00  0.00    -0.004 A 
HETATM   23  C14 UNL     1      29.204  -2.147  53.347  1.00  0.00     0.175 A 
HETATM   24  N3  UNL     1      27.858  -1.886  52.961  1.00  0.00    -0.297 NA
ENDBRANCH  16  18
ENDBRANCH  13  14
ENDBRANCH   1  13
TORSDOF 5
ENDMDL
MODEL 8
REMARK VINA RESULT:      -7.2      4.367      8.426
REMARK  5 active torsions:
REMARK  status: ('A' for Active; 'I' for Inactive)
REMARK    1  A    between atoms: N1_1  and  C1_2 
REMARK    2  A    between atoms: C6_9  and  C7_10 
REMARK    3  A    between atoms: C7_10  and  C8_11 
REMARK    4  A    between atoms: C8_11  and  C9_12 
REMARK       I    between atoms: C9_12  and  N2_14 
REMARK    5  A    between atoms: N2_14  and  C10_15 
ROOT
HETATM    1  C7  UNL     1      23.613   0.824  53.020  1.00  0.00     0.050 C 
ENDROOT
BRANCH   1   2
HETATM    2  C6  UNL     1      25.085   0.638  53.091  1.00  0.00    -0.030 A 
HETATM    3  C1  UNL     1      26.014   1.638  53.322  1.00  0.00     0.035 A 
HETATM    4  C2  UNL     1      27.375   1.317  53.363  1.00  0.00     0.073 A 
HETATM    5  C3  UNL     1      27.843   0.051  53.182  1.00  0.00     0.140 A 
HETATM    6  F1  UNL     1      29.159  -0.261  53.221  1.00  0.00    -0.204 F 
HETATM    7  C4  UNL     1      26.949  -0.955  52.951  1.00  0.00     0.073 A 
HETATM    8 CL1  UNL     1      27.457  -2.603  52.710  1.00  0.00    -0.081 Cl
HETATM    9  C5  UNL     1      25.611  -0.645  52.911  1.00  0.00     0.036 A 
BRANCH   3  10
HETATM   10  N1  UNL     1      25.507   2.953  53.509  1.00  0.00    -0.399 N 
HETATM   11  H1  UNL     1      25.959   3.845  53.769  1.00  0.00     0.156 HD
HETATM   12  H2  UNL     1      24.475   2.816  53.306  1.00  0.00     0.156 HD
ENDBRANCH   3  10
ENDBRANCH   1   2
BRANCH   1  13
HETATM   13  C8  UNL     1      22.948  -0.264  53.812  1.00  0.00     0.108 C 
BRANCH  13  14
HETATM   14  C9  UNL     1      21.548  -0.462  53.475  1.00  0.00     0.221 C 
HETATM   15  O1  UNL     1      21.814  -0.069  52.317  1.00  0.00    -0.273 OA
HETATM   16  N2  UNL     1      20.376  -0.889  54.090  1.00  0.00    -0.336 N 
HETATM   17  H9  UNL     1      20.762  -1.083  55.033  1.00  0.00     0.168 HD
BRANCH  16  18
HETATM   18  C10 UNL     1      19.100  -0.997  53.534  1.00  0.00     0.103 C 
HETATM   19  C11 UNL     1      17.997  -1.566  53.229  1.00  0.00    -0.004 A 
HETATM   20  C12 UNL     1      16.896  -0.963  52.493  1.00  0.00     0.012 A 
HETATM   21  C15 UNL     1      17.883  -2.943  53.684  1.00  0.00     0.123 A 
HETATM   22  C13 UNL     1      15.837  -1.687  52.266  1.00  0.00    -0.004 A 
HETATM   23  C14 UNL     1      15.692  -3.083  52.712  1.00  0.00     0.175 A 
HETATM   24  N3  UNL     1      16.807  -3.608  53.426  1.00  0.00    -0.297 NA
ENDBRANCH  16  18
ENDBRANCH  13  14
ENDBRANCH   1  13
TORSDOF 5
ENDMDL
MODEL 9
REMARK VINA RESULT:      -7.2      7.102      9.259
REMARK  5 active torsions:
REMARK  status: ('A' for Active; 'I' for Inactive)
REMARK    1  A    between atoms: N1_1  and  C1_2 
REMARK    2  A    between atoms: C6_9  and  C7_10 
REMARK    3  A    between atoms: C7_10  and  C8_11 
REMARK    4  A    between atoms: C8_11  and  C9_12 
REMARK       I    between atoms: C9_12  and  N2_14 
REMARK    5  A    between atoms: N2_14  and  C10_15 
ROOT
HETATM    1  C7  UNL     1      26.886   2.494  52.370  1.00  0.00     0.050 C 
ENDROOT
BRANCH   1   2
HETATM    2  C6  UNL     1      27.654   1.287  52.766  1.00  0.00    -0.030 A 
HETATM    3  C1  UNL     1      28.869   1.285  53.429  1.00  0.00     0.035 A 
HETATM    4  C2  UNL     1      29.482   0.067  53.741  1.00  0.00     0.073 A 
HETATM    5  C3  UNL     1      28.938  -1.139  53.419  1.00  0.00     0.140 A 
HETATM    6  F1  UNL     1      29.530  -2.318  53.719  1.00  0.00    -0.204 F 
HETATM    7  C4  UNL     1      27.740  -1.167  52.764  1.00  0.00     0.073 A 
HETATM    8 CL1  UNL     1      26.971  -2.663  52.314  1.00  0.00    -0.081 Cl
HETATM    9  C5  UNL     1      27.134   0.027  52.456  1.00  0.00     0.036 A 
BRANCH   3  10
HETATM   10  N1  UNL     1      29.422   2.554  53.757  1.00  0.00    -0.399 N 
HETATM   11  H1  UNL     1      30.356   2.968  53.606  1.00  0.00     0.156 HD
HETATM   12  H2  UNL     1      28.601   3.029  54.232  1.00  0.00     0.156 HD
ENDBRANCH   3  10
ENDBRANCH   1   2
BRANCH   1  13
HETATM   13  C8  UNL     1      26.391   2.314  50.964  1.00  0.00     0.108 C 
BRANCH  13  14
HETATM   14  C9  UNL     1      26.283   3.557  50.217  1.00  0.00     0.221 C 
HETATM   15  O1  UNL     1      25.051   3.534  50.437  1.00  0.00    -0.273 OA
HETATM   16  N2  UNL     1      27.111   4.441  49.535  1.00  0.00    -0.336 N 
HETATM   17  H9  UNL     1      28.013   3.952  49.687  1.00  0.00     0.168 HD
BRANCH  16  18
HETATM   18  C10 UNL     1      26.758   5.617  48.871  1.00  0.00     0.103 C 
HETATM   19  C11 UNL     1      26.363   6.827  48.756  1.00  0.00    -0.004 A 
HETATM   20  C12 UNL     1      26.188   7.558  47.511  1.00  0.00     0.012 A 
HETATM   21  C15 UNL     1      26.075   7.489  50.020  1.00  0.00     0.123 A 
HETATM   22  C13 UNL     1      25.776   8.792  47.573  1.00  0.00    -0.004 A 
HETATM   23  C14 UNL     1      25.476   9.489  48.835  1.00  0.00     0.175 A 
HETATM   24  N3  UNL     1      25.669   8.715  50.014  1.00  0.00    -0.297 NA
ENDBRANCH  16  18
ENDBRANCH  13  14
ENDBRANCH   1  13
TORSDOF 5
ENDMDL
