MODEL 1
REMARK VINA RESULT:      -8.0      0.000      0.000
REMARK  7 active torsions:
REMARK  status: ('A' for Active; 'I' for Inactive)
REMARK    1  A    between atoms: C4_5  and  N1_6 
REMARK    2  A    between atoms: N1_6  and  C5_7 
REMARK    3  A    between atoms: C10_14  and  O1_15 
REMARK    4  A    between atoms: O1_15  and  C11_16 
REMARK    5  A    between atoms: C11_16  and  C12_17 
REMARK    6  A    between atoms: C12_17  and  C13_18 
REMARK    7  A    between atoms: C13_18  and  N4_19 
ROOT
HETATM    1  C5  UNL     1      26.995   1.775  52.082  1.00  0.00     0.138 A 
HETATM    2  N2  UNL     1      28.111   2.439  52.409  1.00  0.00    -0.224 NA
HETATM    3  C6  UNL     1      28.621   2.325  53.647  1.00  0.00     0.235 A 
HETATM    4  N3  UNL     1      28.027   1.554  54.564  1.00  0.00    -0.241 NA
HETATM    5  C7  UNL     1      26.901   0.854  54.310  1.00  0.00     0.071 A 
HETATM    6  C8  UNL     1      26.407   0.993  53.038  1.00  0.00     0.023 A 
HETATM    7  C9  UNL     1      25.180   0.185  52.884  1.00  0.00     0.109 A 
HETATM    8  C10 UNL     1      25.014  -0.447  54.216  1.00  0.00     0.053 A 
HETATM    9  C18 UNL     1      26.009  -0.055  55.031  1.00  0.00     0.065 A 
ENDROOT
BRANCH   1  10
HETATM   10  N1  UNL     1      26.608   2.013  50.746  1.00  0.00    -0.340 N 
HETATM   11  H3  UNL     1      26.549   1.208  50.075  1.00  0.00     0.167 HD
BRANCH  10  12
HETATM   12  C4  UNL     1      26.290   3.295  50.240  1.00  0.00     0.035 A 
HETATM   13  C3  UNL     1      26.904   4.087  49.299  1.00  0.00     0.032 A 
HETATM   14  C2  UNL     1      26.411   5.332  48.981  1.00  0.00     0.046 A 
HETATM   15  C1  UNL     1      25.283   5.852  49.581  1.00  0.00     0.138 A 
HETATM   16  F1  UNL     1      24.857   7.079  49.220  1.00  0.00    -0.204 F 
HETATM   17  C20 UNL     1      24.649   5.061  50.536  1.00  0.00     0.074 A 
HETATM   18  C19 UNL     1      25.140   3.794  50.868  1.00  0.00     0.056 A 
HETATM   19 CL1  UNL     1      23.231   5.769  51.263  1.00  0.00    -0.081 Cl
ENDBRANCH  10  12
ENDBRANCH   1  10
BRANCH   8  20
HETATM   20  O1  UNL     1      24.155  -1.304  54.858  1.00  0.00    -0.355 OA
BRANCH  20  21
HETATM   21  C11 UNL     1      22.812  -1.099  55.141  1.00  0.00     0.177 C 
BRANCH  21  22
HETATM   22  C12 UNL     1      21.960  -1.034  53.885  1.00  0.00     0.057 C 
BRANCH  22  23
HETATM   23  C13 UNL     1      21.484   0.359  53.597  1.00  0.00     0.274 C 
BRANCH  23  24
HETATM   24  N4  UNL     1      20.583   0.488  52.502  1.00  0.00     0.092 N 
HETATM   25  C14 UNL     1      19.942   1.758  52.405  1.00  0.00     0.298 C 
HETATM   26  C15 UNL     1      20.993   2.836  52.252  1.00  0.00     0.198 C 
HETATM   27  O2  UNL     1      21.764   2.625  51.146  1.00  0.00    -0.388 OA
HETATM   28  C16 UNL     1      22.300   1.371  50.990  1.00  0.00     0.198 C 
HETATM   29  C17 UNL     1      21.317   0.261  51.273  1.00  0.00     0.298 C 
ENDBRANCH  23  24
ENDBRANCH  22  23
ENDBRANCH  21  22
ENDBRANCH  20  21
ENDBRANCH   8  20
TORSDOF 7
ENDMDL
MODEL 2
REMARK VINA RESULT:      -7.8      4.596      8.353
REMARK  7 active torsions:
REMARK  status: ('A' for Active; 'I' for Inactive)
REMARK    1  A    between atoms: C4_5  and  N1_6 
REMARK    2  A    between atoms: N1_6  and  C5_7 
REMARK    3  A    between atoms: C10_14  and  O1_15 
REMARK    4  A    between atoms: O1_15  and  C11_16 
REMARK    5  A    between atoms: C11_16  and  C12_17 
REMARK    6  A    between atoms: C12_17  and  C13_18 
REMARK    7  A    between atoms: C13_18  and  N4_19 
ROOT
HETATM    1  C5  UNL     1      24.948   2.481  51.629  1.00  0.00     0.138 A 
HETATM    2  N2  UNL     1      23.900   2.787  52.405  1.00  0.00    -0.224 NA
HETATM    3  C6  UNL     1      23.347   4.010  52.333  1.00  0.00     0.235 A 
HETATM    4  N3  UNL     1      23.830   4.932  51.494  1.00  0.00    -0.241 NA
HETATM    5  C7  UNL     1      24.882   4.699  50.681  1.00  0.00     0.071 A 
HETATM    6  C8  UNL     1      25.423   3.442  50.780  1.00  0.00     0.023 A 
HETATM    7  C9  UNL     1      26.561   3.309  49.847  1.00  0.00     0.109 A 
HETATM    8  C10 UNL     1      26.623   4.637  49.187  1.00  0.00     0.053 A 
HETATM    9  C18 UNL     1      25.653   5.431  49.675  1.00  0.00     0.065 A 
ENDROOT
BRANCH   1  10
HETATM   10  N1  UNL     1      25.394   1.158  51.838  1.00  0.00    -0.340 N 
HETATM   11  H3  UNL     1      24.798   0.357  51.517  1.00  0.00     0.167 HD
BRANCH  10  12
HETATM   12  C4  UNL     1      26.620   0.837  52.467  1.00  0.00     0.035 A 
HETATM   13  C3  UNL     1      27.577   1.623  53.065  1.00  0.00     0.032 A 
HETATM   14  C2  UNL     1      28.719   1.075  53.601  1.00  0.00     0.046 A 
HETATM   15  C1  UNL     1      28.968  -0.282  53.570  1.00  0.00     0.138 A 
HETATM   16  F1  UNL     1      30.110  -0.750  54.115  1.00  0.00    -0.204 F 
HETATM   17  C20 UNL     1      28.008  -1.091  52.969  1.00  0.00     0.074 A 
HETATM   18  C19 UNL     1      26.843  -0.546  52.419  1.00  0.00     0.056 A 
HETATM   19 CL1  UNL     1      28.376  -2.795  52.956  1.00  0.00    -0.081 Cl
ENDBRANCH  10  12
ENDBRANCH   1  10
BRANCH   8  20
HETATM   20  O1  UNL     1      27.368   5.291  48.237  1.00  0.00    -0.355 OA
BRANCH  20  21
HETATM   21  C11 UNL     1      28.692   5.696  48.334  1.00  0.00     0.177 C 
BRANCH  21  22
HETATM   22  C12 UNL     1      28.987   6.919  47.483  1.00  0.00     0.057 C 
BRANCH  22  23
HETATM   23  C13 UNL     1      28.156   8.100  47.887  1.00  0.00     0.274 C 
BRANCH  23  24
HETATM   24  N4  UNL     1      28.318   8.537  49.233  1.00  0.00     0.092 N 
HETATM   25  C14 UNL     1      29.059   9.746  49.382  1.00  0.00     0.298 C 
HETATM   26  C15 UNL     1      28.357  10.856  48.630  1.00  0.00     0.198 C 
HETATM   27  O2  UNL     1      27.084  11.038  49.088  1.00  0.00    -0.388 OA
HETATM   28  C16 UNL     1      26.294   9.920  49.193  1.00  0.00     0.198 C 
HETATM   29  C17 UNL     1      27.005   8.742  49.810  1.00  0.00     0.298 C 
ENDBRANCH  23  24
ENDBRANCH  22  23
ENDBRANCH  21  22
ENDBRANCH  20  21
ENDBRANCH   8  20
TORSDOF 7
ENDMDL
MODEL 3
REMARK VINA RESULT:      -7.6      3.236      6.323
REMARK  7 active torsions:
REMARK  status: ('A' for Active; 'I' for Inactive)
REMARK    1  A    between atoms: C4_5  and  N1_6 
REMARK    2  A    between atoms: N1_6  and  C5_7 
REMARK    3  A    between atoms: C10_14  and  O1_15 
REMARK    4  A    between atoms: O1_15  and  C11_16 
REMARK    5  A    between atoms: C11_16  and  C12_17 
REMARK    6  A    between atoms: C12_17  and  C13_18 
REMARK    7  A    between atoms: C13_18  and  N4_19 
ROOT
HETATM    1  C5  UNL     1      23.588  -0.322  53.428  1.00  0.00     0.138 A 
HETATM    2  N2  UNL     1      23.126  -0.989  54.493  1.00  0.00    -0.224 NA
HETATM    3  C6  UNL     1      21.876  -0.768  54.933  1.00  0.00     0.235 A 
HETATM    4  N3  UNL     1      21.081   0.116  54.320  1.00  0.00    -0.241 NA
HETATM    5  C7  UNL     1      21.473   0.826  53.242  1.00  0.00     0.071 A 
HETATM    6  C8  UNL     1      22.754   0.576  52.819  1.00  0.00     0.023 A 
HETATM    7  C9  UNL     1      23.067   1.408  51.639  1.00  0.00     0.109 A 
HETATM    8  C10 UNL     1      21.816   2.176  51.418  1.00  0.00     0.053 A 
HETATM    9  C18 UNL     1      20.905   1.834  52.347  1.00  0.00     0.065 A 
ENDROOT
BRANCH   1  10
HETATM   10  N1  UNL     1      24.915  -0.683  53.110  1.00  0.00    -0.340 N 
HETATM   11  H3  UNL     1      25.099  -1.599  52.631  1.00  0.00     0.167 HD
BRANCH  10  12
HETATM   12  C4  UNL     1      26.037   0.126  53.404  1.00  0.00     0.035 A 
HETATM   13  C3  UNL     1      26.157   1.476  53.636  1.00  0.00     0.032 A 
HETATM   14  C2  UNL     1      27.381   2.052  53.887  1.00  0.00     0.046 A 
HETATM   15  C1  UNL     1      28.547   1.315  53.919  1.00  0.00     0.138 A 
HETATM   16  F1  UNL     1      29.713   1.946  54.170  1.00  0.00    -0.204 F 
HETATM   17  C20 UNL     1      28.442  -0.053  53.687  1.00  0.00     0.074 A 
HETATM   18  C19 UNL     1      27.203  -0.651  53.430  1.00  0.00     0.056 A 
HETATM   19 CL1  UNL     1      29.946  -0.933  53.736  1.00  0.00    -0.081 Cl
ENDBRANCH  10  12
ENDBRANCH   1  10
BRANCH   8  20
HETATM   20  O1  UNL     1      21.316   3.121  50.557  1.00  0.00    -0.355 OA
BRANCH  20  21
HETATM   21  C11 UNL     1      21.683   4.457  50.466  1.00  0.00     0.177 C 
BRANCH  21  22
HETATM   22  C12 UNL     1      22.483   4.753  49.210  1.00  0.00     0.057 C 
BRANCH  22  23
HETATM   23  C13 UNL     1      23.849   4.134  49.252  1.00  0.00     0.274 C 
BRANCH  23  24
HETATM   24  N4  UNL     1      24.684   4.557  50.326  1.00  0.00     0.092 N 
HETATM   25  C14 UNL     1      25.789   3.697  50.596  1.00  0.00     0.298 C 
HETATM   26  C15 UNL     1      26.658   3.601  49.361  1.00  0.00     0.198 C 
HETATM   27  O2  UNL     1      27.115   4.828  48.977  1.00  0.00    -0.388 OA
HETATM   28  C16 UNL     1      26.184   5.831  48.863  1.00  0.00     0.198 C 
HETATM   29  C17 UNL     1      25.206   5.872  50.011  1.00  0.00     0.298 C 
ENDBRANCH  23  24
ENDBRANCH  22  23
ENDBRANCH  21  22
ENDBRANCH  20  21
ENDBRANCH   8  20
TORSDOF 7
ENDMDL
MODEL 4
REMARK VINA RESULT:      -7.5      3.413      5.623
REMARK  7 active torsions:
REMARK  status: ('A' for Active; 'I' for Inactive)
REMARK    1  A    between atoms: C4_5  and  N1_6 
REMARK    2  A    between atoms: N1_6  and  C5_7 
REMARK    3  A    between atoms: C10_14  and  O1_15 
REMARK    4  A    between atoms: O1_15  and  C11_16 
REMARK    5  A    between atoms: C11_16  and  C12_17 
REMARK    6  A    between atoms: C12_17  and  C13_18 
REMARK    7  A    between atoms: C13_18  and  N4_19 
ROOT
HETATM    1  C5  UNL     1      23.934  -0.409  53.551  1.00  0.00     0.138 A 
HETATM    2  N2  UNL     1      24.222  -1.116  54.652  1.00  0.00    -0.224 NA
HETATM    3  C6  UNL     1      23.250  -1.415  55.530  1.00  0.00     0.235 A 
HETATM    4  N3  UNL     1      21.991  -1.015  55.321  1.00  0.00    -0.241 NA
HETATM    5  C7  UNL     1      21.623  -0.301  54.236  1.00  0.00     0.071 A 
HETATM    6  C8  UNL     1      22.639  -0.013  53.361  1.00  0.00     0.023 A 
HETATM    7  C9  UNL     1      22.115   0.768  52.221  1.00  0.00     0.109 A 
HETATM    8  C10 UNL     1      20.670   0.902  52.531  1.00  0.00     0.053 A 
HETATM    9  C18 UNL     1      20.396   0.284  53.693  1.00  0.00     0.065 A 
ENDROOT
BRANCH   1  10
HETATM   10  N1  UNL     1      25.074  -0.192  52.747  1.00  0.00    -0.340 N 
HETATM   11  H3  UNL     1      25.104  -0.591  51.777  1.00  0.00     0.167 HD
BRANCH  10  12
HETATM   12  C4  UNL     1      26.204   0.544  53.176  1.00  0.00     0.035 A 
HETATM   13  C3  UNL     1      26.352   1.858  53.554  1.00  0.00     0.032 A 
HETATM   14  C2  UNL     1      27.578   2.362  53.918  1.00  0.00     0.046 A 
HETATM   15  C1  UNL     1      28.719   1.587  53.926  1.00  0.00     0.138 A 
HETATM   16  F1  UNL     1      29.889   2.149  54.295  1.00  0.00    -0.204 F 
HETATM   17  C20 UNL     1      28.586   0.254  53.547  1.00  0.00     0.074 A 
HETATM   18  C19 UNL     1      27.344  -0.271  53.174  1.00  0.00     0.056 A 
HETATM   19 CL1  UNL     1      30.060  -0.676  53.573  1.00  0.00    -0.081 Cl
ENDBRANCH  10  12
ENDBRANCH   1  10
BRANCH   8  20
HETATM   20  O1  UNL     1      19.540   1.464  51.989  1.00  0.00    -0.355 OA
BRANCH  20  21
HETATM   21  C11 UNL     1      19.472   2.465  51.030  1.00  0.00     0.177 C 
BRANCH  21  22
HETATM   22  C12 UNL     1      19.890   3.819  51.576  1.00  0.00     0.057 C 
BRANCH  22  23
HETATM   23  C13 UNL     1      21.204   4.273  51.012  1.00  0.00     0.274 C 
BRANCH  23  24
HETATM   24  N4  UNL     1      21.979   5.117  51.858  1.00  0.00     0.092 N 
HETATM   25  C14 UNL     1      23.095   4.478  52.474  1.00  0.00     0.298 C 
HETATM   26  C15 UNL     1      24.019   3.946  51.401  1.00  0.00     0.198 C 
HETATM   27  O2  UNL     1      24.457   4.946  50.581  1.00  0.00    -0.388 OA
HETATM   28  C16 UNL     1      23.504   5.784  50.057  1.00  0.00     0.198 C 
HETATM   29  C17 UNL     1      22.476   6.226  51.069  1.00  0.00     0.298 C 
ENDBRANCH  23  24
ENDBRANCH  22  23
ENDBRANCH  21  22
ENDBRANCH  20  21
ENDBRANCH   8  20
TORSDOF 7
ENDMDL
MODEL 5
REMARK VINA RESULT:      -7.5      3.713      5.675
REMARK  7 active torsions:
REMARK  status: ('A' for Active; 'I' for Inactive)
REMARK    1  A    between atoms: C4_5  and  N1_6 
REMARK    2  A    between atoms: N1_6  and  C5_7 
REMARK    3  A    between atoms: C10_14  and  O1_15 
REMARK    4  A    between atoms: O1_15  and  C11_16 
REMARK    5  A    between atoms: C11_16  and  C12_17 
REMARK    6  A    between atoms: C12_17  and  C13_18 
REMARK    7  A    between atoms: C13_18  and  N4_19 
ROOT
HETATM    1  C5  UNL     1      24.049  -0.333  53.602  1.00  0.00     0.138 A 
HETATM    2  N2  UNL     1      24.469  -0.892  54.743  1.00  0.00    -0.224 NA
HETATM    3  C6  UNL     1      23.577  -1.416  55.602  1.00  0.00     0.235 A 
HETATM    4  N3  UNL     1      22.268  -1.385  55.332  1.00  0.00    -0.241 NA
HETATM    5  C7  UNL     1      21.767  -0.840  54.204  1.00  0.00     0.071 A 
HETATM    6  C8  UNL     1      22.704  -0.314  53.350  1.00  0.00     0.023 A 
HETATM    7  C9  UNL     1      22.038   0.251  52.158  1.00  0.00     0.109 A 
HETATM    8  C10 UNL     1      20.598  -0.006  52.413  1.00  0.00     0.053 A 
HETATM    9  C18 UNL     1      20.453  -0.633  53.594  1.00  0.00     0.065 A 
ENDROOT
BRANCH   1  10
HETATM   10  N1  UNL     1      25.120   0.161  52.826  1.00  0.00    -0.340 N 
HETATM   11  H3  UNL     1      24.925   0.846  52.056  1.00  0.00     0.167 HD
BRANCH  10  12
HETATM   12  C4  UNL     1      26.468  -0.220  53.024  1.00  0.00     0.035 A 
HETATM   13  C3  UNL     1      27.132  -1.399  52.784  1.00  0.00     0.032 A 
HETATM   14  C2  UNL     1      28.467  -1.542  53.083  1.00  0.00     0.046 A 
HETATM   15  C1  UNL     1      29.210  -0.519  53.634  1.00  0.00     0.138 A 
HETATM   16  F1  UNL     1      30.515  -0.729  53.902  1.00  0.00    -0.204 F 
HETATM   17  C20 UNL     1      28.553   0.683  53.883  1.00  0.00     0.074 A 
HETATM   18  C19 UNL     1      27.195   0.840  53.584  1.00  0.00     0.056 A 
HETATM   19 CL1  UNL     1      29.539   1.938  54.583  1.00  0.00    -0.081 Cl
ENDBRANCH  10  12
ENDBRANCH   1  10
BRANCH   8  20
HETATM   20  O1  UNL     1      19.384   0.203  51.810  1.00  0.00    -0.355 OA
BRANCH  20  21
HETATM   21  C11 UNL     1      18.921   1.376  51.228  1.00  0.00     0.177 C 
BRANCH  21  22
HETATM   22  C12 UNL     1      19.590   1.662  49.894  1.00  0.00     0.057 C 
BRANCH  22  23
HETATM   23  C13 UNL     1      20.503   2.850  49.964  1.00  0.00     0.274 C 
BRANCH  23  24
HETATM   24  N4  UNL     1      20.244   3.764  51.026  1.00  0.00     0.092 N 
HETATM   25  C14 UNL     1      21.283   3.857  51.998  1.00  0.00     0.298 C 
HETATM   26  C15 UNL     1      22.560   4.304  51.320  1.00  0.00     0.198 C 
HETATM   27  O2  UNL     1      22.400   5.511  50.703  1.00  0.00    -0.388 OA
HETATM   28  C16 UNL     1      21.314   5.646  49.874  1.00  0.00     0.198 C 
HETATM   29  C17 UNL     1      20.042   5.082  50.457  1.00  0.00     0.298 C 
ENDBRANCH  23  24
ENDBRANCH  22  23
ENDBRANCH  21  22
ENDBRANCH  20  21
ENDBRANCH   8  20
TORSDOF 7
ENDMDL
MODEL 6
REMARK VINA RESULT:      -7.5      5.211      9.081
REMARK  7 active torsions:
REMARK  status: ('A' for Active; 'I' for Inactive)
REMARK    1  A    between atoms: C4_5  and  N1_6 
REMARK    2  A    between atoms: N1_6  and  C5_7 
REMARK    3  A    between atoms: C10_14  and  O1_15 
REMARK    4  A    between atoms: O1_15  and  C11_16 
REMARK    5  A    between atoms: C11_16  and  C12_17 
REMARK    6  A    between atoms: C12_17  and  C13_18 
REMARK    7  A    between atoms: C13_18  and  N4_19 
ROOT
HETATM    1  C5  UNL     1      24.880   2.330  51.692  1.00  0.00     0.138 A 
HETATM    2  N2  UNL     1      23.821   2.630  52.453  1.00  0.00    -0.224 NA
HETATM    3  C6  UNL     1      23.253   3.845  52.365  1.00  0.00     0.235 A 
HETATM    4  N3  UNL     1      23.734   4.766  51.522  1.00  0.00    -0.241 NA
HETATM    5  C7  UNL     1      24.797   4.539  50.722  1.00  0.00     0.071 A 
HETATM    6  C8  UNL     1      25.352   3.290  50.838  1.00  0.00     0.023 A 
HETATM    7  C9  UNL     1      26.502   3.162  49.918  1.00  0.00     0.109 A 
HETATM    8  C10 UNL     1      26.554   4.485  49.247  1.00  0.00     0.053 A 
HETATM    9  C18 UNL     1      25.569   5.271  49.717  1.00  0.00     0.065 A 
ENDROOT
BRANCH   1  10
HETATM   10  N1  UNL     1      25.341   1.015  51.917  1.00  0.00    -0.340 N 
HETATM   11  H3  UNL     1      24.749   0.203  51.614  1.00  0.00     0.167 HD
BRANCH  10  12
HETATM   12  C4  UNL     1      26.575   0.715  52.541  1.00  0.00     0.035 A 
HETATM   13  C3  UNL     1      27.506   1.514  53.161  1.00  0.00     0.032 A 
HETATM   14  C2  UNL     1      28.663   0.988  53.685  1.00  0.00     0.046 A 
HETATM   15  C1  UNL     1      28.953  -0.360  53.621  1.00  0.00     0.138 A 
HETATM   16  F1  UNL     1      30.108  -0.807  54.157  1.00  0.00    -0.204 F 
HETATM   17  C20 UNL     1      28.020  -1.182  52.997  1.00  0.00     0.074 A 
HETATM   18  C19 UNL     1      26.839  -0.659  52.459  1.00  0.00     0.056 A 
HETATM   19 CL1  UNL     1      28.439  -2.873  52.942  1.00  0.00    -0.081 Cl
ENDBRANCH  10  12
ENDBRANCH   1  10
BRANCH   8  20
HETATM   20  O1  UNL     1      27.300   5.139  48.299  1.00  0.00    -0.355 OA
BRANCH  20  21
HETATM   21  C11 UNL     1      28.640   5.494  48.376  1.00  0.00     0.177 C 
BRANCH  21  22
HETATM   22  C12 UNL     1      28.937   6.795  47.651  1.00  0.00     0.057 C 
BRANCH  22  23
HETATM   23  C13 UNL     1      30.400   7.125  47.660  1.00  0.00     0.274 C 
BRANCH  23  24
HETATM   24  N4  UNL     1      30.863   7.845  48.798  1.00  0.00     0.092 N 
HETATM   25  C14 UNL     1      31.795   7.138  49.613  1.00  0.00     0.298 C 
HETATM   26  C15 UNL     1      33.009   6.780  48.783  1.00  0.00     0.198 C 
HETATM   27  O2  UNL     1      33.604   7.894  48.266  1.00  0.00    -0.388 OA
HETATM   28  C16 UNL     1      32.791   8.788  47.613  1.00  0.00     0.198 C 
HETATM   29  C17 UNL     1      31.500   9.064  48.342  1.00  0.00     0.298 C 
ENDBRANCH  23  24
ENDBRANCH  22  23
ENDBRANCH  21  22
ENDBRANCH  20  21
ENDBRANCH   8  20
TORSDOF 7
ENDMDL
MODEL 7
REMARK VINA RESULT:      -7.4      5.403      9.483
REMARK  7 active torsions:
REMARK  status: ('A' for Active; 'I' for Inactive)
REMARK    1  A    between atoms: C4_5  and  N1_6 
REMARK    2  A    between atoms: N1_6  and  C5_7 
REMARK    3  A    between atoms: C10_14  and  O1_15 
REMARK    4  A    between atoms: O1_15  and  C11_16 
REMARK    5  A    between atoms: C11_16  and  C12_17 
REMARK    6  A    between atoms: C12_17  and  C13_18 
REMARK    7  A    between atoms: C13_18  and  N4_19 
ROOT
HETATM    1  C5  UNL     1      25.528   4.547  49.882  1.00  0.00     0.138 A 
HETATM    2  N2  UNL     1      24.496   5.189  50.444  1.00  0.00    -0.224 NA
HETATM    3  C6  UNL     1      24.440   6.531  50.406  1.00  0.00     0.235 A 
HETATM    4  N3  UNL     1      25.405   7.241  49.811  1.00  0.00    -0.241 NA
HETATM    5  C7  UNL     1      26.475   6.666  49.222  1.00  0.00     0.071 A 
HETATM    6  C8  UNL     1      26.502   5.296  49.280  1.00  0.00     0.023 A 
HETATM    7  C9  UNL     1      27.714   4.787  48.607  1.00  0.00     0.109 A 
HETATM    8  C10 UNL     1      28.396   6.022  48.145  1.00  0.00     0.053 A 
HETATM    9  C18 UNL     1      27.675   7.099  48.505  1.00  0.00     0.065 A 
ENDROOT
BRANCH   1  10
HETATM   10  N1  UNL     1      25.419   3.147  50.018  1.00  0.00    -0.340 N 
HETATM   11  H3  UNL     1      25.243   2.559  49.166  1.00  0.00     0.167 HD
BRANCH  10  12
HETATM   12  C4  UNL     1      25.532   2.470  51.255  1.00  0.00     0.035 A 
HETATM   13  C3  UNL     1      24.624   1.743  51.988  1.00  0.00     0.032 A 
HETATM   14  C2  UNL     1      24.966   1.184  53.198  1.00  0.00     0.046 A 
HETATM   15  C1  UNL     1      26.228   1.319  53.739  1.00  0.00     0.138 A 
HETATM   16  F1  UNL     1      26.493   0.744  54.930  1.00  0.00    -0.204 F 
HETATM   17  C20 UNL     1      27.159   2.051  53.009  1.00  0.00     0.074 A 
HETATM   18  C19 UNL     1      26.824   2.625  51.778  1.00  0.00     0.056 A 
HETATM   19 CL1  UNL     1      28.734   2.191  53.742  1.00  0.00    -0.081 Cl
ENDBRANCH  10  12
ENDBRANCH   1  10
BRANCH   8  20
HETATM   20  O1  UNL     1      29.531   6.389  47.466  1.00  0.00    -0.355 OA
BRANCH  20  21
HETATM   21  C11 UNL     1      30.667   6.996  47.986  1.00  0.00     0.177 C 
BRANCH  21  22
HETATM   22  C12 UNL     1      31.356   6.134  49.029  1.00  0.00     0.057 C 
BRANCH  22  23
HETATM   23  C13 UNL     1      32.076   4.971  48.413  1.00  0.00     0.274 C 
BRANCH  23  24
HETATM   24  N4  UNL     1      32.814   5.260  47.229  1.00  0.00     0.092 N 
HETATM   25  C14 UNL     1      34.192   5.556  47.443  1.00  0.00     0.298 C 
HETATM   26  C15 UNL     1      34.858   4.372  48.111  1.00  0.00     0.198 C 
HETATM   27  O2  UNL     1      34.743   3.244  47.351  1.00  0.00    -0.388 OA
HETATM   28  C16 UNL     1      33.488   2.926  46.893  1.00  0.00     0.198 C 
HETATM   29  C17 UNL     1      32.733   4.113  46.347  1.00  0.00     0.298 C 
ENDBRANCH  23  24
ENDBRANCH  22  23
ENDBRANCH  21  22
ENDBRANCH  20  21
ENDBRANCH   8  20
TORSDOF 7
ENDMDL
MODEL 8
REMARK VINA RESULT:      -7.3      4.888      8.972
REMARK  7 active torsions:
REMARK  status: ('A' for Active; 'I' for Inactive)
REMARK    1  A    between atoms: C4_5  and  N1_6 
REMARK    2  A    between atoms: N1_6  and  C5_7 
REMARK    3  A    between atoms: C10_14  and  O1_15 
REMARK    4  A    between atoms: O1_15  and  C11_16 
REMARK    5  A    between atoms: C11_16  and  C12_17 
REMARK    6  A    between atoms: C12_17  and  C13_18 
REMARK    7  A    between atoms: C13_18  and  N4_19 
ROOT
HETATM    1  C5  UNL     1      24.511   3.297  51.225  1.00  0.00     0.138 A 
HETATM    2  N2  UNL     1      23.542   3.591  52.101  1.00  0.00    -0.224 NA
HETATM    3  C6  UNL     1      23.127   4.862  52.240  1.00  0.00     0.235 A 
HETATM    4  N3  UNL     1      23.671   5.844  51.513  1.00  0.00    -0.241 NA
HETATM    5  C7  UNL     1      24.650   5.627  50.610  1.00  0.00     0.071 A 
HETATM    6  C8  UNL     1      25.050   4.320  50.493  1.00  0.00     0.023 A 
HETATM    7  C9  UNL     1      26.121   4.209  49.481  1.00  0.00     0.109 A 
HETATM    8  C10 UNL     1      26.300   5.607  49.016  1.00  0.00     0.053 A 
HETATM    9  C18 UNL     1      25.450   6.416  49.673  1.00  0.00     0.065 A 
ENDROOT
BRANCH   1  10
HETATM   10  N1  UNL     1      24.815   1.919  51.213  1.00  0.00    -0.340 N 
HETATM   11  H3  UNL     1      24.484   1.325  50.413  1.00  0.00     0.167 HD
BRANCH  10  12
HETATM   12  C4  UNL     1      25.550   1.272  52.233  1.00  0.00     0.035 A 
HETATM   13  C3  UNL     1      25.311   0.121  52.946  1.00  0.00     0.032 A 
HETATM   14  C2  UNL     1      26.178  -0.308  53.923  1.00  0.00     0.046 A 
HETATM   15  C1  UNL     1      27.328   0.385  54.242  1.00  0.00     0.138 A 
HETATM   16  F1  UNL     1      28.133  -0.094  55.212  1.00  0.00    -0.204 F 
HETATM   17  C20 UNL     1      27.585   1.552  53.528  1.00  0.00     0.074 A 
HETATM   18  C19 UNL     1      26.710   1.999  52.532  1.00  0.00     0.056 A 
HETATM   19 CL1  UNL     1      29.049   2.388  53.974  1.00  0.00    -0.081 Cl
ENDBRANCH  10  12
ENDBRANCH   1  10
BRANCH   8  20
HETATM   20  O1  UNL     1      27.068   6.314  48.124  1.00  0.00    -0.355 OA
BRANCH  20  21
HETATM   21  C11 UNL     1      28.407   6.660  48.251  1.00  0.00     0.177 C 
BRANCH  21  22
HETATM   22  C12 UNL     1      29.328   5.457  48.137  1.00  0.00     0.057 C 
BRANCH  22  23
HETATM   23  C13 UNL     1      30.725   5.851  47.758  1.00  0.00     0.274 C 
BRANCH  23  24
HETATM   24  N4  UNL     1      31.753   5.395  48.631  1.00  0.00     0.092 N 
HETATM   25  C14 UNL     1      32.990   5.093  47.990  1.00  0.00     0.298 C 
HETATM   26  C15 UNL     1      33.506   6.335  47.296  1.00  0.00     0.198 C 
HETATM   27  O2  UNL     1      33.686   7.360  48.179  1.00  0.00    -0.388 OA
HETATM   28  C16 UNL     1      32.639   7.649  49.018  1.00  0.00     0.198 C 
HETATM   29  C17 UNL     1      32.001   6.423  49.623  1.00  0.00     0.298 C 
ENDBRANCH  23  24
ENDBRANCH  22  23
ENDBRANCH  21  22
ENDBRANCH  20  21
ENDBRANCH   8  20
TORSDOF 7
ENDMDL
MODEL 9
REMARK VINA RESULT:      -7.3      4.560      7.273
REMARK  7 active torsions:
REMARK  status: ('A' for Active; 'I' for Inactive)
REMARK    1  A    between atoms: C4_5  and  N1_6 
REMARK    2  A    between atoms: N1_6  and  C5_7 
REMARK    3  A    between atoms: C10_14  and  O1_15 
REMARK    4  A    between atoms: O1_15  and  C11_16 
REMARK    5  A    between atoms: C11_16  and  C12_17 
REMARK    6  A    between atoms: C12_17  and  C13_18 
REMARK    7  A    between atoms: C13_18  and  N4_19 
ROOT
HETATM    1  C5  UNL     1      27.892   7.043  48.179  1.00  0.00     0.138 A 
HETATM    2  N2  UNL     1      27.647   8.356  48.277  1.00  0.00    -0.224 NA
HETATM    3  C6  UNL     1      26.589   8.791  48.981  1.00  0.00     0.235 A 
HETATM    4  N3  UNL     1      25.770   7.927  49.590  1.00  0.00    -0.241 NA
HETATM    5  C7  UNL     1      25.950   6.590  49.539  1.00  0.00     0.071 A 
HETATM    6  C8  UNL     1      27.038   6.180  48.811  1.00  0.00     0.023 A 
HETATM    7  C9  UNL     1      27.129   4.706  48.828  1.00  0.00     0.109 A 
HETATM    8  C10 UNL     1      25.964   4.298  49.654  1.00  0.00     0.053 A 
HETATM    9  C18 UNL     1      25.291   5.390  50.057  1.00  0.00     0.065 A 
ENDROOT
BRANCH   1  10
HETATM   10  N1  UNL     1      29.040   6.773  47.406  1.00  0.00    -0.340 N 
HETATM   11  H3  UNL     1      28.949   6.672  46.365  1.00  0.00     0.167 HD
BRANCH  10  12
HETATM   12  C4  UNL     1      30.336   6.624  47.955  1.00  0.00     0.035 A 
HETATM   13  C3  UNL     1      31.144   7.496  48.645  1.00  0.00     0.032 A 
HETATM   14  C2  UNL     1      32.398   7.124  49.070  1.00  0.00     0.046 A 
HETATM   15  C1  UNL     1      32.912   5.867  48.831  1.00  0.00     0.138 A 
HETATM   16  F1  UNL     1      34.150   5.570  49.277  1.00  0.00    -0.204 F 
HETATM   17  C20 UNL     1      32.106   4.971  48.134  1.00  0.00     0.074 A 
HETATM   18  C19 UNL     1      30.829   5.338  47.696  1.00  0.00     0.056 A 
HETATM   19 CL1  UNL     1      32.807   3.399  47.859  1.00  0.00    -0.081 Cl
ENDBRANCH  10  12
ENDBRANCH   1  10
BRANCH   8  20
HETATM   20  O1  UNL     1      25.375   3.151  50.123  1.00  0.00    -0.355 OA
BRANCH  20  21
HETATM   21  C11 UNL     1      25.538   2.569  51.373  1.00  0.00     0.177 C 
BRANCH  21  22
HETATM   22  C12 UNL     1      26.437   1.345  51.329  1.00  0.00     0.057 C 
BRANCH  22  23
HETATM   23  C13 UNL     1      27.153   1.124  52.628  1.00  0.00     0.274 C 
BRANCH  23  24
HETATM   24  N4  UNL     1      26.690   0.026  53.408  1.00  0.00     0.092 N 
HETATM   25  C14 UNL     1      27.227  -1.240  53.031  1.00  0.00     0.298 C 
HETATM   26  C15 UNL     1      28.734  -1.200  53.160  1.00  0.00     0.198 C 
HETATM   27  O2  UNL     1      29.117  -0.901  54.435  1.00  0.00    -0.388 OA
HETATM   28  C16 UNL     1      28.530   0.194  55.020  1.00  0.00     0.198 C 
HETATM   29  C17 UNL     1      27.040   0.267  54.793  1.00  0.00     0.298 C 
ENDBRANCH  23  24
ENDBRANCH  22  23
ENDBRANCH  21  22
ENDBRANCH  20  21
ENDBRANCH   8  20
TORSDOF 7
ENDMDL
