MODEL 1
REMARK VINA RESULT:      -7.4      0.000      0.000
REMARK  6 active torsions:
REMARK  status: ('A' for Active; 'I' for Inactive)
REMARK    1  A    between atoms: O1_2  and  C2_3 
REMARK    2  A    between atoms: C2_3  and  C3_4 
REMARK    3  A    between atoms: C3_4  and  N1_5 
REMARK    4  A    between atoms: C10_14  and  C11_15 
REMARK    5  A    between atoms: C16_22  and  N4_23 
REMARK    6  A    between atoms: N4_23  and  C17_24 
ROOT
HETATM    1  C11 UNL     1      23.087   2.501  50.547  1.00  0.00     0.010 A 
HETATM    2  C12 UNL     1      22.386   2.073  49.453  1.00  0.00     0.130 A 
HETATM    3  N2  UNL     1      21.576   1.004  49.407  1.00  0.00    -0.271 NA
HETATM    4  C13 UNL     1      21.404   0.242  50.526  1.00  0.00     0.141 A 
HETATM    5  C14 UNL     1      22.075   0.604  51.671  1.00  0.00     0.089 A 
HETATM    6  C15 UNL     1      21.837  -0.248  52.810  1.00  0.00     0.103 C 
HETATM    7  N3  UNL     1      21.653  -0.917  53.733  1.00  0.00    -0.191 NA
HETATM    8  C16 UNL     1      22.899   1.707  51.680  1.00  0.00     0.066 A 
ENDROOT
BRANCH   8   9
HETATM    9  N4  UNL     1      23.531   1.902  52.960  1.00  0.00    -0.354 N 
HETATM   10  H21 UNL     1      23.148   2.275  53.859  1.00  0.00     0.166 HD
BRANCH   9  11
HETATM   11  C17 UNL     1      24.898   1.511  52.965  1.00  0.00     0.035 A 
HETATM   12  C18 UNL     1      25.336   0.279  52.465  1.00  0.00     0.029 A 
HETATM   13  C19 UNL     1      26.672  -0.090  52.462  1.00  0.00     0.005 A 
HETATM   14  C20 UNL     1      27.637   0.754  52.958  1.00  0.00     0.042 A 
HETATM   15  C21 UNL     1      27.273   1.986  53.466  1.00  0.00     0.118 A 
HETATM   16  F1  UNL     1      28.179   2.879  53.974  1.00  0.00    -0.206 F 
HETATM   17  C22 UNL     1      25.933   2.290  53.440  1.00  0.00     0.071 A 
ENDBRANCH   9  11
ENDBRANCH   8   9
BRANCH   1  18
HETATM   18  C10 UNL     1      23.923   3.656  50.711  1.00  0.00     0.023 C 
HETATM   19  C9  UNL     1      23.606   4.980  50.624  1.00  0.00    -0.008 C 
HETATM   20  C8  UNL     1      24.788   5.932  50.864  1.00  0.00     0.208 C 
HETATM   21  C23 UNL     1      22.198   5.245  50.415  1.00  0.00     0.349 C 
HETATM   22  O3  UNL     1      25.029   6.709  49.778  1.00  0.00    -0.363 OA
HETATM   23  C7  UNL     1      25.577   6.073  48.703  1.00  0.00     0.337 C 
HETATM   24  O2  UNL     1      25.652   6.985  47.596  1.00  0.00    -0.367 OA
HETATM   25  C6  UNL     1      24.243   7.359  47.595  1.00  0.00     0.172 C 
HETATM   26  C5  UNL     1      23.421   6.138  47.763  1.00  0.00     0.056 C 
HETATM   27  C4  UNL     1      22.066   6.569  48.371  1.00  0.00     0.277 C 
HETATM   28  N1  UNL     1      21.575   5.446  49.140  1.00  0.00     0.113 N 
HETATM   29 CL1  UNL     1      21.685   6.657  51.463  1.00  0.00    -0.087 Cl
BRANCH  28  30
HETATM   30  C3  UNL     1      20.178   5.763  49.511  1.00  0.00     0.301 C 
BRANCH  30  31
HETATM   31  C2  UNL     1      19.294   4.584  49.617  1.00  0.00     0.197 C 
BRANCH  31  32
HETATM   32  O1  UNL     1      18.819   4.373  50.935  1.00  0.00    -0.394 OA
HETATM   33  C1  UNL     1      19.272   3.203  51.496  1.00  0.00     0.201 C 
ENDBRANCH  31  32
ENDBRANCH  30  31
ENDBRANCH  28  30
ENDBRANCH   1  18
TORSDOF 6
ENDMDL
MODEL 2
REMARK VINA RESULT:      -7.4      1.370      1.646
REMARK  6 active torsions:
REMARK  status: ('A' for Active; 'I' for Inactive)
REMARK    1  A    between atoms: O1_2  and  C2_3 
REMARK    2  A    between atoms: C2_3  and  C3_4 
REMARK    3  A    between atoms: C3_4  and  N1_5 
REMARK    4  A    between atoms: C10_14  and  C11_15 
REMARK    5  A    between atoms: C16_22  and  N4_23 
REMARK    6  A    between atoms: N4_23  and  C17_24 
ROOT
HETATM    1  C11 UNL     1      23.006   2.884  49.697  1.00  0.00     0.010 A 
HETATM    2  C12 UNL     1      22.665   2.414  48.459  1.00  0.00     0.130 A 
HETATM    3  N2  UNL     1      21.797   1.422  48.206  1.00  0.00    -0.271 NA
HETATM    4  C13 UNL     1      21.174   0.793  49.244  1.00  0.00     0.141 A 
HETATM    5  C14 UNL     1      21.462   1.207  50.525  1.00  0.00     0.089 A 
HETATM    6  C15 UNL     1      20.758   0.496  51.565  1.00  0.00     0.103 C 
HETATM    7  N3  UNL     1      20.200  -0.058  52.409  1.00  0.00    -0.191 NA
HETATM    8  C16 UNL     1      22.358   2.227  50.745  1.00  0.00     0.066 A 
ENDROOT
BRANCH   8   9
HETATM    9  N4  UNL     1      22.545   2.491  52.149  1.00  0.00    -0.354 N 
HETATM   10  H21 UNL     1      21.928   2.980  52.839  1.00  0.00     0.166 HD
BRANCH   9  11
HETATM   11  C17 UNL     1      23.781   1.992  52.645  1.00  0.00     0.035 A 
HETATM   12  C18 UNL     1      24.711   2.797  53.312  1.00  0.00     0.029 A 
HETATM   13  C19 UNL     1      25.908   2.300  53.803  1.00  0.00     0.005 A 
HETATM   14  C20 UNL     1      26.236   0.974  53.651  1.00  0.00     0.042 A 
HETATM   15  C21 UNL     1      25.362   0.124  53.001  1.00  0.00     0.118 A 
HETATM   16  F1  UNL     1      25.621  -1.209  52.814  1.00  0.00    -0.206 F 
HETATM   17  C22 UNL     1      24.194   0.679  52.539  1.00  0.00     0.071 A 
ENDBRANCH   9  11
ENDBRANCH   8   9
BRANCH   1  18
HETATM   18  C10 UNL     1      23.869   3.971  50.064  1.00  0.00     0.023 C 
HETATM   19  C9  UNL     1      23.609   5.310  50.117  1.00  0.00    -0.008 C 
HETATM   20  C8  UNL     1      24.802   6.170  50.559  1.00  0.00     0.208 C 
HETATM   21  C23 UNL     1      22.233   5.664  49.836  1.00  0.00     0.349 C 
HETATM   22  O3  UNL     1      25.159   7.059  49.599  1.00  0.00    -0.363 OA
HETATM   23  C7  UNL     1      25.767   6.531  48.498  1.00  0.00     0.337 C 
HETATM   24  O2  UNL     1      25.965   7.564  47.520  1.00  0.00    -0.367 OA
HETATM   25  C6  UNL     1      24.575   8.001  47.458  1.00  0.00     0.172 C 
HETATM   26  C5  UNL     1      23.697   6.808  47.414  1.00  0.00     0.056 C 
HETATM   27  C4  UNL     1      22.315   7.226  47.966  1.00  0.00     0.277 C 
HETATM   28  N1  UNL     1      21.723   6.044  48.553  1.00  0.00     0.113 N 
HETATM   29 CL1  UNL     1      21.691   6.963  51.008  1.00  0.00    -0.087 Cl
BRANCH  28  30
HETATM   30  C3  UNL     1      20.313   6.379  48.854  1.00  0.00     0.301 C 
BRANCH  30  31
HETATM   31  C2  UNL     1      19.400   5.218  48.866  1.00  0.00     0.197 C 
BRANCH  31  32
HETATM   32  O1  UNL     1      18.660   5.116  50.069  1.00  0.00    -0.394 OA
HETATM   33  C1  UNL     1      19.056   4.068  50.865  1.00  0.00     0.201 C 
ENDBRANCH  31  32
ENDBRANCH  30  31
ENDBRANCH  28  30
ENDBRANCH   1  18
TORSDOF 6
ENDMDL
MODEL 3
REMARK VINA RESULT:      -7.3      7.382     11.081
REMARK  6 active torsions:
REMARK  status: ('A' for Active; 'I' for Inactive)
REMARK    1  A    between atoms: O1_2  and  C2_3 
REMARK    2  A    between atoms: C2_3  and  C3_4 
REMARK    3  A    between atoms: C3_4  and  N1_5 
REMARK    4  A    between atoms: C10_14  and  C11_15 
REMARK    5  A    between atoms: C16_22  and  N4_23 
REMARK    6  A    between atoms: N4_23  and  C17_24 
ROOT
HETATM    1  C11 UNL     1      30.577   8.877  48.760  1.00  0.00     0.010 A 
HETATM    2  C12 UNL     1      30.779  10.097  49.344  1.00  0.00     0.130 A 
HETATM    3  N2  UNL     1      30.135  11.233  49.035  1.00  0.00    -0.271 NA
HETATM    4  C13 UNL     1      29.185  11.223  48.056  1.00  0.00     0.141 A 
HETATM    5  C14 UNL     1      28.920  10.032  47.418  1.00  0.00     0.089 A 
HETATM    6  C15 UNL     1      27.899  10.104  46.401  1.00  0.00     0.103 C 
HETATM    7  N3  UNL     1      27.082  10.142  45.587  1.00  0.00    -0.191 NA
HETATM    8  C16 UNL     1      29.601   8.887  47.761  1.00  0.00     0.066 A 
ENDROOT
BRANCH   8   9
HETATM    9  N4  UNL     1      29.202   7.758  46.961  1.00  0.00    -0.354 N 
HETATM   10  H21 UNL     1      29.480   7.476  45.992  1.00  0.00     0.166 HD
BRANCH   9  11
HETATM   11  C17 UNL     1      28.278   6.908  47.629  1.00  0.00     0.035 A 
HETATM   12  C18 UNL     1      28.623   5.636  48.102  1.00  0.00     0.029 A 
HETATM   13  C19 UNL     1      27.721   4.818  48.763  1.00  0.00     0.005 A 
HETATM   14  C20 UNL     1      26.428   5.230  48.985  1.00  0.00     0.042 A 
HETATM   15  C21 UNL     1      26.022   6.474  48.544  1.00  0.00     0.118 A 
HETATM   16  F1  UNL     1      24.751   6.952  48.731  1.00  0.00    -0.206 F 
HETATM   17  C22 UNL     1      26.965   7.235  47.896  1.00  0.00     0.071 A 
ENDBRANCH   9  11
ENDBRANCH   8   9
BRANCH   1  18
HETATM   18  C10 UNL     1      31.165   7.602  49.061  1.00  0.00     0.023 C 
HETATM   19  C9  UNL     1      32.375   7.092  48.689  1.00  0.00    -0.008 C 
HETATM   20  C8  UNL     1      32.651   5.674  49.212  1.00  0.00     0.208 C 
HETATM   21  C23 UNL     1      33.212   8.014  47.951  1.00  0.00     0.349 C 
HETATM   22  O3  UNL     1      32.834   4.795  48.194  1.00  0.00    -0.363 OA
HETATM   23  C7  UNL     1      31.715   4.468  47.486  1.00  0.00     0.337 C 
HETATM   24  O2  UNL     1      32.081   3.641  46.370  1.00  0.00    -0.367 OA
HETATM   25  C6  UNL     1      33.072   4.551  45.808  1.00  0.00     0.172 C 
HETATM   26  C5  UNL     1      32.526   5.929  45.829  1.00  0.00     0.056 C 
HETATM   27  C4  UNL     1      33.726   6.904  45.841  1.00  0.00     0.277 C 
HETATM   28  N1  UNL     1      33.284   8.102  46.523  1.00  0.00     0.113 N 
HETATM   29 CL1  UNL     1      34.939   7.872  48.544  1.00  0.00    -0.087 Cl
BRANCH  28  30
HETATM   30  C3  UNL     1      34.338   9.121  46.317  1.00  0.00     0.301 C 
BRANCH  30  31
HETATM   31  C2  UNL     1      34.018  10.128  45.284  1.00  0.00     0.197 C 
BRANCH  31  32
HETATM   32  O1  UNL     1      32.682  10.591  45.367  1.00  0.00    -0.394 OA
HETATM   33  C1  UNL     1      32.509  11.592  46.293  1.00  0.00     0.201 C 
ENDBRANCH  31  32
ENDBRANCH  30  31
ENDBRANCH  28  30
ENDBRANCH   1  18
TORSDOF 6
ENDMDL
MODEL 4
REMARK VINA RESULT:      -7.2      2.385      5.193
REMARK  6 active torsions:
REMARK  status: ('A' for Active; 'I' for Inactive)
REMARK    1  A    between atoms: O1_2  and  C2_3 
REMARK    2  A    between atoms: C2_3  and  C3_4 
REMARK    3  A    between atoms: C3_4  and  N1_5 
REMARK    4  A    between atoms: C10_14  and  C11_15 
REMARK    5  A    between atoms: C16_22  and  N4_23 
REMARK    6  A    between atoms: N4_23  and  C17_24 
ROOT
HETATM    1  C11 UNL     1      23.844   4.516  50.842  1.00  0.00     0.010 A 
HETATM    2  C12 UNL     1      23.622   5.865  50.899  1.00  0.00     0.130 A 
HETATM    3  N2  UNL     1      24.438   6.817  50.421  1.00  0.00    -0.271 NA
HETATM    4  C13 UNL     1      25.606   6.460  49.815  1.00  0.00     0.141 A 
HETATM    5  C14 UNL     1      25.905   5.120  49.715  1.00  0.00     0.089 A 
HETATM    6  C15 UNL     1      27.154   4.824  49.056  1.00  0.00     0.103 C 
HETATM    7  N3  UNL     1      28.149   4.569  48.528  1.00  0.00    -0.191 NA
HETATM    8  C16 UNL     1      25.045   4.171  50.218  1.00  0.00     0.066 A 
ENDROOT
BRANCH   8   9
HETATM    9  N4  UNL     1      25.549   2.833  50.042  1.00  0.00    -0.354 N 
HETATM   10  H21 UNL     1      25.642   2.248  49.180  1.00  0.00     0.166 HD
BRANCH   9  11
HETATM   11  C17 UNL     1      25.981   2.242  51.261  1.00  0.00     0.035 A 
HETATM   12  C18 UNL     1      25.309   1.172  51.864  1.00  0.00     0.029 A 
HETATM   13  C19 UNL     1      25.743   0.593  53.046  1.00  0.00     0.005 A 
HETATM   14  C20 UNL     1      26.869   1.054  53.685  1.00  0.00     0.042 A 
HETATM   15  C21 UNL     1      27.579   2.108  53.143  1.00  0.00     0.118 A 
HETATM   16  F1  UNL     1      28.711   2.619  53.722  1.00  0.00    -0.206 F 
HETATM   17  C22 UNL     1      27.096   2.637  51.971  1.00  0.00     0.071 A 
ENDBRANCH   9  11
ENDBRANCH   8   9
BRANCH   1  18
HETATM   18  C10 UNL     1      23.011   3.427  51.265  1.00  0.00     0.023 C 
HETATM   19  C9  UNL     1      22.109   2.692  50.552  1.00  0.00    -0.008 C 
HETATM   20  C8  UNL     1      21.400   1.597  51.364  1.00  0.00     0.208 C 
HETATM   21  C23 UNL     1      22.054   3.017  49.142  1.00  0.00     0.349 C 
HETATM   22  O3  UNL     1      20.058   1.790  51.395  1.00  0.00    -0.363 OA
HETATM   23  C7  UNL     1      19.625   2.834  52.159  1.00  0.00     0.337 C 
HETATM   24  O2  UNL     1      18.208   2.995  51.990  1.00  0.00    -0.367 OA
HETATM   25  C6  UNL     1      18.226   3.101  50.536  1.00  0.00     0.172 C 
HETATM   26  C5  UNL     1      19.337   3.995  50.133  1.00  0.00     0.056 C 
HETATM   27  C4  UNL     1      19.735   3.619  48.687  1.00  0.00     0.277 C 
HETATM   28  N1  UNL     1      21.138   3.941  48.542  1.00  0.00     0.113 N 
HETATM   29 CL1  UNL     1      21.932   1.470  48.168  1.00  0.00    -0.087 Cl
BRANCH  28  30
HETATM   30  C3  UNL     1      21.455   3.819  47.102  1.00  0.00     0.301 C 
BRANCH  30  31
HETATM   31  C2  UNL     1      22.122   5.003  46.522  1.00  0.00     0.197 C 
BRANCH  31  32
HETATM   32  O1  UNL     1      22.125   6.113  47.400  1.00  0.00    -0.394 OA
HETATM   33  C1  UNL     1      23.082   7.050  47.091  1.00  0.00     0.201 C 
ENDBRANCH  31  32
ENDBRANCH  30  31
ENDBRANCH  28  30
ENDBRANCH   1  18
TORSDOF 6
ENDMDL
MODEL 5
REMARK VINA RESULT:      -7.0      3.013      4.329
REMARK  6 active torsions:
REMARK  status: ('A' for Active; 'I' for Inactive)
REMARK    1  A    between atoms: O1_2  and  C2_3 
REMARK    2  A    between atoms: C2_3  and  C3_4 
REMARK    3  A    between atoms: C3_4  and  N1_5 
REMARK    4  A    between atoms: C10_14  and  C11_15 
REMARK    5  A    between atoms: C16_22  and  N4_23 
REMARK    6  A    between atoms: N4_23  and  C17_24 
ROOT
HETATM    1  C11 UNL     1      21.806   2.287  49.891  1.00  0.00     0.010 A 
HETATM    2  C12 UNL     1      21.398   2.226  48.587  1.00  0.00     0.130 A 
HETATM    3  N2  UNL     1      20.132   2.333  48.153  1.00  0.00    -0.271 NA
HETATM    4  C13 UNL     1      19.125   2.519  49.054  1.00  0.00     0.141 A 
HETATM    5  C14 UNL     1      19.451   2.592  50.390  1.00  0.00     0.089 A 
HETATM    6  C15 UNL     1      18.332   2.795  51.277  1.00  0.00     0.103 C 
HETATM    7  N3  UNL     1      17.449   2.961  52.001  1.00  0.00    -0.191 NA
HETATM    8  C16 UNL     1      20.760   2.476  50.798  1.00  0.00     0.066 A 
ENDROOT
BRANCH   8   9
HETATM    9  N4  UNL     1      20.891   2.549  52.231  1.00  0.00    -0.354 N 
HETATM   10  H21 UNL     1      20.871   3.373  52.876  1.00  0.00     0.166 HD
BRANCH   9  11
HETATM   11  C17 UNL     1      21.074   1.274  52.833  1.00  0.00     0.035 A 
HETATM   12  C18 UNL     1      22.307   0.843  53.336  1.00  0.00     0.029 A 
HETATM   13  C19 UNL     1      22.475  -0.396  53.932  1.00  0.00     0.005 A 
HETATM   14  C20 UNL     1      21.419  -1.267  54.057  1.00  0.00     0.042 A 
HETATM   15  C21 UNL     1      20.174  -0.905  53.581  1.00  0.00     0.118 A 
HETATM   16  F1  UNL     1      19.076  -1.720  53.671  1.00  0.00    -0.206 F 
HETATM   17  C22 UNL     1      20.075   0.337  53.000  1.00  0.00     0.071 A 
ENDBRANCH   9  11
ENDBRANCH   8   9
BRANCH   1  18
HETATM   18  C10 UNL     1      23.129   2.245  50.445  1.00  0.00     0.023 C 
HETATM   19  C9  UNL     1      23.877   3.248  50.990  1.00  0.00    -0.008 C 
HETATM   20  C8  UNL     1      25.265   2.809  51.480  1.00  0.00     0.208 C 
HETATM   21  C23 UNL     1      23.190   4.519  51.092  1.00  0.00     0.349 C 
HETATM   22  O3  UNL     1      26.255   3.469  50.828  1.00  0.00    -0.363 OA
HETATM   23  C7  UNL     1      26.447   3.115  49.525  1.00  0.00     0.337 C 
HETATM   24  O2  UNL     1      27.427   3.982  48.934  1.00  0.00    -0.367 OA
HETATM   25  C6  UNL     1      26.762   5.236  49.269  1.00  0.00     0.172 C 
HETATM   26  C5  UNL     1      25.315   5.104  48.980  1.00  0.00     0.056 C 
HETATM   27  C4  UNL     1      24.568   6.120  49.875  1.00  0.00     0.277 C 
HETATM   28  N1  UNL     1      23.252   5.572  50.123  1.00  0.00     0.113 N 
HETATM   29 CL1  UNL     1      23.575   5.288  52.709  1.00  0.00    -0.087 Cl
BRANCH  28  30
HETATM   30  C3  UNL     1      22.458   6.645  50.762  1.00  0.00     0.301 C 
BRANCH  30  31
HETATM   31  C2  UNL     1      22.571   7.961  50.102  1.00  0.00     0.197 C 
BRANCH  31  32
HETATM   32  O1  UNL     1      21.331   8.433  49.608  1.00  0.00    -0.394 OA
HETATM   33  C1  UNL     1      21.420   9.660  48.994  1.00  0.00     0.201 C 
ENDBRANCH  31  32
ENDBRANCH  30  31
ENDBRANCH  28  30
ENDBRANCH   1  18
TORSDOF 6
ENDMDL
MODEL 6
REMARK VINA RESULT:      -6.9      7.159     10.871
REMARK  6 active torsions:
REMARK  status: ('A' for Active; 'I' for Inactive)
REMARK    1  A    between atoms: O1_2  and  C2_3 
REMARK    2  A    between atoms: C2_3  and  C3_4 
REMARK    3  A    between atoms: C3_4  and  N1_5 
REMARK    4  A    between atoms: C10_14  and  C11_15 
REMARK    5  A    between atoms: C16_22  and  N4_23 
REMARK    6  A    between atoms: N4_23  and  C17_24 
ROOT
HETATM    1  C11 UNL     1      29.323   7.738  46.935  1.00  0.00     0.010 A 
HETATM    2  C12 UNL     1      29.395   8.157  45.635  1.00  0.00     0.130 A 
HETATM    3  N2  UNL     1      28.764   9.222  45.116  1.00  0.00    -0.271 NA
HETATM    4  C13 UNL     1      27.968   9.988  45.916  1.00  0.00     0.141 A 
HETATM    5  C14 UNL     1      27.841   9.634  47.240  1.00  0.00     0.089 A 
HETATM    6  C15 UNL     1      26.987  10.497  48.020  1.00  0.00     0.103 C 
HETATM    7  N3  UNL     1      26.310  11.179  48.659  1.00  0.00    -0.191 NA
HETATM    8  C16 UNL     1      28.502   8.535  47.737  1.00  0.00     0.066 A 
ENDROOT
BRANCH   8   9
HETATM    9  N4  UNL     1      28.219   8.315  49.133  1.00  0.00    -0.354 N 
HETATM   10  H21 UNL     1      28.728   8.633  49.989  1.00  0.00     0.166 HD
BRANCH   9  11
HETATM   11  C17 UNL     1      27.047   7.537  49.342  1.00  0.00     0.035 A 
HETATM   12  C18 UNL     1      26.806   6.335  48.666  1.00  0.00     0.029 A 
HETATM   13  C19 UNL     1      25.667   5.575  48.883  1.00  0.00     0.005 A 
HETATM   14  C20 UNL     1      24.713   5.978  49.787  1.00  0.00     0.042 A 
HETATM   15  C21 UNL     1      24.890   7.155  50.488  1.00  0.00     0.118 A 
HETATM   16  F1  UNL     1      23.983   7.618  51.406  1.00  0.00    -0.206 F 
HETATM   17  C22 UNL     1      26.039   7.861  50.226  1.00  0.00     0.071 A 
ENDBRANCH   9  11
ENDBRANCH   8   9
BRANCH   1  18
HETATM   18  C10 UNL     1      30.002   6.659  47.594  1.00  0.00     0.023 C 
HETATM   19  C9  UNL     1      31.330   6.499  47.862  1.00  0.00    -0.008 C 
HETATM   20  C8  UNL     1      31.677   5.192  48.591  1.00  0.00     0.208 C 
HETATM   21  C23 UNL     1      32.155   7.630  47.493  1.00  0.00     0.349 C 
HETATM   22  O3  UNL     1      32.520   4.421  47.859  1.00  0.00    -0.363 OA
HETATM   23  C7  UNL     1      31.975   3.828  46.758  1.00  0.00     0.337 C 
HETATM   24  O2  UNL     1      33.008   3.159  46.017  1.00  0.00    -0.367 OA
HETATM   25  C6  UNL     1      33.885   4.315  45.875  1.00  0.00     0.172 C 
HETATM   26  C5  UNL     1      33.068   5.496  45.510  1.00  0.00     0.056 C 
HETATM   27  C4  UNL     1      33.842   6.755  45.965  1.00  0.00     0.277 C 
HETATM   28  N1  UNL     1      32.854   7.773  46.250  1.00  0.00     0.113 N 
HETATM   29 CL1  UNL     1      33.388   7.937  48.813  1.00  0.00    -0.087 Cl
BRANCH  28  30
HETATM   30  C3  UNL     1      33.594   9.041  46.442  1.00  0.00     0.301 C 
BRANCH  30  31
HETATM   31  C2  UNL     1      34.277   9.536  45.230  1.00  0.00     0.197 C 
BRANCH  31  32
HETATM   32  O1  UNL     1      35.683   9.607  45.384  1.00  0.00    -0.394 OA
HETATM   33  C1  UNL     1      36.355   9.761  44.196  1.00  0.00     0.201 C 
ENDBRANCH  31  32
ENDBRANCH  30  31
ENDBRANCH  28  30
ENDBRANCH   1  18
TORSDOF 6
ENDMDL
MODEL 7
REMARK VINA RESULT:      -6.8      6.015      9.279
REMARK  6 active torsions:
REMARK  status: ('A' for Active; 'I' for Inactive)
REMARK    1  A    between atoms: O1_2  and  C2_3 
REMARK    2  A    between atoms: C2_3  and  C3_4 
REMARK    3  A    between atoms: C3_4  and  N1_5 
REMARK    4  A    between atoms: C10_14  and  C11_15 
REMARK    5  A    between atoms: C16_22  and  N4_23 
REMARK    6  A    between atoms: N4_23  and  C17_24 
ROOT
HETATM    1  C11 UNL     1      28.431   7.203  47.351  1.00  0.00     0.010 A 
HETATM    2  C12 UNL     1      28.468   7.791  46.116  1.00  0.00     0.130 A 
HETATM    3  N2  UNL     1      27.544   8.626  45.615  1.00  0.00    -0.271 NA
HETATM    4  C13 UNL     1      26.451   8.948  46.364  1.00  0.00     0.141 A 
HETATM    5  C14 UNL     1      26.337   8.398  47.621  1.00  0.00     0.089 A 
HETATM    6  C15 UNL     1      25.157   8.791  48.351  1.00  0.00     0.103 C 
HETATM    7  N3  UNL     1      24.220   9.100  48.951  1.00  0.00    -0.191 NA
HETATM    8  C16 UNL     1      27.304   7.545  48.102  1.00  0.00     0.066 A 
ENDROOT
BRANCH   8   9
HETATM    9  N4  UNL     1      26.989   7.055  49.419  1.00  0.00    -0.354 N 
HETATM   10  H21 UNL     1      27.164   7.473  50.362  1.00  0.00     0.166 HD
BRANCH   9  11
HETATM   11  C17 UNL     1      26.333   5.793  49.396  1.00  0.00     0.035 A 
HETATM   12  C18 UNL     1      27.027   4.577  49.412  1.00  0.00     0.029 A 
HETATM   13  C19 UNL     1      26.380   3.352  49.401  1.00  0.00     0.005 A 
HETATM   14  C20 UNL     1      25.008   3.279  49.374  1.00  0.00     0.042 A 
HETATM   15  C21 UNL     1      24.262   4.442  49.357  1.00  0.00     0.118 A 
HETATM   16  F1  UNL     1      22.892   4.447  49.331  1.00  0.00    -0.206 F 
HETATM   17  C22 UNL     1      24.964   5.623  49.369  1.00  0.00     0.071 A 
ENDBRANCH   9  11
ENDBRANCH   8   9
BRANCH   1  18
HETATM   18  C10 UNL     1      29.391   6.354  47.996  1.00  0.00     0.023 C 
HETATM   19  C9  UNL     1      30.648   6.641  48.442  1.00  0.00    -0.008 C 
HETATM   20  C8  UNL     1      31.380   5.453  49.084  1.00  0.00     0.208 C 
HETATM   21  C23 UNL     1      31.025   8.033  48.312  1.00  0.00     0.349 C 
HETATM   22  O3  UNL     1      32.520   5.149  48.415  1.00  0.00    -0.363 OA
HETATM   23  C7  UNL     1      32.353   4.567  47.193  1.00  0.00     0.337 C 
HETATM   24  O2  UNL     1      33.631   4.425  46.552  1.00  0.00    -0.367 OA
HETATM   25  C6  UNL     1      34.023   5.826  46.657  1.00  0.00     0.172 C 
HETATM   26  C5  UNL     1      32.868   6.677  46.289  1.00  0.00     0.056 C 
HETATM   27  C4  UNL     1      33.065   8.049  46.975  1.00  0.00     0.277 C 
HETATM   28  N1  UNL     1      31.745   8.595  47.208  1.00  0.00     0.113 N 
HETATM   29 CL1  UNL     1      31.911   8.565  49.824  1.00  0.00    -0.087 Cl
BRANCH  28  30
HETATM   30  C3  UNL     1      31.935  10.001  47.629  1.00  0.00     0.301 C 
BRANCH  30  31
HETATM   31  C2  UNL     1      30.968  10.949  47.039  1.00  0.00     0.197 C 
BRANCH  31  32
HETATM   32  O1  UNL     1      30.084  11.499  47.999  1.00  0.00    -0.394 OA
HETATM   33  C1  UNL     1      30.724  11.987  49.113  1.00  0.00     0.201 C 
ENDBRANCH  31  32
ENDBRANCH  30  31
ENDBRANCH  28  30
ENDBRANCH   1  18
TORSDOF 6
ENDMDL
MODEL 8
REMARK VINA RESULT:      -6.8      2.427      5.118
REMARK  6 active torsions:
REMARK  status: ('A' for Active; 'I' for Inactive)
REMARK    1  A    between atoms: O1_2  and  C2_3 
REMARK    2  A    between atoms: C2_3  and  C3_4 
REMARK    3  A    between atoms: C3_4  and  N1_5 
REMARK    4  A    between atoms: C10_14  and  C11_15 
REMARK    5  A    between atoms: C16_22  and  N4_23 
REMARK    6  A    between atoms: N4_23  and  C17_24 
ROOT
HETATM    1  C11 UNL     1      22.000   3.292  51.838  1.00  0.00     0.010 A 
HETATM    2  C12 UNL     1      22.151   4.571  52.300  1.00  0.00     0.130 A 
HETATM    3  N2  UNL     1      23.198   5.036  52.999  1.00  0.00    -0.271 NA
HETATM    4  C13 UNL     1      24.231   4.198  53.302  1.00  0.00     0.141 A 
HETATM    5  C14 UNL     1      24.157   2.891  52.874  1.00  0.00     0.089 A 
HETATM    6  C15 UNL     1      25.289   2.071  53.231  1.00  0.00     0.103 C 
HETATM    7  N3  UNL     1      26.189   1.402  53.503  1.00  0.00    -0.191 NA
HETATM    8  C16 UNL     1      23.067   2.449  52.160  1.00  0.00     0.066 A 
ENDROOT
BRANCH   8   9
HETATM    9  N4  UNL     1      23.165   1.050  51.831  1.00  0.00    -0.354 N 
HETATM   10  H21 UNL     1      23.652   0.569  51.040  1.00  0.00     0.166 HD
BRANCH   9  11
HETATM   11  C17 UNL     1      22.473   0.217  52.753  1.00  0.00     0.035 A 
HETATM   12  C18 UNL     1      21.104  -0.056  52.649  1.00  0.00     0.029 A 
HETATM   13  C19 UNL     1      20.440  -0.878  53.545  1.00  0.00     0.005 A 
HETATM   14  C20 UNL     1      21.110  -1.470  54.589  1.00  0.00     0.042 A 
HETATM   15  C21 UNL     1      22.463  -1.243  54.749  1.00  0.00     0.118 A 
HETATM   16  F1  UNL     1      23.196  -1.800  55.764  1.00  0.00    -0.206 F 
HETATM   17  C22 UNL     1      23.062  -0.418  53.828  1.00  0.00     0.071 A 
ENDBRANCH   9  11
ENDBRANCH   8   9
BRANCH   1  18
HETATM   18  C10 UNL     1      20.957   2.719  51.037  1.00  0.00     0.023 C 
HETATM   19  C9  UNL     1      20.736   2.817  49.694  1.00  0.00    -0.008 C 
HETATM   20  C8  UNL     1      19.498   2.055  49.198  1.00  0.00     0.208 C 
HETATM   21  C23 UNL     1      21.760   3.542  48.971  1.00  0.00     0.349 C 
HETATM   22  O3  UNL     1      18.595   2.891  48.627  1.00  0.00    -0.363 OA
HETATM   23  C7  UNL     1      17.921   3.711  49.484  1.00  0.00     0.337 C 
HETATM   24  O2  UNL     1      17.104   4.621  48.731  1.00  0.00    -0.367 OA
HETATM   25  C6  UNL     1      18.174   5.147  47.892  1.00  0.00     0.172 C 
HETATM   26  C5  UNL     1      19.361   5.415  48.738  1.00  0.00     0.056 C 
HETATM   27  C4  UNL     1      20.607   5.358  47.824  1.00  0.00     0.277 C 
HETATM   28  N1  UNL     1      21.716   4.938  48.653  1.00  0.00     0.113 N 
HETATM   29 CL1  UNL     1      22.127   2.670  47.402  1.00  0.00    -0.087 Cl
BRANCH  28  30
HETATM   30  C3  UNL     1      22.943   5.123  47.846  1.00  0.00     0.301 C 
BRANCH  30  31
HETATM   31  C2  UNL     1      23.891   6.112  48.398  1.00  0.00     0.197 C 
BRANCH  31  32
HETATM   32  O1  UNL     1      23.578   6.488  49.727  1.00  0.00    -0.394 OA
HETATM   33  C1  UNL     1      24.646   7.020  50.409  1.00  0.00     0.201 C 
ENDBRANCH  31  32
ENDBRANCH  30  31
ENDBRANCH  28  30
ENDBRANCH   1  18
TORSDOF 6
ENDMDL
MODEL 9
REMARK VINA RESULT:      -6.8      3.559      6.809
REMARK  6 active torsions:
REMARK  status: ('A' for Active; 'I' for Inactive)
REMARK    1  A    between atoms: O1_2  and  C2_3 
REMARK    2  A    between atoms: C2_3  and  C3_4 
REMARK    3  A    between atoms: C3_4  and  N1_5 
REMARK    4  A    between atoms: C10_14  and  C11_15 
REMARK    5  A    between atoms: C16_22  and  N4_23 
REMARK    6  A    between atoms: N4_23  and  C17_24 
ROOT
HETATM    1  C11 UNL     1      25.417   6.352  49.939  1.00  0.00     0.010 A 
HETATM    2  C12 UNL     1      24.561   6.881  50.865  1.00  0.00     0.130 A 
HETATM    3  N2  UNL     1      23.986   8.093  50.803  1.00  0.00    -0.271 NA
HETATM    4  C13 UNL     1      24.248   8.908  49.741  1.00  0.00     0.141 A 
HETATM    5  C14 UNL     1      25.101   8.450  48.763  1.00  0.00     0.089 A 
HETATM    6  C15 UNL     1      25.322   9.368  47.672  1.00  0.00     0.103 C 
HETATM    7  N3  UNL     1      25.506  10.088  46.789  1.00  0.00    -0.191 NA
HETATM    8  C16 UNL     1      25.673   7.202  48.861  1.00  0.00     0.066 A 
ENDROOT
BRANCH   8   9
HETATM    9  N4  UNL     1      26.554   6.920  47.757  1.00  0.00    -0.354 N 
HETATM   10  H21 UNL     1      26.343   6.685  46.759  1.00  0.00     0.166 HD
BRANCH   9  11
HETATM   11  C17 UNL     1      27.928   6.982  48.118  1.00  0.00     0.035 A 
HETATM   12  C18 UNL     1      28.782   5.876  48.042  1.00  0.00     0.029 A 
HETATM   13  C19 UNL     1      30.123   5.947  48.385  1.00  0.00     0.005 A 
HETATM   14  C20 UNL     1      30.678   7.126  48.821  1.00  0.00     0.042 A 
HETATM   15  C21 UNL     1      29.890   8.256  48.920  1.00  0.00     0.118 A 
HETATM   16  F1  UNL     1      30.374   9.466  49.345  1.00  0.00    -0.206 F 
HETATM   17  C22 UNL     1      28.570   8.119  48.565  1.00  0.00     0.071 A 
ENDBRANCH   9  11
ENDBRANCH   8   9
BRANCH   1  18
HETATM   18  C10 UNL     1      26.029   5.055  49.886  1.00  0.00     0.023 C 
HETATM   19  C9  UNL     1      25.455   3.818  49.926  1.00  0.00    -0.008 C 
HETATM   20  C8  UNL     1      26.452   2.653  49.845  1.00  0.00     0.208 C 
HETATM   21  C23 UNL     1      24.007   3.831  49.943  1.00  0.00     0.349 C 
HETATM   22  O3  UNL     1      26.394   1.870  50.951  1.00  0.00    -0.363 OA
HETATM   23  C7  UNL     1      26.906   2.414  52.092  1.00  0.00     0.337 C 
HETATM   24  O2  UNL     1      26.657   1.531  53.197  1.00  0.00    -0.367 OA
HETATM   25  C6  UNL     1      25.215   1.433  53.008  1.00  0.00     0.172 C 
HETATM   26  C5  UNL     1      24.673   2.785  52.733  1.00  0.00     0.056 C 
HETATM   27  C4  UNL     1      23.353   2.606  51.948  1.00  0.00     0.277 C 
HETATM   28  N1  UNL     1      23.194   3.783  51.122  1.00  0.00     0.113 N 
HETATM   29 CL1  UNL     1      23.375   2.519  48.832  1.00  0.00    -0.087 Cl
BRANCH  28  30
HETATM   30  C3  UNL     1      21.824   3.730  50.566  1.00  0.00     0.301 C 
BRANCH  30  31
HETATM   31  C2  UNL     1      20.857   4.621  51.241  1.00  0.00     0.197 C 
BRANCH  31  32
HETATM   32  O1  UNL     1      19.546   4.086  51.266  1.00  0.00    -0.394 OA
HETATM   33  C1  UNL     1      19.467   2.865  51.891  1.00  0.00     0.201 C 
ENDBRANCH  31  32
ENDBRANCH  30  31
ENDBRANCH  28  30
ENDBRANCH   1  18
TORSDOF 6
ENDMDL
