MODEL 1
REMARK VINA RESULT:      -8.0      0.000      0.000
REMARK  5 active torsions:
REMARK  status: ('A' for Active; 'I' for Inactive)
REMARK    1  A    between atoms: C5_5  and  O1_6 
REMARK    2  A    between atoms: C7_8  and  C8_9 
REMARK    3  A    between atoms: C8_9  and  C9_10 
REMARK       I    between atoms: C9_10  and  N1_12 
REMARK    4  A    between atoms: N1_12  and  S1_13 
REMARK    5  A    between atoms: S1_13  and  C10_16 
ROOT
HETATM    1  C9  UNL     1      25.737   2.323  51.196  1.00  0.00     0.235 C 
HETATM    2  O2  UNL     1      24.866   1.550  51.691  1.00  0.00    -0.272 OA
HETATM    3  N1  UNL     1      26.983   2.627  51.800  1.00  0.00    -0.250 N 
HETATM    4  H10 UNL     1      27.663   3.276  51.337  1.00  0.00     0.181 HD
ENDROOT
BRANCH   1   5
HETATM    5  C8  UNL     1      25.469   2.987  49.872  1.00  0.00     0.146 C 
BRANCH   5   6
HETATM    6  C7  UNL     1      25.429   4.457  49.976  1.00  0.00    -0.007 A 
HETATM    7  C2  UNL     1      26.440   5.313  49.365  1.00  0.00    -0.036 A 
HETATM    8  C1  UNL     1      27.494   4.950  48.662  1.00  0.00     0.024 C 
HETATM    9  C3  UNL     1      26.033   6.682  49.701  1.00  0.00     0.014 A 
HETATM   10  C4  UNL     1      24.934   6.567  50.408  1.00  0.00     0.038 A 
HETATM   11  C5  UNL     1      24.529   5.184  50.598  1.00  0.00     0.075 A 
BRANCH  11  12
HETATM   12  O1  UNL     1      23.439   4.660  51.278  1.00  0.00    -0.355 OA
HETATM   13  C6  UNL     1      23.454   4.777  52.697  1.00  0.00     0.210 C 
ENDBRANCH  11  12
ENDBRANCH   5   6
ENDBRANCH   1   5
BRANCH   3  14
HETATM   14  S1  UNL     1      27.429   1.950  53.301  1.00  0.00     0.265 S 
HETATM   15  O3  UNL     1      28.540   2.797  53.893  1.00  0.00    -0.200 OA
HETATM   16  O4  UNL     1      26.262   2.074  54.236  1.00  0.00    -0.200 OA
BRANCH  14  17
HETATM   17  C10 UNL     1      27.915   0.294  53.223  1.00  0.00     0.079 A 
HETATM   18  C11 UNL     1      29.232   0.021  53.602  1.00  0.00     0.025 A 
HETATM   19  C12 UNL     1      29.749  -1.264  53.586  1.00  0.00     0.002 A 
HETATM   20  C13 UNL     1      28.930  -2.309  53.180  1.00  0.00     0.000 A 
HETATM   21  C14 UNL     1      27.627  -2.064  52.802  1.00  0.00     0.002 A 
HETATM   22  C15 UNL     1      27.106  -0.770  52.819  1.00  0.00     0.025 A 
ENDBRANCH  14  17
ENDBRANCH   3  14
TORSDOF 5
ENDMDL
MODEL 2
REMARK VINA RESULT:      -7.8      2.130      6.714
REMARK  5 active torsions:
REMARK  status: ('A' for Active; 'I' for Inactive)
REMARK    1  A    between atoms: C5_5  and  O1_6 
REMARK    2  A    between atoms: C7_8  and  C8_9 
REMARK    3  A    between atoms: C8_9  and  C9_10 
REMARK       I    between atoms: C9_10  and  N1_12 
REMARK    4  A    between atoms: N1_12  and  S1_13 
REMARK    5  A    between atoms: S1_13  and  C10_16 
ROOT
HETATM    1  C9  UNL     1      24.469   3.037  52.076  1.00  0.00     0.235 C 
HETATM    2  O2  UNL     1      23.254   2.913  51.748  1.00  0.00    -0.272 OA
HETATM    3  N1  UNL     1      25.435   3.765  51.335  1.00  0.00    -0.250 N 
HETATM    4  H10 UNL     1      26.428   3.831  51.661  1.00  0.00     0.181 HD
ENDROOT
BRANCH   1   5
HETATM    5  C8  UNL     1      24.967   2.381  53.336  1.00  0.00     0.146 C 
BRANCH   5   6
HETATM    6  C7  UNL     1      25.724   1.146  53.068  1.00  0.00    -0.007 A 
HETATM    7  C2  UNL     1      25.124  -0.180  53.176  1.00  0.00    -0.036 A 
HETATM    8  C1  UNL     1      23.886  -0.485  53.508  1.00  0.00     0.024 C 
HETATM    9  C3  UNL     1      26.201  -1.114  52.832  1.00  0.00     0.014 A 
HETATM   10  C4  UNL     1      27.250  -0.373  52.570  1.00  0.00     0.038 A 
HETATM   11  C5  UNL     1      26.984   1.049  52.710  1.00  0.00     0.075 A 
BRANCH  11  12
HETATM   12  O1  UNL     1      27.825   2.137  52.523  1.00  0.00    -0.355 OA
HETATM   13  C6  UNL     1      28.701   2.459  53.600  1.00  0.00     0.210 C 
ENDBRANCH  11  12
ENDBRANCH   5   6
ENDBRANCH   1   5
BRANCH   3  14
HETATM   14  S1  UNL     1      25.021   4.564  49.886  1.00  0.00     0.265 S 
HETATM   15  O3  UNL     1      24.343   3.562  48.969  1.00  0.00    -0.200 OA
HETATM   16  O4  UNL     1      23.991   5.608  50.203  1.00  0.00    -0.200 OA
BRANCH  14  17
HETATM   17  C10 UNL     1      26.351   5.312  49.075  1.00  0.00     0.079 A 
HETATM   18  C11 UNL     1      26.134   6.608  48.601  1.00  0.00     0.025 A 
HETATM   19  C12 UNL     1      27.116   7.319  47.934  1.00  0.00     0.002 A 
HETATM   20  C13 UNL     1      28.353   6.723  47.731  1.00  0.00     0.000 A 
HETATM   21  C14 UNL     1      28.591   5.445  48.190  1.00  0.00     0.002 A 
HETATM   22  C15 UNL     1      27.602   4.728  48.863  1.00  0.00     0.025 A 
ENDBRANCH  14  17
ENDBRANCH   3  14
TORSDOF 5
ENDMDL
MODEL 3
REMARK VINA RESULT:      -7.7      3.049      4.965
REMARK  5 active torsions:
REMARK  status: ('A' for Active; 'I' for Inactive)
REMARK    1  A    between atoms: C5_5  and  O1_6 
REMARK    2  A    between atoms: C7_8  and  C8_9 
REMARK    3  A    between atoms: C8_9  and  C9_10 
REMARK       I    between atoms: C9_10  and  N1_12 
REMARK    4  A    between atoms: N1_12  and  S1_13 
REMARK    5  A    between atoms: S1_13  and  C10_16 
ROOT
HETATM    1  C9  UNL     1      24.324   1.929  52.409  1.00  0.00     0.235 C 
HETATM    2  O2  UNL     1      24.342   3.087  52.918  1.00  0.00    -0.272 OA
HETATM    3  N1  UNL     1      25.449   1.071  52.313  1.00  0.00    -0.250 N 
HETATM    4  H10 UNL     1      25.368   0.121  51.879  1.00  0.00     0.181 HD
ENDROOT
BRANCH   1   5
HETATM    5  C8  UNL     1      23.035   1.385  51.853  1.00  0.00     0.146 C 
BRANCH   5   6
HETATM    6  C7  UNL     1      22.187   0.772  52.891  1.00  0.00    -0.007 A 
HETATM    7  C2  UNL     1      20.834   1.239  53.174  1.00  0.00    -0.036 A 
HETATM    8  C1  UNL     1      20.177   2.223  52.594  1.00  0.00     0.024 C 
HETATM    9  C3  UNL     1      20.351   0.373  54.256  1.00  0.00     0.014 A 
HETATM   10  C4  UNL     1      21.332  -0.458  54.516  1.00  0.00     0.038 A 
HETATM   11  C5  UNL     1      22.497  -0.234  53.677  1.00  0.00     0.075 A 
BRANCH  11  12
HETATM   12  O1  UNL     1      23.717  -0.896  53.649  1.00  0.00    -0.355 OA
HETATM   13  C6  UNL     1      24.406  -1.018  54.890  1.00  0.00     0.210 C 
ENDBRANCH  11  12
ENDBRANCH   5   6
ENDBRANCH   1   5
BRANCH   3  14
HETATM   14  S1  UNL     1      26.978   1.548  52.900  1.00  0.00     0.265 S 
HETATM   15  O3  UNL     1      27.562   2.561  51.932  1.00  0.00    -0.200 OA
HETATM   16  O4  UNL     1      26.777   2.272  54.198  1.00  0.00    -0.200 OA
BRANCH  14  17
HETATM   17  C10 UNL     1      28.089   0.248  53.145  1.00  0.00     0.079 A 
HETATM   18  C11 UNL     1      27.608  -1.034  52.865  1.00  0.00     0.025 A 
HETATM   19  C12 UNL     1      28.395  -2.163  53.020  1.00  0.00     0.002 A 
HETATM   20  C13 UNL     1      29.701  -2.012  53.467  1.00  0.00     0.000 A 
HETATM   21  C14 UNL     1      30.197  -0.757  53.750  1.00  0.00     0.002 A 
HETATM   22  C15 UNL     1      29.405   0.380  53.594  1.00  0.00     0.025 A 
ENDBRANCH  14  17
ENDBRANCH   3  14
TORSDOF 5
ENDMDL
MODEL 4
REMARK VINA RESULT:      -7.7      2.690      3.852
REMARK  5 active torsions:
REMARK  status: ('A' for Active; 'I' for Inactive)
REMARK    1  A    between atoms: C5_5  and  O1_6 
REMARK    2  A    between atoms: C7_8  and  C8_9 
REMARK    3  A    between atoms: C8_9  and  C9_10 
REMARK       I    between atoms: C9_10  and  N1_12 
REMARK    4  A    between atoms: N1_12  and  S1_13 
REMARK    5  A    between atoms: S1_13  and  C10_16 
ROOT
HETATM    1  C9  UNL     1      25.531   2.280  52.711  1.00  0.00     0.235 C 
HETATM    2  O2  UNL     1      25.860   1.972  51.529  1.00  0.00    -0.272 OA
HETATM    3  N1  UNL     1      26.411   2.268  53.824  1.00  0.00    -0.250 N 
HETATM    4  H10 UNL     1      26.076   2.535  54.780  1.00  0.00     0.181 HD
ENDROOT
BRANCH   1   5
HETATM    5  C8  UNL     1      24.113   2.695  53.000  1.00  0.00     0.146 C 
BRANCH   5   6
HETATM    6  C7  UNL     1      23.125   1.790  52.388  1.00  0.00    -0.007 A 
HETATM    7  C2  UNL     1      22.429   2.114  51.147  1.00  0.00    -0.036 A 
HETATM    8  C1  UNL     1      22.553   3.197  50.406  1.00  0.00     0.024 C 
HETATM    9  C3  UNL     1      21.550   0.967  50.892  1.00  0.00     0.014 A 
HETATM   10  C4  UNL     1      21.756   0.131  51.881  1.00  0.00     0.038 A 
HETATM   11  C5  UNL     1      22.737   0.618  52.836  1.00  0.00     0.075 A 
BRANCH  11  12
HETATM   12  O1  UNL     1      23.218   0.032  53.999  1.00  0.00    -0.355 OA
HETATM   13  C6  UNL     1      22.389  -0.954  54.607  1.00  0.00     0.210 C 
ENDBRANCH  11  12
ENDBRANCH   5   6
ENDBRANCH   1   5
BRANCH   3  14
HETATM   14  S1  UNL     1      28.048   1.820  53.653  1.00  0.00     0.265 S 
HETATM   15  O3  UNL     1      28.637   2.608  52.498  1.00  0.00    -0.200 OA
HETATM   16  O4  UNL     1      28.785   2.261  54.883  1.00  0.00    -0.200 OA
BRANCH  14  17
HETATM   17  C10 UNL     1      28.307   0.128  53.416  1.00  0.00     0.079 A 
HETATM   18  C11 UNL     1      29.596  -0.340  53.679  1.00  0.00     0.025 A 
HETATM   19  C12 UNL     1      29.937  -1.674  53.529  1.00  0.00     0.002 A 
HETATM   20  C13 UNL     1      28.964  -2.569  53.104  1.00  0.00     0.000 A 
HETATM   21  C14 UNL     1      27.685  -2.130  52.839  1.00  0.00     0.002 A 
HETATM   22  C15 UNL     1      27.341  -0.787  52.990  1.00  0.00     0.025 A 
ENDBRANCH  14  17
ENDBRANCH   3  14
TORSDOF 5
ENDMDL
MODEL 5
REMARK VINA RESULT:      -7.7      2.699      3.607
REMARK  5 active torsions:
REMARK  status: ('A' for Active; 'I' for Inactive)
REMARK    1  A    between atoms: C5_5  and  O1_6 
REMARK    2  A    between atoms: C7_8  and  C8_9 
REMARK    3  A    between atoms: C8_9  and  C9_10 
REMARK       I    between atoms: C9_10  and  N1_12 
REMARK    4  A    between atoms: N1_12  and  S1_13 
REMARK    5  A    between atoms: S1_13  and  C10_16 
ROOT
HETATM    1  C9  UNL     1      25.624   2.445  52.855  1.00  0.00     0.235 C 
HETATM    2  O2  UNL     1      25.923   2.229  51.645  1.00  0.00    -0.272 OA
HETATM    3  N1  UNL     1      26.499   2.238  53.952  1.00  0.00    -0.250 N 
HETATM    4  H10 UNL     1      26.191   2.436  54.933  1.00  0.00     0.181 HD
ENDROOT
BRANCH   1   5
HETATM    5  C8  UNL     1      24.251   2.957  53.198  1.00  0.00     0.146 C 
BRANCH   5   6
HETATM    6  C7  UNL     1      23.187   2.259  52.456  1.00  0.00    -0.007 A 
HETATM    7  C2  UNL     1      22.884   0.847  52.663  1.00  0.00    -0.036 A 
HETATM    8  C1  UNL     1      23.468   0.005  53.492  1.00  0.00     0.024 C 
HETATM    9  C3  UNL     1      21.779   0.556  51.744  1.00  0.00     0.014 A 
HETATM   10  C4  UNL     1      21.523   1.681  51.121  1.00  0.00     0.038 A 
HETATM   11  C5  UNL     1      22.388   2.769  51.545  1.00  0.00     0.075 A 
BRANCH  11  12
HETATM   12  O1  UNL     1      22.429   4.091  51.128  1.00  0.00    -0.355 OA
HETATM   13  C6  UNL     1      21.188   4.790  51.096  1.00  0.00     0.210 C 
ENDBRANCH  11  12
ENDBRANCH   5   6
ENDBRANCH   1   5
BRANCH   3  14
HETATM   14  S1  UNL     1      28.088   1.660  53.721  1.00  0.00     0.265 S 
HETATM   15  O3  UNL     1      28.725   2.461  52.600  1.00  0.00    -0.200 OA
HETATM   16  O4  UNL     1      28.880   1.962  54.958  1.00  0.00    -0.200 OA
BRANCH  14  17
HETATM   17  C10 UNL     1      28.193  -0.030  53.381  1.00  0.00     0.079 A 
HETATM   18  C11 UNL     1      29.423  -0.636  53.645  1.00  0.00     0.025 A 
HETATM   19  C12 UNL     1      29.641  -1.985  53.416  1.00  0.00     0.002 A 
HETATM   20  C13 UNL     1      28.602  -2.754  52.911  1.00  0.00     0.000 A 
HETATM   21  C14 UNL     1      27.378  -2.179  52.644  1.00  0.00     0.002 A 
HETATM   22  C15 UNL     1      27.158  -0.820  52.873  1.00  0.00     0.025 A 
ENDBRANCH  14  17
ENDBRANCH   3  14
TORSDOF 5
ENDMDL
MODEL 6
REMARK VINA RESULT:      -7.6      1.688      2.668
REMARK  5 active torsions:
REMARK  status: ('A' for Active; 'I' for Inactive)
REMARK    1  A    between atoms: C5_5  and  O1_6 
REMARK    2  A    between atoms: C7_8  and  C8_9 
REMARK    3  A    between atoms: C8_9  and  C9_10 
REMARK       I    between atoms: C9_10  and  N1_12 
REMARK    4  A    between atoms: N1_12  and  S1_13 
REMARK    5  A    between atoms: S1_13  and  C10_16 
ROOT
HETATM    1  C9  UNL     1      26.421   2.477  50.983  1.00  0.00     0.235 C 
HETATM    2  O2  UNL     1      27.543   2.841  51.440  1.00  0.00    -0.272 OA
HETATM    3  N1  UNL     1      25.513   1.621  51.658  1.00  0.00    -0.250 N 
HETATM    4  H10 UNL     1      24.597   1.356  51.224  1.00  0.00     0.181 HD
ENDROOT
BRANCH   1   5
HETATM    5  C8  UNL     1      25.980   2.965  49.629  1.00  0.00     0.146 C 
BRANCH   5   6
HETATM    6  C7  UNL     1      26.030   4.433  49.515  1.00  0.00    -0.007 A 
HETATM    7  C2  UNL     1      24.952   5.293  49.993  1.00  0.00    -0.036 A 
HETATM    8  C1  UNL     1      23.823   4.934  50.571  1.00  0.00     0.024 C 
HETATM    9  C3  UNL     1      25.393   6.659  49.692  1.00  0.00     0.014 A 
HETATM   10  C4  UNL     1      26.568   6.540  49.123  1.00  0.00     0.038 A 
HETATM   11  C5  UNL     1      26.996   5.157  48.997  1.00  0.00     0.075 A 
BRANCH  11  12
HETATM   12  O1  UNL     1      28.160   4.628  48.457  1.00  0.00    -0.355 OA
HETATM   13  C6  UNL     1      29.223   5.544  48.211  1.00  0.00     0.210 C 
ENDBRANCH  11  12
ENDBRANCH   5   6
ENDBRANCH   1   5
BRANCH   3  14
HETATM   14  S1  UNL     1      25.874   0.988  53.201  1.00  0.00     0.265 S 
HETATM   15  O3  UNL     1      26.205   2.147  54.123  1.00  0.00    -0.200 OA
HETATM   16  O4  UNL     1      24.629   0.355  53.749  1.00  0.00    -0.200 OA
BRANCH  14  17
HETATM   17  C10 UNL     1      27.152  -0.174  53.217  1.00  0.00     0.079 A 
HETATM   18  C11 UNL     1      28.384   0.273  53.703  1.00  0.00     0.025 A 
HETATM   19  C12 UNL     1      29.491  -0.557  53.770  1.00  0.00     0.002 A 
HETATM   20  C13 UNL     1      29.368  -1.871  53.341  1.00  0.00     0.000 A 
HETATM   21  C14 UNL     1      28.163  -2.335  52.858  1.00  0.00     0.002 A 
HETATM   22  C15 UNL     1      27.048  -1.500  52.791  1.00  0.00     0.025 A 
ENDBRANCH  14  17
ENDBRANCH   3  14
TORSDOF 5
ENDMDL
MODEL 7
REMARK VINA RESULT:      -7.5      2.648      6.768
REMARK  5 active torsions:
REMARK  status: ('A' for Active; 'I' for Inactive)
REMARK    1  A    between atoms: C5_5  and  O1_6 
REMARK    2  A    between atoms: C7_8  and  C8_9 
REMARK    3  A    between atoms: C8_9  and  C9_10 
REMARK       I    between atoms: C9_10  and  N1_12 
REMARK    4  A    between atoms: N1_12  and  S1_13 
REMARK    5  A    between atoms: S1_13  and  C10_16 
ROOT
HETATM    1  C9  UNL     1      25.868   1.066  52.576  1.00  0.00     0.235 C 
HETATM    2  O2  UNL     1      26.461   0.901  51.471  1.00  0.00    -0.272 OA
HETATM    3  N1  UNL     1      24.865   2.039  52.817  1.00  0.00    -0.250 N 
HETATM    4  H10 UNL     1      24.410   2.125  53.757  1.00  0.00     0.181 HD
ENDROOT
BRANCH   1   5
HETATM    5  C8  UNL     1      26.223   0.186  53.745  1.00  0.00     0.146 C 
BRANCH   5   6
HETATM    6  C7  UNL     1      27.579  -0.380  53.633  1.00  0.00    -0.007 A 
HETATM    7  C2  UNL     1      27.839  -1.673  53.008  1.00  0.00    -0.036 A 
HETATM    8  C1  UNL     1      26.969  -2.503  52.470  1.00  0.00     0.024 C 
HETATM    9  C3  UNL     1      29.291  -1.857  53.104  1.00  0.00     0.014 A 
HETATM   10  C4  UNL     1      29.749  -0.787  53.709  1.00  0.00     0.038 A 
HETATM   11  C5  UNL     1      28.701   0.158  54.054  1.00  0.00     0.075 A 
BRANCH  11  12
HETATM   12  O1  UNL     1      28.783   1.387  54.692  1.00  0.00    -0.355 OA
HETATM   13  C6  UNL     1      28.961   2.529  53.859  1.00  0.00     0.210 C 
ENDBRANCH  11  12
ENDBRANCH   5   6
ENDBRANCH   1   5
BRANCH   3  14
HETATM   14  S1  UNL     1      24.356   3.108  51.589  1.00  0.00     0.265 S 
HETATM   15  O3  UNL     1      23.697   4.307  52.247  1.00  0.00    -0.200 OA
HETATM   16  O4  UNL     1      25.575   3.630  50.887  1.00  0.00    -0.200 OA
BRANCH  14  17
HETATM   17  C10 UNL     1      23.291   2.406  50.424  1.00  0.00     0.079 A 
HETATM   18  C11 UNL     1      23.388   2.904  49.122  1.00  0.00     0.025 A 
HETATM   19  C12 UNL     1      22.591   2.428  48.094  1.00  0.00     0.002 A 
HETATM   20  C13 UNL     1      21.671   1.426  48.369  1.00  0.00     0.000 A 
HETATM   21  C14 UNL     1      21.558   0.919  49.646  1.00  0.00     0.002 A 
HETATM   22  C15 UNL     1      22.360   1.397  50.682  1.00  0.00     0.025 A 
ENDBRANCH  14  17
ENDBRANCH   3  14
TORSDOF 5
ENDMDL
MODEL 8
REMARK VINA RESULT:      -7.4      3.150      4.736
REMARK  5 active torsions:
REMARK  status: ('A' for Active; 'I' for Inactive)
REMARK    1  A    between atoms: C5_5  and  O1_6 
REMARK    2  A    between atoms: C7_8  and  C8_9 
REMARK    3  A    between atoms: C8_9  and  C9_10 
REMARK       I    between atoms: C9_10  and  N1_12 
REMARK    4  A    between atoms: N1_12  and  S1_13 
REMARK    5  A    between atoms: S1_13  and  C10_16 
ROOT
HETATM    1  C9  UNL     1      24.077   1.968  52.171  1.00  0.00     0.235 C 
HETATM    2  O2  UNL     1      24.142   3.184  52.515  1.00  0.00    -0.272 OA
HETATM    3  N1  UNL     1      25.152   1.047  52.255  1.00  0.00    -0.250 N 
HETATM    4  H10 UNL     1      25.034   0.050  51.954  1.00  0.00     0.181 HD
ENDROOT
BRANCH   1   5
HETATM    5  C8  UNL     1      22.784   1.420  51.630  1.00  0.00     0.146 C 
BRANCH   5   6
HETATM    6  C7  UNL     1      21.874   0.965  52.696  1.00  0.00    -0.007 A 
HETATM    7  C2  UNL     1      22.035  -0.320  53.368  1.00  0.00    -0.036 A 
HETATM    8  C1  UNL     1      22.958  -1.237  53.156  1.00  0.00     0.024 C 
HETATM    9  C3  UNL     1      20.941  -0.380  54.343  1.00  0.00     0.014 A 
HETATM   10  C4  UNL     1      20.276   0.742  54.206  1.00  0.00     0.038 A 
HETATM   11  C5  UNL     1      20.836   1.607  53.182  1.00  0.00     0.075 A 
BRANCH  11  12
HETATM   12  O1  UNL     1      20.422   2.859  52.747  1.00  0.00    -0.355 OA
HETATM   13  C6  UNL     1      19.360   2.887  51.799  1.00  0.00     0.210 C 
ENDBRANCH  11  12
ENDBRANCH   5   6
ENDBRANCH   1   5
BRANCH   3  14
HETATM   14  S1  UNL     1      26.680   1.520  52.849  1.00  0.00     0.265 S 
HETATM   15  O3  UNL     1      27.265   2.542  51.891  1.00  0.00    -0.200 OA
HETATM   16  O4  UNL     1      26.475   2.234  54.152  1.00  0.00    -0.200 OA
BRANCH  14  17
HETATM   17  C10 UNL     1      27.791   0.219  53.086  1.00  0.00     0.079 A 
HETATM   18  C11 UNL     1      27.312  -1.061  52.796  1.00  0.00     0.025 A 
HETATM   19  C12 UNL     1      28.099  -2.190  52.943  1.00  0.00     0.002 A 
HETATM   20  C13 UNL     1      29.404  -2.042  53.393  1.00  0.00     0.000 A 
HETATM   21  C14 UNL     1      29.900  -0.789  53.685  1.00  0.00     0.002 A 
HETATM   22  C15 UNL     1      29.107   0.349  53.537  1.00  0.00     0.025 A 
ENDBRANCH  14  17
ENDBRANCH   3  14
TORSDOF 5
ENDMDL
MODEL 9
REMARK VINA RESULT:      -7.3      2.500      6.493
REMARK  5 active torsions:
REMARK  status: ('A' for Active; 'I' for Inactive)
REMARK    1  A    between atoms: C5_5  and  O1_6 
REMARK    2  A    between atoms: C7_8  and  C8_9 
REMARK    3  A    between atoms: C8_9  and  C9_10 
REMARK       I    between atoms: C9_10  and  N1_12 
REMARK    4  A    between atoms: N1_12  and  S1_13 
REMARK    5  A    between atoms: S1_13  and  C10_16 
ROOT
HETATM    1  C9  UNL     1      24.398   3.054  52.075  1.00  0.00     0.235 C 
HETATM    2  O2  UNL     1      23.203   2.830  51.725  1.00  0.00    -0.272 OA
HETATM    3  N1  UNL     1      25.321   3.839  51.338  1.00  0.00    -0.250 N 
HETATM    4  H10 UNL     1      26.299   3.987  51.683  1.00  0.00     0.181 HD
ENDROOT
BRANCH   1   5
HETATM    5  C8  UNL     1      24.916   2.463  53.358  1.00  0.00     0.146 C 
BRANCH   5   6
HETATM    6  C7  UNL     1      25.640   1.197  53.145  1.00  0.00    -0.007 A 
HETATM    7  C2  UNL     1      27.096   1.132  53.069  1.00  0.00    -0.036 A 
HETATM    8  C1  UNL     1      27.959   2.123  53.170  1.00  0.00     0.024 C 
HETATM    9  C3  UNL     1      27.402  -0.286  52.853  1.00  0.00     0.014 A 
HETATM   10  C4  UNL     1      26.245  -0.903  52.820  1.00  0.00     0.038 A 
HETATM   11  C5  UNL     1      25.121  -0.000  53.000  1.00  0.00     0.075 A 
BRANCH  11  12
HETATM   12  O1  UNL     1      23.759  -0.266  53.025  1.00  0.00    -0.355 OA
HETATM   13  C6  UNL     1      23.241  -0.831  54.225  1.00  0.00     0.210 C 
ENDBRANCH  11  12
ENDBRANCH   5   6
ENDBRANCH   1   5
BRANCH   3  14
HETATM   14  S1  UNL     1      24.880   4.574  49.864  1.00  0.00     0.265 S 
HETATM   15  O3  UNL     1      24.300   3.506  48.955  1.00  0.00    -0.200 OA
HETATM   16  O4  UNL     1      23.767   5.543  50.138  1.00  0.00    -0.200 OA
BRANCH  14  17
HETATM   17  C10 UNL     1      26.166   5.404  49.064  1.00  0.00     0.079 A 
HETATM   18  C11 UNL     1      27.368   4.703  48.939  1.00  0.00     0.025 A 
HETATM   19  C12 UNL     1      28.478   5.253  48.320  1.00  0.00     0.002 A 
HETATM   20  C13 UNL     1      28.389   6.541  47.808  1.00  0.00     0.000 A 
HETATM   21  C14 UNL     1      27.213   7.252  47.918  1.00  0.00     0.002 A 
HETATM   22  C15 UNL     1      26.095   6.698  48.542  1.00  0.00     0.025 A 
ENDBRANCH  14  17
ENDBRANCH   3  14
TORSDOF 5
ENDMDL
