MODEL 1
REMARK VINA RESULT:      -7.4      0.000      0.000
REMARK  5 active torsions:
REMARK  status: ('A' for Active; 'I' for Inactive)
REMARK    1  A    between atoms: N1_2  and  C2_3 
REMARK    2  A    between atoms: C3_4  and  O1_5 
REMARK    3  A    between atoms: C5_7  and  O2_8 
REMARK    4  A    between atoms: C9_12  and  N2_13 
REMARK    5  A    between atoms: N2_13  and  C11_15 
ROOT
HETATM    1  C2  UNL     1      21.730   0.875  51.408  1.00  0.00     0.094 A 
HETATM    2  C3  UNL     1      22.240   1.783  50.479  1.00  0.00     0.130 A 
HETATM    3  C5  UNL     1      23.564   2.198  50.557  1.00  0.00     0.104 A 
HETATM    4  C7  UNL     1      24.373   1.701  51.568  1.00  0.00     0.057 A 
HETATM    5  C8  UNL     1      23.827   0.812  52.457  1.00  0.00     0.044 A 
HETATM    6  C9  UNL     1      24.692   0.355  53.442  1.00  0.00     0.144 A 
HETATM    7  N3  UNL     1      24.152  -0.531  54.329  1.00  0.00    -0.223 NA
HETATM    8  C17 UNL     1      22.871  -0.944  54.267  1.00  0.00     0.236 A 
HETATM    9  N4  UNL     1      22.026  -0.506  53.316  1.00  0.00    -0.239 NA
HETATM   10  C18 UNL     1      22.524   0.361  52.434  1.00  0.00     0.101 A 
ENDROOT
BRANCH   6  11
HETATM   11  N2  UNL     1      26.055   0.700  53.627  1.00  0.00    -0.335 N 
HETATM   12  C10 UNL     1      26.521   2.043  54.015  1.00  0.00     0.158 C 
BRANCH  11  13
HETATM   13  C11 UNL     1      27.029  -0.306  53.428  1.00  0.00     0.035 A 
HETATM   14  C12 UNL     1      26.789  -1.513  52.824  1.00  0.00     0.029 A 
HETATM   15  C13 UNL     1      27.723  -2.503  52.622  1.00  0.00     0.002 A 
HETATM   16  C14 UNL     1      29.008  -2.289  53.050  1.00  0.00     0.000 A 
HETATM   17  C15 UNL     1      29.330  -1.094  53.670  1.00  0.00     0.002 A 
HETATM   18  C16 UNL     1      28.347  -0.141  53.844  1.00  0.00     0.029 A 
ENDBRANCH  11  13
ENDBRANCH   6  11
BRANCH   3  19
HETATM   19  O2  UNL     1      23.990   3.100  49.598  1.00  0.00    -0.353 OA
HETATM   20  C6  UNL     1      25.342   3.530  49.666  1.00  0.00     0.210 C 
ENDBRANCH   3  19
BRANCH   1  21
HETATM   21  N1  UNL     1      20.369   0.493  51.270  1.00  0.00    -0.390 N 
HETATM   22  C1  UNL     1      19.301   1.196  51.936  1.00  0.00     0.146 C 
HETATM   23  H4  UNL     1      20.026  -0.309  50.690  1.00  0.00     0.159 HD
ENDBRANCH   1  21
BRANCH   2  24
HETATM   24  O1  UNL     1      21.417   2.263  49.484  1.00  0.00    -0.351 OA
HETATM   25  C4  UNL     1      21.353   1.698  48.195  1.00  0.00     0.210 C 
ENDBRANCH   2  24
TORSDOF 5
ENDMDL
MODEL 2
REMARK VINA RESULT:      -7.3      1.939      3.373
REMARK  5 active torsions:
REMARK  status: ('A' for Active; 'I' for Inactive)
REMARK    1  A    between atoms: N1_2  and  C2_3 
REMARK    2  A    between atoms: C3_4  and  O1_5 
REMARK    3  A    between atoms: C5_7  and  O2_8 
REMARK    4  A    between atoms: C9_12  and  N2_13 
REMARK    5  A    between atoms: N2_13  and  C11_15 
ROOT
HETATM    1  C2  UNL     1      22.775   2.168  50.901  1.00  0.00     0.094 A 
HETATM    2  C3  UNL     1      22.142   1.531  51.970  1.00  0.00     0.130 A 
HETATM    3  C5  UNL     1      22.888   1.029  53.029  1.00  0.00     0.104 A 
HETATM    4  C7  UNL     1      24.268   1.168  53.013  1.00  0.00     0.057 A 
HETATM    5  C8  UNL     1      24.845   1.801  51.943  1.00  0.00     0.044 A 
HETATM    6  C9  UNL     1      26.227   1.905  51.992  1.00  0.00     0.144 A 
HETATM    7  N3  UNL     1      26.806   2.534  50.927  1.00  0.00    -0.223 NA
HETATM    8  C17 UNL     1      26.097   3.026  49.893  1.00  0.00     0.236 A 
HETATM    9  N4  UNL     1      24.756   2.929  49.837  1.00  0.00    -0.239 NA
HETATM   10  C18 UNL     1      24.162   2.319  50.862  1.00  0.00     0.101 A 
ENDROOT
BRANCH   6  11
HETATM   11  N2  UNL     1      27.096   1.437  53.011  1.00  0.00    -0.335 N 
HETATM   12  C10 UNL     1      27.595   2.271  54.118  1.00  0.00     0.158 C 
BRANCH  11  13
HETATM   13  C11 UNL     1      27.512   0.086  52.961  1.00  0.00     0.035 A 
HETATM   14  C12 UNL     1      26.742  -0.949  52.496  1.00  0.00     0.029 A 
HETATM   15  C13 UNL     1      27.129  -2.268  52.441  1.00  0.00     0.002 A 
HETATM   16  C14 UNL     1      28.384  -2.602  52.881  1.00  0.00     0.000 A 
HETATM   17  C15 UNL     1      29.222  -1.612  53.366  1.00  0.00     0.002 A 
HETATM   18  C16 UNL     1      28.775  -0.308  53.396  1.00  0.00     0.029 A 
ENDBRANCH  11  13
ENDBRANCH   6  11
BRANCH   3  19
HETATM   19  O2  UNL     1      22.184   0.413  54.048  1.00  0.00    -0.353 OA
HETATM   20  C6  UNL     1      22.554  -0.918  54.380  1.00  0.00     0.210 C 
ENDBRANCH   3  19
BRANCH   1  21
HETATM   21  N1  UNL     1      21.953   2.657  49.851  1.00  0.00    -0.390 N 
HETATM   22  C1  UNL     1      21.688   1.889  48.659  1.00  0.00     0.146 C 
HETATM   23  H4  UNL     1      21.478   3.591  49.845  1.00  0.00     0.159 HD
ENDBRANCH   1  21
BRANCH   2  24
HETATM   24  O1  UNL     1      20.770   1.405  51.962  1.00  0.00    -0.351 OA
HETATM   25  C4  UNL     1      20.105   0.229  51.565  1.00  0.00     0.210 C 
ENDBRANCH   2  24
TORSDOF 5
ENDMDL
MODEL 3
REMARK VINA RESULT:      -7.3      1.486      2.076
REMARK  5 active torsions:
REMARK  status: ('A' for Active; 'I' for Inactive)
REMARK    1  A    between atoms: N1_2  and  C2_3 
REMARK    2  A    between atoms: C3_4  and  O1_5 
REMARK    3  A    between atoms: C5_7  and  O2_8 
REMARK    4  A    between atoms: C9_12  and  N2_13 
REMARK    5  A    between atoms: N2_13  and  C11_15 
ROOT
HETATM    1  C2  UNL     1      20.957  -0.025  53.625  1.00  0.00     0.094 A 
HETATM    2  C3  UNL     1      20.827   0.846  52.542  1.00  0.00     0.130 A 
HETATM    3  C5  UNL     1      21.955   1.397  51.946  1.00  0.00     0.104 A 
HETATM    4  C7  UNL     1      23.210   1.073  52.438  1.00  0.00     0.057 A 
HETATM    5  C8  UNL     1      23.288   0.214  53.503  1.00  0.00     0.044 A 
HETATM    6  C9  UNL     1      24.573  -0.066  53.944  1.00  0.00     0.144 A 
HETATM    7  N3  UNL     1      24.655  -0.922  55.005  1.00  0.00    -0.223 NA
HETATM    8  C17 UNL     1      23.572  -1.465  55.594  1.00  0.00     0.236 A 
HETATM    9  N4  UNL     1      22.322  -1.198  55.173  1.00  0.00    -0.239 NA
HETATM   10  C18 UNL     1      22.210  -0.366  54.138  1.00  0.00     0.101 A 
ENDROOT
BRANCH   6  11
HETATM   11  N2  UNL     1      25.796   0.430  53.424  1.00  0.00    -0.335 N 
HETATM   12  C10 UNL     1      25.996   1.815  52.964  1.00  0.00     0.158 C 
BRANCH  11  13
HETATM   13  C11 UNL     1      26.892  -0.460  53.340  1.00  0.00     0.035 A 
HETATM   14  C12 UNL     1      26.849  -1.695  52.746  1.00  0.00     0.029 A 
HETATM   15  C13 UNL     1      27.904  -2.573  52.656  1.00  0.00     0.002 A 
HETATM   16  C14 UNL     1      29.110  -2.207  53.196  1.00  0.00     0.000 A 
HETATM   17  C15 UNL     1      29.234  -0.974  53.813  1.00  0.00     0.002 A 
HETATM   18  C16 UNL     1      28.138  -0.138  53.872  1.00  0.00     0.029 A 
ENDBRANCH  11  13
ENDBRANCH   6  11
BRANCH   3  19
HETATM   19  O2  UNL     1      21.739   2.251  50.879  1.00  0.00    -0.353 OA
HETATM   20  C6  UNL     1      22.292   1.877  49.625  1.00  0.00     0.210 C 
ENDBRANCH   3  19
BRANCH   1  21
HETATM   21  N1  UNL     1      19.764  -0.553  54.187  1.00  0.00    -0.390 N 
HETATM   22  C1  UNL     1      19.170  -1.780  53.718  1.00  0.00     0.146 C 
HETATM   23  H4  UNL     1      19.222  -0.114  54.969  1.00  0.00     0.159 HD
ENDBRANCH   1  21
BRANCH   2  24
HETATM   24  O1  UNL     1      19.570   1.152  52.071  1.00  0.00    -0.351 OA
HETATM   25  C4  UNL     1      18.994   0.530  50.947  1.00  0.00     0.210 C 
ENDBRANCH   2  24
TORSDOF 5
ENDMDL
MODEL 4
REMARK VINA RESULT:      -7.1      1.981      5.948
REMARK  5 active torsions:
REMARK  status: ('A' for Active; 'I' for Inactive)
REMARK    1  A    between atoms: N1_2  and  C2_3 
REMARK    2  A    between atoms: C3_4  and  O1_5 
REMARK    3  A    between atoms: C5_7  and  O2_8 
REMARK    4  A    between atoms: C9_12  and  N2_13 
REMARK    5  A    between atoms: N2_13  and  C11_15 
ROOT
HETATM    1  C2  UNL     1      25.926   0.048  53.013  1.00  0.00     0.094 A 
HETATM    2  C3  UNL     1      26.733   1.008  52.399  1.00  0.00     0.130 A 
HETATM    3  C5  UNL     1      26.160   2.085  51.735  1.00  0.00     0.104 A 
HETATM    4  C7  UNL     1      24.779   2.198  51.688  1.00  0.00     0.057 A 
HETATM    5  C8  UNL     1      24.028   1.232  52.305  1.00  0.00     0.044 A 
HETATM    6  C9  UNL     1      22.654   1.407  52.220  1.00  0.00     0.144 A 
HETATM    7  N3  UNL     1      21.902   0.446  52.834  1.00  0.00    -0.223 NA
HETATM    8  C17 UNL     1      22.441  -0.605  53.482  1.00  0.00     0.236 A 
HETATM    9  N4  UNL     1      23.773  -0.782  53.569  1.00  0.00    -0.239 NA
HETATM   10  C18 UNL     1      24.533   0.140  52.979  1.00  0.00     0.101 A 
ENDROOT
BRANCH   6  11
HETATM   11  N2  UNL     1      21.952   2.457  51.576  1.00  0.00    -0.335 N 
HETATM   12  C10 UNL     1      21.140   3.463  52.282  1.00  0.00     0.158 C 
BRANCH  11  13
HETATM   13  C11 UNL     1      22.035   2.545  50.166  1.00  0.00     0.035 A 
HETATM   14  C12 UNL     1      21.855   1.490  49.308  1.00  0.00     0.029 A 
HETATM   15  C13 UNL     1      21.933   1.557  47.937  1.00  0.00     0.002 A 
HETATM   16  C14 UNL     1      22.210   2.766  47.353  1.00  0.00     0.000 A 
HETATM   17  C15 UNL     1      22.404   3.880  48.153  1.00  0.00     0.002 A 
HETATM   18  C16 UNL     1      22.314   3.748  49.523  1.00  0.00     0.029 A 
ENDBRANCH  11  13
ENDBRANCH   6  11
BRANCH   3  19
HETATM   19  O2  UNL     1      27.030   2.990  51.153  1.00  0.00    -0.353 OA
HETATM   20  C6  UNL     1      26.609   3.615  49.950  1.00  0.00     0.210 C 
ENDBRANCH   3  19
BRANCH   1  21
HETATM   21  N1  UNL     1      26.576  -1.028  53.674  1.00  0.00    -0.390 N 
HETATM   22  C1  UNL     1      27.167  -2.129  52.955  1.00  0.00     0.146 C 
HETATM   23  H4  UNL     1      26.683  -1.118  54.712  1.00  0.00     0.159 HD
ENDBRANCH   1  21
BRANCH   2  24
HETATM   24  O1  UNL     1      28.103   0.874  52.458  1.00  0.00    -0.351 OA
HETATM   25  C4  UNL     1      28.884   1.395  53.507  1.00  0.00     0.210 C 
ENDBRANCH   2  24
TORSDOF 5
ENDMDL
MODEL 5
REMARK VINA RESULT:      -6.9      2.466      6.005
REMARK  5 active torsions:
REMARK  status: ('A' for Active; 'I' for Inactive)
REMARK    1  A    between atoms: N1_2  and  C2_3 
REMARK    2  A    between atoms: C3_4  and  O1_5 
REMARK    3  A    between atoms: C5_7  and  O2_8 
REMARK    4  A    between atoms: C9_12  and  N2_13 
REMARK    5  A    between atoms: N2_13  and  C11_15 
ROOT
HETATM    1  C2  UNL     1      24.743  -0.781  54.459  1.00  0.00     0.094 A 
HETATM    2  C3  UNL     1      25.858  -0.341  53.743  1.00  0.00     0.130 A 
HETATM    3  C5  UNL     1      25.697   0.403  52.582  1.00  0.00     0.104 A 
HETATM    4  C7  UNL     1      24.417   0.705  52.140  1.00  0.00     0.057 A 
HETATM    5  C8  UNL     1      23.353   0.252  52.876  1.00  0.00     0.044 A 
HETATM    6  C9  UNL     1      22.103   0.590  52.378  1.00  0.00     0.144 A 
HETATM    7  N3  UNL     1      21.041   0.141  53.109  1.00  0.00    -0.223 NA
HETATM    8  C17 UNL     1      21.179  -0.582  54.237  1.00  0.00     0.236 A 
HETATM    9  N4  UNL     1      22.388  -0.914  54.727  1.00  0.00    -0.239 NA
HETATM   10  C18 UNL     1      23.445  -0.490  54.035  1.00  0.00     0.101 A 
ENDROOT
BRANCH   6  11
HETATM   11  N2  UNL     1      21.809   1.340  51.211  1.00  0.00    -0.335 N 
HETATM   12  C10 UNL     1      21.174   0.778  50.006  1.00  0.00     0.158 C 
BRANCH  11  13
HETATM   13  C11 UNL     1      22.145   2.714  51.201  1.00  0.00     0.035 A 
HETATM   14  C12 UNL     1      22.777   3.354  50.165  1.00  0.00     0.029 A 
HETATM   15  C13 UNL     1      23.112   4.688  50.139  1.00  0.00     0.002 A 
HETATM   16  C14 UNL     1      22.800   5.464  51.225  1.00  0.00     0.000 A 
HETATM   17  C15 UNL     1      22.162   4.891  52.312  1.00  0.00     0.002 A 
HETATM   18  C16 UNL     1      21.852   3.547  52.278  1.00  0.00     0.029 A 
ENDBRANCH  11  13
ENDBRANCH   6  11
BRANCH   3  19
HETATM   19  O2  UNL     1      26.852   0.799  51.932  1.00  0.00    -0.353 OA
HETATM   20  C6  UNL     1      27.091   2.195  51.823  1.00  0.00     0.210 C 
ENDBRANCH   3  19
BRANCH   1  21
HETATM   21  N1  UNL     1      24.979  -1.537  55.638  1.00  0.00    -0.390 N 
HETATM   22  C1  UNL     1      25.085  -0.922  56.938  1.00  0.00     0.146 C 
HETATM   23  H4  UNL     1      25.094  -2.578  55.672  1.00  0.00     0.159 HD
ENDBRANCH   1  21
BRANCH   2  24
HETATM   24  O1  UNL     1      27.119  -0.654  54.202  1.00  0.00    -0.351 OA
HETATM   25  C4  UNL     1      27.934   0.257  54.900  1.00  0.00     0.210 C 
ENDBRANCH   2  24
TORSDOF 5
ENDMDL
MODEL 6
REMARK VINA RESULT:      -6.8      2.632      6.511
REMARK  5 active torsions:
REMARK  status: ('A' for Active; 'I' for Inactive)
REMARK    1  A    between atoms: N1_2  and  C2_3 
REMARK    2  A    between atoms: C3_4  and  O1_5 
REMARK    3  A    between atoms: C5_7  and  O2_8 
REMARK    4  A    between atoms: C9_12  and  N2_13 
REMARK    5  A    between atoms: N2_13  and  C11_15 
ROOT
HETATM    1  C2  UNL     1      25.022   0.088  53.045  1.00  0.00     0.094 A 
HETATM    2  C3  UNL     1      23.712  -0.225  53.415  1.00  0.00     0.130 A 
HETATM    3  C5  UNL     1      22.656   0.577  53.003  1.00  0.00     0.104 A 
HETATM    4  C7  UNL     1      22.915   1.692  52.219  1.00  0.00     0.057 A 
HETATM    5  C8  UNL     1      24.216   1.959  51.880  1.00  0.00     0.044 A 
HETATM    6  C9  UNL     1      24.403   3.088  51.096  1.00  0.00     0.144 A 
HETATM    7  N3  UNL     1      25.698   3.357  50.756  1.00  0.00    -0.223 NA
HETATM    8  C17 UNL     1      26.734   2.590  51.148  1.00  0.00     0.236 A 
HETATM    9  N4  UNL     1      26.561   1.494  51.909  1.00  0.00    -0.239 NA
HETATM   10  C18 UNL     1      25.307   1.205  52.257  1.00  0.00     0.101 A 
ENDROOT
BRANCH   6  11
HETATM   11  N2  UNL     1      23.413   3.982  50.613  1.00  0.00    -0.335 N 
HETATM   12  C10 UNL     1      22.836   5.081  51.405  1.00  0.00     0.158 C 
BRANCH  11  13
HETATM   13  C11 UNL     1      22.950   3.807  49.287  1.00  0.00     0.035 A 
HETATM   14  C12 UNL     1      22.730   2.591  48.693  1.00  0.00     0.029 A 
HETATM   15  C13 UNL     1      22.280   2.403  47.407  1.00  0.00     0.002 A 
HETATM   16  C14 UNL     1      22.023   3.506  46.634  1.00  0.00     0.000 A 
HETATM   17  C15 UNL     1      22.220   4.770  47.163  1.00  0.00     0.002 A 
HETATM   18  C16 UNL     1      22.674   4.893  48.460  1.00  0.00     0.029 A 
ENDBRANCH  11  13
ENDBRANCH   6  11
BRANCH   3  19
HETATM   19  O2  UNL     1      21.390   0.198  53.413  1.00  0.00    -0.353 OA
HETATM   20  C6  UNL     1      20.368   0.172  52.428  1.00  0.00     0.210 C 
ENDBRANCH   3  19
BRANCH   1  21
HETATM   21  N1  UNL     1      26.054  -0.774  53.501  1.00  0.00    -0.390 N 
HETATM   22  C1  UNL     1      26.701  -1.726  52.633  1.00  0.00     0.146 C 
HETATM   23  H4  UNL     1      26.429  -0.797  54.479  1.00  0.00     0.159 HD
ENDBRANCH   1  21
BRANCH   2  24
HETATM   24  O1  UNL     1      23.480  -1.337  54.194  1.00  0.00    -0.351 OA
HETATM   25  C4  UNL     1      23.411  -1.294  55.600  1.00  0.00     0.210 C 
ENDBRANCH   2  24
TORSDOF 5
ENDMDL
MODEL 7
REMARK VINA RESULT:      -6.8      7.866     11.440
REMARK  5 active torsions:
REMARK  status: ('A' for Active; 'I' for Inactive)
REMARK    1  A    between atoms: N1_2  and  C2_3 
REMARK    2  A    between atoms: C3_4  and  O1_5 
REMARK    3  A    between atoms: C5_7  and  O2_8 
REMARK    4  A    between atoms: C9_12  and  N2_13 
REMARK    5  A    between atoms: N2_13  and  C11_15 
ROOT
HETATM    1  C2  UNL     1      33.446   6.678  48.349  1.00  0.00     0.094 A 
HETATM    2  C3  UNL     1      33.454   5.585  47.481  1.00  0.00     0.130 A 
HETATM    3  C5  UNL     1      32.288   5.195  46.833  1.00  0.00     0.104 A 
HETATM    4  C7  UNL     1      31.117   5.902  47.058  1.00  0.00     0.057 A 
HETATM    5  C8  UNL     1      31.157   6.968  47.919  1.00  0.00     0.044 A 
HETATM    6  C9  UNL     1      29.951   7.630  48.098  1.00  0.00     0.144 A 
HETATM    7  N3  UNL     1      29.988   8.692  48.955  1.00  0.00    -0.223 NA
HETATM    8  C17 UNL     1      31.109   9.084  49.591  1.00  0.00     0.236 A 
HETATM    9  N4  UNL     1      32.283   8.447  49.423  1.00  0.00    -0.239 NA
HETATM   10  C18 UNL     1      32.279   7.405  48.592  1.00  0.00     0.101 A 
ENDROOT
BRANCH   6  11
HETATM   11  N2  UNL     1      28.701   7.331  47.499  1.00  0.00    -0.335 N 
HETATM   12  C10 UNL     1      28.270   7.843  46.187  1.00  0.00     0.158 C 
BRANCH  11  13
HETATM   13  C11 UNL     1      27.810   6.488  48.204  1.00  0.00     0.035 A 
HETATM   14  C12 UNL     1      28.017   5.152  48.432  1.00  0.00     0.029 A 
HETATM   15  C13 UNL     1      27.163   4.319  49.116  1.00  0.00     0.002 A 
HETATM   16  C14 UNL     1      26.000   4.842  49.621  1.00  0.00     0.000 A 
HETATM   17  C15 UNL     1      25.719   6.184  49.432  1.00  0.00     0.002 A 
HETATM   18  C16 UNL     1      26.617   6.969  48.737  1.00  0.00     0.029 A 
ENDBRANCH  11  13
ENDBRANCH   6  11
BRANCH   3  19
HETATM   19  O2  UNL     1      32.382   4.102  45.990  1.00  0.00    -0.353 OA
HETATM   20  C6  UNL     1      31.804   2.884  46.437  1.00  0.00     0.210 C 
ENDBRANCH   3  19
BRANCH   1  21
HETATM   21  N1  UNL     1      34.671   7.023  48.978  1.00  0.00    -0.390 N 
HETATM   22  C1  UNL     1      35.616   7.931  48.377  1.00  0.00     0.146 C 
HETATM   23  H4  UNL     1      34.993   6.661  49.907  1.00  0.00     0.159 HD
ENDBRANCH   1  21
BRANCH   2  24
HETATM   24  O1  UNL     1      34.630   4.898  47.273  1.00  0.00    -0.351 OA
HETATM   25  C4  UNL     1      34.962   3.713  47.958  1.00  0.00     0.210 C 
ENDBRANCH   2  24
TORSDOF 5
ENDMDL
MODEL 8
REMARK VINA RESULT:      -6.6      2.609      5.912
REMARK  5 active torsions:
REMARK  status: ('A' for Active; 'I' for Inactive)
REMARK    1  A    between atoms: N1_2  and  C2_3 
REMARK    2  A    between atoms: C3_4  and  O1_5 
REMARK    3  A    between atoms: C5_7  and  O2_8 
REMARK    4  A    between atoms: C9_12  and  N2_13 
REMARK    5  A    between atoms: N2_13  and  C11_15 
ROOT
HETATM    1  C2  UNL     1      22.764   0.512  53.400  1.00  0.00     0.094 A 
HETATM    2  C3  UNL     1      24.107   0.243  53.126  1.00  0.00     0.130 A 
HETATM    3  C5  UNL     1      24.754   0.894  52.082  1.00  0.00     0.104 A 
HETATM    4  C7  UNL     1      24.052   1.812  51.316  1.00  0.00     0.057 A 
HETATM    5  C8  UNL     1      22.736   2.043  51.622  1.00  0.00     0.044 A 
HETATM    6  C9  UNL     1      22.095   2.973  50.816  1.00  0.00     0.144 A 
HETATM    7  N3  UNL     1      20.784   3.205  51.118  1.00  0.00    -0.223 NA
HETATM    8  C17 UNL     1      20.142   2.583  52.126  1.00  0.00     0.236 A 
HETATM    9  N4  UNL     1      20.756   1.680  52.913  1.00  0.00    -0.239 NA
HETATM   10  C18 UNL     1      22.037   1.432  52.642  1.00  0.00     0.101 A 
ENDROOT
BRANCH   6  11
HETATM   11  N2  UNL     1      22.642   3.699  49.727  1.00  0.00    -0.335 N 
HETATM   12  C10 UNL     1      22.382   3.386  48.312  1.00  0.00     0.158 C 
BRANCH  11  13
HETATM   13  C11 UNL     1      23.492   4.793  50.018  1.00  0.00     0.035 A 
HETATM   14  C12 UNL     1      23.221   5.764  50.947  1.00  0.00     0.029 A 
HETATM   15  C13 UNL     1      24.034   6.833  51.242  1.00  0.00     0.002 A 
HETATM   16  C14 UNL     1      25.220   6.962  50.564  1.00  0.00     0.000 A 
HETATM   17  C15 UNL     1      25.565   6.021  49.610  1.00  0.00     0.002 A 
HETATM   18  C16 UNL     1      24.706   4.971  49.359  1.00  0.00     0.029 A 
ENDBRANCH  11  13
ENDBRANCH   6  11
BRANCH   3  19
HETATM   19  O2  UNL     1      26.083   0.570  51.878  1.00  0.00    -0.353 OA
HETATM   20  C6  UNL     1      27.033   1.619  52.001  1.00  0.00     0.210 C 
ENDBRANCH   3  19
BRANCH   1  21
HETATM   21  N1  UNL     1      22.165  -0.188  54.480  1.00  0.00    -0.390 N 
HETATM   22  C1  UNL     1      21.517  -1.464  54.306  1.00  0.00     0.146 C 
HETATM   23  H4  UNL     1      22.138   0.148  55.473  1.00  0.00     0.159 HD
ENDBRANCH   1  21
BRANCH   2  24
HETATM   24  O1  UNL     1      24.782  -0.673  53.901  1.00  0.00    -0.351 OA
HETATM   25  C4  UNL     1      25.670  -0.307  54.931  1.00  0.00     0.210 C 
ENDBRANCH   2  24
TORSDOF 5
ENDMDL
MODEL 9
REMARK VINA RESULT:      -6.4      2.750      5.705
REMARK  5 active torsions:
REMARK  status: ('A' for Active; 'I' for Inactive)
REMARK    1  A    between atoms: N1_2  and  C2_3 
REMARK    2  A    between atoms: C3_4  and  O1_5 
REMARK    3  A    between atoms: C5_7  and  O2_8 
REMARK    4  A    between atoms: C9_12  and  N2_13 
REMARK    5  A    between atoms: N2_13  and  C11_15 
ROOT
HETATM    1  C2  UNL     1      25.566   4.701  49.671  1.00  0.00     0.094 A 
HETATM    2  C3  UNL     1      24.508   5.291  48.977  1.00  0.00     0.130 A 
HETATM    3  C5  UNL     1      23.247   4.709  48.992  1.00  0.00     0.104 A 
HETATM    4  C7  UNL     1      23.050   3.535  49.704  1.00  0.00     0.057 A 
HETATM    5  C8  UNL     1      24.118   2.993  50.370  1.00  0.00     0.044 A 
HETATM    6  C9  UNL     1      23.850   1.820  51.062  1.00  0.00     0.144 A 
HETATM    7  N3  UNL     1      24.911   1.277  51.726  1.00  0.00    -0.223 NA
HETATM    8  C17 UNL     1      26.140   1.829  51.722  1.00  0.00     0.236 A 
HETATM    9  N4  UNL     1      26.409   2.966  51.054  1.00  0.00    -0.239 NA
HETATM   10  C18 UNL     1      25.392   3.520  50.395  1.00  0.00     0.101 A 
ENDROOT
BRANCH   6  11
HETATM   11  N2  UNL     1      22.613   1.131  51.154  1.00  0.00    -0.335 N 
HETATM   12  C10 UNL     1      21.674   0.967  50.031  1.00  0.00     0.158 C 
BRANCH  11  13
HETATM   13  C11 UNL     1      22.259   0.566  52.401  1.00  0.00     0.035 A 
HETATM   14  C12 UNL     1      22.937  -0.457  53.014  1.00  0.00     0.029 A 
HETATM   15  C13 UNL     1      22.606  -1.018  54.225  1.00  0.00     0.002 A 
HETATM   16  C14 UNL     1      21.513  -0.535  54.896  1.00  0.00     0.000 A 
HETATM   17  C15 UNL     1      20.776   0.498  54.342  1.00  0.00     0.002 A 
HETATM   18  C16 UNL     1      21.158   1.019  53.123  1.00  0.00     0.029 A 
ENDBRANCH  11  13
ENDBRANCH   6  11
BRANCH   3  19
HETATM   19  O2  UNL     1      22.255   5.357  48.278  1.00  0.00    -0.353 OA
HETATM   20  C6  UNL     1      21.109   5.784  49.000  1.00  0.00     0.210 C 
ENDBRANCH   3  19
BRANCH   1  21
HETATM   21  N1  UNL     1      26.828   5.349  49.614  1.00  0.00    -0.390 N 
HETATM   22  C1  UNL     1      27.795   5.062  48.583  1.00  0.00     0.146 C 
HETATM   23  H4  UNL     1      27.164   6.073  50.293  1.00  0.00     0.159 HD
ENDBRANCH   1  21
BRANCH   2  24
HETATM   24  O1  UNL     1      24.729   6.457  48.277  1.00  0.00    -0.351 OA
HETATM   25  C4  UNL     1      24.583   7.738  48.844  1.00  0.00     0.210 C 
ENDBRANCH   2  24
TORSDOF 5
ENDMDL
