MODEL 1
REMARK VINA RESULT:      -8.1      0.000      0.000
REMARK  7 active torsions:
REMARK  status: ('A' for Active; 'I' for Inactive)
REMARK    1  A    between atoms: C2_2  and  C3_3 
REMARK    2  A    between atoms: C13_16  and  O1_17 
REMARK    3  A    between atoms: O1_17  and  C14_18 
REMARK    4  A    between atoms: C14_18  and  C15_19 
REMARK    5  A    between atoms: C15_19  and  C16_20 
REMARK    6  A    between atoms: C16_20  and  N3_21 
REMARK    7  A    between atoms: C21_27  and  N4_28 
ROOT
HETATM    1  C3  UNL     1      19.871  -0.403  52.801  1.00  0.00    -0.034 C 
HETATM    2  C4  UNL     1      19.502   0.274  51.770  1.00  0.00     0.028 C 
HETATM    3  C5  UNL     1      19.648   1.115  50.613  1.00  0.00     0.016 A 
HETATM    4 CL1  UNL     1      19.253   2.068  49.293  1.00  0.00    -0.174 Cl
HETATM    5  C6  UNL     1      20.908   1.418  50.384  1.00  0.00     0.174 A 
HETATM    6  C7  UNL     1      22.258   1.870  49.964  1.00  0.00     0.115 C 
HETATM    7  N1  UNL     1      23.086   2.536  51.005  1.00  0.00    -0.352 N 
HETATM    8  C8  UNL     1      23.307   1.894  52.321  1.00  0.00     0.016 A 
HETATM    9  C9  UNL     1      24.060   2.877  52.763  1.00  0.00     0.059 A 
HETATM   10  C10 UNL     1      23.897   3.591  51.505  1.00  0.00     0.182 A 
HETATM   11  C11 UNL     1      23.586   4.959  51.395  1.00  0.00     0.147 A 
HETATM   12  N2  UNL     1      24.814   4.321  50.832  1.00  0.00    -0.260 NA
HETATM   13  C12 UNL     1      22.677   0.659  52.543  1.00  0.00     0.123 C 
HETATM   14  C13 UNL     1      22.383  -0.249  53.574  1.00  0.00     0.073 C 
HETATM   15  C21 UNL     1      21.061  -0.684  53.615  1.00  0.00     0.042 C 
ENDROOT
BRANCH  14  16
HETATM   16  O1  UNL     1      23.218  -0.766  54.546  1.00  0.00    -0.353 OA
BRANCH  16  17
HETATM   17  C14 UNL     1      24.564  -1.093  54.314  1.00  0.00     0.177 C 
BRANCH  17  18
HETATM   18  C15 UNL     1      25.448  -0.543  55.447  1.00  0.00     0.057 C 
BRANCH  18  19
HETATM   19  C16 UNL     1      26.367   0.546  54.969  1.00  0.00     0.274 C 
BRANCH  19  20
HETATM   20  N3  UNL     1      27.481   0.027  54.172  1.00  0.00     0.092 N 
HETATM   21  C17 UNL     1      28.707   0.354  54.888  1.00  0.00     0.298 C 
HETATM   22  C18 UNL     1      29.404   1.540  54.311  1.00  0.00     0.198 C 
HETATM   23  O2  UNL     1      28.471   2.577  54.145  1.00  0.00    -0.388 OA
HETATM   24  C19 UNL     1      27.628   2.232  53.064  1.00  0.00     0.198 C 
HETATM   25  C20 UNL     1      27.546   0.734  52.894  1.00  0.00     0.298 C 
ENDBRANCH  19  20
ENDBRANCH  18  19
ENDBRANCH  17  18
ENDBRANCH  16  17
ENDBRANCH  14  16
BRANCH  15  26
HETATM   26  N4  UNL     1      20.834  -1.601  54.663  1.00  0.00    -0.300 NA
HETATM   27  H28 UNL     1      19.849  -1.642  55.114  1.00  0.00     0.124 HD
HETATM   28  H29 UNL     1      19.895  -1.614  55.063  1.00  0.00     0.124 HD
ENDBRANCH  15  26
BRANCH   1  29
HETATM   29  C2  UNL     1      18.677  -1.046  53.442  1.00  0.00     0.036 C 
HETATM   30  C1  UNL     1      17.513  -1.135  52.521  1.00  0.00     0.010 C 
ENDBRANCH   1  29
TORSDOF 7
ENDMDL
MODEL 2
REMARK VINA RESULT:      -7.9      2.965      6.159
REMARK  7 active torsions:
REMARK  status: ('A' for Active; 'I' for Inactive)
REMARK    1  A    between atoms: C2_2  and  C3_3 
REMARK    2  A    between atoms: C13_16  and  O1_17 
REMARK    3  A    between atoms: O1_17  and  C14_18 
REMARK    4  A    between atoms: C14_18  and  C15_19 
REMARK    5  A    between atoms: C15_19  and  C16_20 
REMARK    6  A    between atoms: C16_20  and  N3_21 
REMARK    7  A    between atoms: C21_27  and  N4_28 
ROOT
HETATM    1  C3  UNL     1      21.760   1.501  51.796  1.00  0.00    -0.034 C 
HETATM    2  C4  UNL     1      21.587   0.451  52.523  1.00  0.00     0.028 C 
HETATM    3  C5  UNL     1      21.940  -0.604  53.433  1.00  0.00     0.016 A 
HETATM    4 CL1  UNL     1      21.824  -1.998  54.357  1.00  0.00    -0.174 Cl
HETATM    5  C6  UNL     1      23.190  -0.510  53.832  1.00  0.00     0.174 A 
HETATM    6  C7  UNL     1      24.564  -0.577  54.391  1.00  0.00     0.115 C 
HETATM    7  N1  UNL     1      25.680  -0.556  53.408  1.00  0.00    -0.352 N 
HETATM    8  C8  UNL     1      25.756   0.500  52.372  1.00  0.00     0.016 A 
HETATM    9  C9  UNL     1      26.871   0.027  51.860  1.00  0.00     0.059 A 
HETATM   10  C10 UNL     1      26.881  -1.054  52.834  1.00  0.00     0.182 A 
HETATM   11  C11 UNL     1      27.119  -2.407  52.527  1.00  0.00     0.147 A 
HETATM   12  N2  UNL     1      27.943  -1.595  53.473  1.00  0.00    -0.260 NA
HETATM   13  C12 UNL     1      24.719   1.446  52.347  1.00  0.00     0.123 C 
HETATM   14  C13 UNL     1      24.194   2.470  51.543  1.00  0.00     0.073 C 
HETATM   15  C21 UNL     1      22.817   2.413  51.343  1.00  0.00     0.042 C 
ENDROOT
BRANCH  14  16
HETATM   16  O1  UNL     1      24.849   3.520  50.927  1.00  0.00    -0.353 OA
BRANCH  16  17
HETATM   17  C14 UNL     1      26.103   3.391  50.308  1.00  0.00     0.177 C 
BRANCH  17  18
HETATM   18  C15 UNL     1      26.349   4.571  49.353  1.00  0.00     0.057 C 
BRANCH  18  19
HETATM   19  C16 UNL     1      25.070   5.260  48.962  1.00  0.00     0.274 C 
BRANCH  19  20
HETATM   20  N3  UNL     1      25.162   6.716  49.083  1.00  0.00     0.092 N 
HETATM   21  C17 UNL     1      25.161   7.028  50.507  1.00  0.00     0.298 C 
HETATM   22  C18 UNL     1      23.829   7.497  50.986  1.00  0.00     0.198 C 
HETATM   23  O2  UNL     1      22.844   6.604  50.531  1.00  0.00    -0.388 OA
HETATM   24  C19 UNL     1      22.692   6.799  49.140  1.00  0.00     0.198 C 
HETATM   25  C20 UNL     1      23.962   7.334  48.523  1.00  0.00     0.298 C 
ENDBRANCH  19  20
ENDBRANCH  18  19
ENDBRANCH  17  18
ENDBRANCH  16  17
ENDBRANCH  14  16
BRANCH  15  26
HETATM   26  N4  UNL     1      22.350   3.475  50.539  1.00  0.00    -0.300 NA
HETATM   27  H28 UNL     1      23.030   3.925  49.824  1.00  0.00     0.124 HD
HETATM   28  H29 UNL     1      23.016   3.873  49.876  1.00  0.00     0.124 HD
ENDBRANCH  15  26
BRANCH   1  29
HETATM   29  C2  UNL     1      20.476   1.859  51.108  1.00  0.00     0.036 C 
HETATM   30  C1  UNL     1      19.557   0.697  50.971  1.00  0.00     0.010 C 
ENDBRANCH   1  29
TORSDOF 7
ENDMDL
MODEL 3
REMARK VINA RESULT:      -7.4      8.303     11.248
REMARK  7 active torsions:
REMARK  status: ('A' for Active; 'I' for Inactive)
REMARK    1  A    between atoms: C2_2  and  C3_3 
REMARK    2  A    between atoms: C13_16  and  O1_17 
REMARK    3  A    between atoms: O1_17  and  C14_18 
REMARK    4  A    between atoms: C14_18  and  C15_19 
REMARK    5  A    between atoms: C15_19  and  C16_20 
REMARK    6  A    between atoms: C16_20  and  N3_21 
REMARK    7  A    between atoms: C21_27  and  N4_28 
ROOT
HETATM    1  C3  UNL     1      28.388   6.349  48.161  1.00  0.00    -0.034 C 
HETATM    2  C4  UNL     1      27.384   7.010  47.697  1.00  0.00     0.028 C 
HETATM    3  C5  UNL     1      26.683   8.123  47.118  1.00  0.00     0.016 A 
HETATM    4 CL1  UNL     1      25.427   9.079  46.555  1.00  0.00    -0.174 Cl
HETATM    5  C6  UNL     1      27.491   9.127  46.851  1.00  0.00     0.174 A 
HETATM    6  C7  UNL     1      28.234  10.358  46.483  1.00  0.00     0.115 C 
HETATM    7  N1  UNL     1      29.070  10.971  47.549  1.00  0.00    -0.352 N 
HETATM    8  C8  UNL     1      30.056  10.157  48.298  1.00  0.00     0.016 A 
HETATM    9  C9  UNL     1      30.455  11.173  49.032  1.00  0.00     0.059 A 
HETATM   10  C10 UNL     1      29.511  12.053  48.359  1.00  0.00     0.182 A 
HETATM   11  C11 UNL     1      28.657  12.962  49.011  1.00  0.00     0.147 A 
HETATM   12  N2  UNL     1      29.683  13.343  47.994  1.00  0.00    -0.260 NA
HETATM   13  C12 UNL     1      30.136   8.793  47.976  1.00  0.00     0.123 C 
HETATM   14  C13 UNL     1      30.692   7.591  48.442  1.00  0.00     0.073 C 
HETATM   15  C21 UNL     1      29.808   6.516  48.494  1.00  0.00     0.042 C 
ENDROOT
BRANCH  14  16
HETATM   16  O1  UNL     1      31.985   7.328  48.852  1.00  0.00    -0.353 OA
BRANCH  16  17
HETATM   17  C14 UNL     1      33.084   8.129  48.503  1.00  0.00     0.177 C 
BRANCH  17  18
HETATM   18  C15 UNL     1      34.359   7.273  48.411  1.00  0.00     0.057 C 
BRANCH  18  19
HETATM   19  C16 UNL     1      34.054   5.801  48.428  1.00  0.00     0.274 C 
BRANCH  19  20
HETATM   20  N3  UNL     1      34.614   5.103  47.269  1.00  0.00     0.092 N 
HETATM   21  C17 UNL     1      33.745   5.392  46.136  1.00  0.00     0.298 C 
HETATM   22  C18 UNL     1      32.814   4.267  45.830  1.00  0.00     0.198 C 
HETATM   23  O2  UNL     1      32.190   3.860  47.020  1.00  0.00    -0.388 OA
HETATM   24  C19 UNL     1      33.151   3.183  47.804  1.00  0.00     0.198 C 
HETATM   25  C20 UNL     1      34.548   3.658  47.483  1.00  0.00     0.298 C 
ENDBRANCH  19  20
ENDBRANCH  18  19
ENDBRANCH  17  18
ENDBRANCH  16  17
ENDBRANCH  14  16
BRANCH  15  26
HETATM   26  N4  UNL     1      30.430   5.337  48.957  1.00  0.00    -0.300 NA
HETATM   27  H28 UNL     1      29.811   4.556  49.384  1.00  0.00     0.124 HD
HETATM   28  H29 UNL     1      29.817   4.622  49.352  1.00  0.00     0.124 HD
ENDBRANCH  15  26
BRANCH   1  29
HETATM   29  C2  UNL     1      27.941   4.984  48.592  1.00  0.00     0.036 C 
HETATM   30  C1  UNL     1      26.526   4.962  49.048  1.00  0.00     0.010 C 
ENDBRANCH   1  29
TORSDOF 7
ENDMDL
MODEL 4
REMARK VINA RESULT:      -7.2      3.811      6.903
REMARK  7 active torsions:
REMARK  status: ('A' for Active; 'I' for Inactive)
REMARK    1  A    between atoms: C2_2  and  C3_3 
REMARK    2  A    between atoms: C13_16  and  O1_17 
REMARK    3  A    between atoms: O1_17  and  C14_18 
REMARK    4  A    between atoms: C14_18  and  C15_19 
REMARK    5  A    between atoms: C15_19  and  C16_20 
REMARK    6  A    between atoms: C16_20  and  N3_21 
REMARK    7  A    between atoms: C21_27  and  N4_28 
ROOT
HETATM    1  C3  UNL     1      25.911   1.279  53.030  1.00  0.00    -0.034 C 
HETATM    2  C4  UNL     1      24.940   0.556  53.469  1.00  0.00     0.028 C 
HETATM    3  C5  UNL     1      23.624  -0.020  53.499  1.00  0.00     0.016 A 
HETATM    4 CL1  UNL     1      22.288  -0.882  54.030  1.00  0.00    -0.174 Cl
HETATM    5  C6  UNL     1      22.899   0.359  52.469  1.00  0.00     0.174 A 
HETATM    6  C7  UNL     1      21.930   0.672  51.388  1.00  0.00     0.115 C 
HETATM    7  N1  UNL     1      21.689   2.114  51.113  1.00  0.00    -0.352 N 
HETATM    8  C8  UNL     1      22.822   3.037  50.869  1.00  0.00     0.016 A 
HETATM    9  C9  UNL     1      22.038   4.078  50.692  1.00  0.00     0.059 A 
HETATM   10  C10 UNL     1      20.861   3.254  50.925  1.00  0.00     0.182 A 
HETATM   11  C11 UNL     1      19.788   3.608  51.764  1.00  0.00     0.147 A 
HETATM   12  N2  UNL     1      19.661   3.313  50.305  1.00  0.00    -0.260 NA
HETATM   13  C12 UNL     1      24.115   2.495  50.942  1.00  0.00     0.123 C 
HETATM   14  C13 UNL     1      25.462   2.886  50.994  1.00  0.00     0.073 C 
HETATM   15  C21 UNL     1      26.215   2.272  51.991  1.00  0.00     0.042 C 
ENDROOT
BRANCH  14  16
HETATM   16  O1  UNL     1      26.140   3.790  50.198  1.00  0.00    -0.353 OA
BRANCH  16  17
HETATM   17  C14 UNL     1      25.650   5.070  49.892  1.00  0.00     0.177 C 
BRANCH  17  18
HETATM   18  C15 UNL     1      26.522   5.730  48.810  1.00  0.00     0.057 C 
BRANCH  18  19
HETATM   19  C16 UNL     1      25.907   6.996  48.280  1.00  0.00     0.274 C 
BRANCH  19  20
HETATM   20  N3  UNL     1      26.903   7.900  47.702  1.00  0.00     0.092 N 
HETATM   21  C17 UNL     1      28.111   7.775  48.508  1.00  0.00     0.298 C 
HETATM   22  C18 UNL     1      28.270   8.901  49.473  1.00  0.00     0.198 C 
HETATM   23  O2  UNL     1      27.061   9.078  50.166  1.00  0.00    -0.388 OA
HETATM   24  C19 UNL     1      26.128   9.647  49.271  1.00  0.00     0.198 C 
HETATM   25  C20 UNL     1      26.452   9.284  47.842  1.00  0.00     0.298 C 
ENDBRANCH  19  20
ENDBRANCH  18  19
ENDBRANCH  17  18
ENDBRANCH  16  17
ENDBRANCH  14  16
BRANCH  15  26
HETATM   26  N4  UNL     1      27.560   2.698  51.983  1.00  0.00    -0.300 NA
HETATM   27  H28 UNL     1      27.948   3.179  51.093  1.00  0.00     0.124 HD
HETATM   28  H29 UNL     1      27.892   3.149  51.129  1.00  0.00     0.124 HD
ENDBRANCH  15  26
BRANCH   1  29
HETATM   29  C2  UNL     1      27.103   1.130  53.928  1.00  0.00     0.036 C 
HETATM   30  C1  UNL     1      27.705  -0.229  53.859  1.00  0.00     0.010 C 
ENDBRANCH   1  29
TORSDOF 7
ENDMDL
MODEL 5
REMARK VINA RESULT:      -7.1      3.019      6.870
REMARK  7 active torsions:
REMARK  status: ('A' for Active; 'I' for Inactive)
REMARK    1  A    between atoms: C2_2  and  C3_3 
REMARK    2  A    between atoms: C13_16  and  O1_17 
REMARK    3  A    between atoms: O1_17  and  C14_18 
REMARK    4  A    between atoms: C14_18  and  C15_19 
REMARK    5  A    between atoms: C15_19  and  C16_20 
REMARK    6  A    between atoms: C16_20  and  N3_21 
REMARK    7  A    between atoms: C21_27  and  N4_28 
ROOT
HETATM    1  C3  UNL     1      23.902   6.305  49.724  1.00  0.00    -0.034 C 
HETATM    2  C4  UNL     1      25.105   6.191  49.278  1.00  0.00     0.028 C 
HETATM    3  C5  UNL     1      26.359   5.548  48.992  1.00  0.00     0.016 A 
HETATM    4 CL1  UNL     1      27.945   5.329  48.499  1.00  0.00    -0.174 Cl
HETATM    5  C6  UNL     1      26.363   4.290  49.377  1.00  0.00     0.174 A 
HETATM    6  C7  UNL     1      26.563   2.865  49.741  1.00  0.00     0.115 C 
HETATM    7  N1  UNL     1      26.279   2.497  51.154  1.00  0.00    -0.352 N 
HETATM    8  C8  UNL     1      24.990   2.860  51.786  1.00  0.00     0.016 A 
HETATM    9  C9  UNL     1      25.305   2.302  52.934  1.00  0.00     0.059 A 
HETATM   10  C10 UNL     1      26.602   1.907  52.406  1.00  0.00     0.182 A 
HETATM   11  C11 UNL     1      27.827   2.078  53.078  1.00  0.00     0.147 A 
HETATM   12  N2  UNL     1      27.283   0.760  52.630  1.00  0.00    -0.260 NA
HETATM   13  C12 UNL     1      24.077   3.586  51.004  1.00  0.00     0.123 C 
HETATM   14  C13 UNL     1      22.882   4.316  51.114  1.00  0.00     0.073 C 
HETATM   15  C21 UNL     1      22.895   5.561  50.492  1.00  0.00     0.042 C 
ENDROOT
BRANCH  14  16
HETATM   16  O1  UNL     1      21.704   3.972  51.750  1.00  0.00    -0.353 OA
BRANCH  16  17
HETATM   17  C14 UNL     1      20.922   2.865  51.381  1.00  0.00     0.177 C 
BRANCH  17  18
HETATM   18  C15 UNL     1      20.118   2.356  52.589  1.00  0.00     0.057 C 
BRANCH  18  19
HETATM   19  C16 UNL     1      20.883   1.338  53.390  1.00  0.00     0.274 C 
BRANCH  19  20
HETATM   20  N3  UNL     1      20.880   0.016  52.760  1.00  0.00     0.092 N 
HETATM   21  C17 UNL     1      20.244  -0.902  53.696  1.00  0.00     0.298 C 
HETATM   22  C18 UNL     1      21.235  -1.729  54.444  1.00  0.00     0.198 C 
HETATM   23  O2  UNL     1      22.232  -0.884  54.961  1.00  0.00    -0.388 OA
HETATM   24  C19 UNL     1      23.033  -0.449  53.882  1.00  0.00     0.198 C 
HETATM   25  C20 UNL     1      22.254  -0.452  52.588  1.00  0.00     0.298 C 
ENDBRANCH  19  20
ENDBRANCH  18  19
ENDBRANCH  17  18
ENDBRANCH  16  17
ENDBRANCH  14  16
BRANCH  15  26
HETATM   26  N4  UNL     1      21.664   6.238  50.627  1.00  0.00    -0.300 NA
HETATM   27  H28 UNL     1      21.601   7.070  51.319  1.00  0.00     0.124 HD
HETATM   28  H29 UNL     1      21.642   7.017  51.286  1.00  0.00     0.124 HD
ENDBRANCH  15  26
BRANCH   1  29
HETATM   29  C2  UNL     1      23.386   7.686  49.449  1.00  0.00     0.036 C 
HETATM   30  C1  UNL     1      23.814   8.203  48.122  1.00  0.00     0.010 C 
ENDBRANCH   1  29
TORSDOF 7
ENDMDL
MODEL 6
REMARK VINA RESULT:      -7.0      4.018      7.874
REMARK  7 active torsions:
REMARK  status: ('A' for Active; 'I' for Inactive)
REMARK    1  A    between atoms: C2_2  and  C3_3 
REMARK    2  A    between atoms: C13_16  and  O1_17 
REMARK    3  A    between atoms: O1_17  and  C14_18 
REMARK    4  A    between atoms: C14_18  and  C15_19 
REMARK    5  A    between atoms: C15_19  and  C16_20 
REMARK    6  A    between atoms: C16_20  and  N3_21 
REMARK    7  A    between atoms: C21_27  and  N4_28 
ROOT
HETATM    1  C3  UNL     1      24.251   6.761  50.276  1.00  0.00    -0.034 C 
HETATM    2  C4  UNL     1      25.359   6.498  49.674  1.00  0.00     0.028 C 
HETATM    3  C5  UNL     1      26.447   5.692  49.190  1.00  0.00     0.016 A 
HETATM    4 CL1  UNL     1      27.907   5.268  48.485  1.00  0.00    -0.174 Cl
HETATM    5  C6  UNL     1      26.287   4.421  49.491  1.00  0.00     0.174 A 
HETATM    6  C7  UNL     1      26.288   2.957  49.735  1.00  0.00     0.115 C 
HETATM    7  N1  UNL     1      26.112   2.521  51.146  1.00  0.00    -0.352 N 
HETATM    8  C8  UNL     1      24.983   3.028  51.959  1.00  0.00     0.016 A 
HETATM    9  C9  UNL     1      25.332   2.334  53.020  1.00  0.00     0.059 A 
HETATM   10  C10 UNL     1      26.476   1.785  52.306  1.00  0.00     0.182 A 
HETATM   11  C11 UNL     1      27.781   1.706  52.826  1.00  0.00     0.147 A 
HETATM   12  N2  UNL     1      26.978   0.532  52.368  1.00  0.00    -0.260 NA
HETATM   13  C12 UNL     1      24.119   3.951  51.348  1.00  0.00     0.123 C 
HETATM   14  C13 UNL     1      23.083   4.848  51.655  1.00  0.00     0.073 C 
HETATM   15  C21 UNL     1      23.230   6.123  51.117  1.00  0.00     0.042 C 
ENDROOT
BRANCH  14  16
HETATM   16  O1  UNL     1      21.946   4.641  52.413  1.00  0.00    -0.353 OA
BRANCH  16  17
HETATM   17  C14 UNL     1      21.017   3.620  52.150  1.00  0.00     0.177 C 
BRANCH  17  18
HETATM   18  C15 UNL     1      20.049   4.055  51.037  1.00  0.00     0.057 C 
BRANCH  18  19
HETATM   19  C16 UNL     1      20.431   3.484  49.699  1.00  0.00     0.274 C 
BRANCH  19  20
HETATM   20  N3  UNL     1      20.127   4.397  48.596  1.00  0.00     0.092 N 
HETATM   21  C17 UNL     1      19.835   3.575  47.429  1.00  0.00     0.298 C 
HETATM   22  C18 UNL     1      20.986   3.496  46.485  1.00  0.00     0.198 C 
HETATM   23  O2  UNL     1      22.146   3.177  47.211  1.00  0.00    -0.388 OA
HETATM   24  C19 UNL     1      22.515   4.316  47.960  1.00  0.00     0.198 C 
HETATM   25  C20 UNL     1      21.315   5.182  48.263  1.00  0.00     0.298 C 
ENDBRANCH  19  20
ENDBRANCH  18  19
ENDBRANCH  17  18
ENDBRANCH  16  17
ENDBRANCH  14  16
BRANCH  15  26
HETATM   26  N4  UNL     1      22.153   6.971  51.451  1.00  0.00    -0.300 NA
HETATM   27  H28 UNL     1      22.309   7.742  52.197  1.00  0.00     0.124 HD
HETATM   28  H29 UNL     1      22.336   7.686  52.156  1.00  0.00     0.124 HD
ENDBRANCH  15  26
BRANCH   1  29
HETATM   29  C2  UNL     1      23.943   8.224  50.158  1.00  0.00     0.036 C 
HETATM   30  C1  UNL     1      24.103   8.733  48.770  1.00  0.00     0.010 C 
ENDBRANCH   1  29
TORSDOF 7
ENDMDL
MODEL 7
REMARK VINA RESULT:      -6.9      3.298      6.873
REMARK  7 active torsions:
REMARK  status: ('A' for Active; 'I' for Inactive)
REMARK    1  A    between atoms: C2_2  and  C3_3 
REMARK    2  A    between atoms: C13_16  and  O1_17 
REMARK    3  A    between atoms: O1_17  and  C14_18 
REMARK    4  A    between atoms: C14_18  and  C15_19 
REMARK    5  A    between atoms: C15_19  and  C16_20 
REMARK    6  A    between atoms: C16_20  and  N3_21 
REMARK    7  A    between atoms: C21_27  and  N4_28 
ROOT
HETATM    1  C3  UNL     1      21.936   2.352  49.328  1.00  0.00    -0.034 C 
HETATM    2  C4  UNL     1      21.619   1.429  50.169  1.00  0.00     0.028 C 
HETATM    3  C5  UNL     1      21.726   0.619  51.352  1.00  0.00     0.016 A 
HETATM    4 CL1  UNL     1      21.426  -0.595  52.468  1.00  0.00    -0.174 Cl
HETATM    5  C6  UNL     1      22.735   0.990  52.110  1.00  0.00     0.174 A 
HETATM    6  C7  UNL     1      23.817   1.253  53.092  1.00  0.00     0.115 C 
HETATM    7  N1  UNL     1      25.204   1.295  52.553  1.00  0.00    -0.352 N 
HETATM    8  C8  UNL     1      25.540   2.155  51.396  1.00  0.00     0.016 A 
HETATM    9  C9  UNL     1      26.805   1.798  51.397  1.00  0.00     0.059 A 
HETATM   10  C10 UNL     1      26.573   0.916  52.532  1.00  0.00     0.182 A 
HETATM   11  C11 UNL     1      27.037  -0.409  52.625  1.00  0.00     0.147 A 
HETATM   12  N2  UNL     1      27.384   0.680  53.587  1.00  0.00    -0.260 NA
HETATM   13  C12 UNL     1      24.492   2.894  50.823  1.00  0.00     0.123 C 
HETATM   14  C13 UNL     1      24.191   3.662  49.686  1.00  0.00     0.073 C 
HETATM   15  C21 UNL     1      22.989   3.340  49.061  1.00  0.00     0.042 C 
ENDROOT
BRANCH  14  16
HETATM   16  O1  UNL     1      24.915   4.686  49.107  1.00  0.00    -0.353 OA
BRANCH  16  17
HETATM   17  C14 UNL     1      25.548   5.699  49.847  1.00  0.00     0.177 C 
BRANCH  17  18
HETATM   18  C15 UNL     1      24.518   6.454  50.704  1.00  0.00     0.057 C 
BRANCH  18  19
HETATM   19  C16 UNL     1      23.520   7.201  49.863  1.00  0.00     0.274 C 
BRANCH  19  20
HETATM   20  N3  UNL     1      22.312   7.552  50.612  1.00  0.00     0.092 N 
HETATM   21  C17 UNL     1      21.649   6.302  50.962  1.00  0.00     0.298 C 
HETATM   22  C18 UNL     1      20.495   6.000  50.067  1.00  0.00     0.198 C 
HETATM   23  O2  UNL     1      20.906   6.147  48.732  1.00  0.00    -0.388 OA
HETATM   24  C19 UNL     1      21.065   7.528  48.477  1.00  0.00     0.198 C 
HETATM   25  C20 UNL     1      21.388   8.282  49.745  1.00  0.00     0.298 C 
ENDBRANCH  19  20
ENDBRANCH  18  19
ENDBRANCH  17  18
ENDBRANCH  16  17
ENDBRANCH  14  16
BRANCH  15  26
HETATM   26  N4  UNL     1      22.738   4.153  47.936  1.00  0.00    -0.300 NA
HETATM   27  H28 UNL     1      22.617   3.681  46.968  1.00  0.00     0.124 HD
HETATM   28  H29 UNL     1      22.627   3.675  47.041  1.00  0.00     0.124 HD
ENDBRANCH  15  26
BRANCH   1  29
HETATM   29  C2  UNL     1      20.954   2.365  48.194  1.00  0.00     0.036 C 
HETATM   30  C1  UNL     1      19.547   2.496  48.657  1.00  0.00     0.010 C 
ENDBRANCH   1  29
TORSDOF 7
ENDMDL
MODEL 8
REMARK VINA RESULT:      -6.8      3.793      6.903
REMARK  7 active torsions:
REMARK  status: ('A' for Active; 'I' for Inactive)
REMARK    1  A    between atoms: C2_2  and  C3_3 
REMARK    2  A    between atoms: C13_16  and  O1_17 
REMARK    3  A    between atoms: O1_17  and  C14_18 
REMARK    4  A    between atoms: C14_18  and  C15_19 
REMARK    5  A    between atoms: C15_19  and  C16_20 
REMARK    6  A    between atoms: C16_20  and  N3_21 
REMARK    7  A    between atoms: C21_27  and  N4_28 
ROOT
HETATM    1  C3  UNL     1      26.489   6.148  48.867  1.00  0.00    -0.034 C 
HETATM    2  C4  UNL     1      25.980   7.297  48.585  1.00  0.00     0.028 C 
HETATM    3  C5  UNL     1      24.994   8.343  48.569  1.00  0.00     0.016 A 
HETATM    4 CL1  UNL     1      24.229   9.788  48.199  1.00  0.00    -0.174 Cl
HETATM    5  C6  UNL     1      23.919   8.014  49.251  1.00  0.00     0.174 A 
HETATM    6  C7  UNL     1      22.631   7.828  49.966  1.00  0.00     0.115 C 
HETATM    7  N1  UNL     1      21.862   6.598  49.635  1.00  0.00    -0.352 N 
HETATM    8  C8  UNL     1      22.507   5.265  49.688  1.00  0.00     0.016 A 
HETATM    9  C9  UNL     1      21.410   4.633  49.332  1.00  0.00     0.059 A 
HETATM   10  C10 UNL     1      20.690   5.895  49.246  1.00  0.00     0.182 A 
HETATM   11  C11 UNL     1      19.853   6.268  48.177  1.00  0.00     0.147 A 
HETATM   12  N2  UNL     1      19.412   6.155  49.601  1.00  0.00    -0.260 NA
HETATM   13  C12 UNL     1      23.868   5.227  50.029  1.00  0.00     0.123 C 
HETATM   14  C13 UNL     1      24.967   4.353  50.046  1.00  0.00     0.073 C 
HETATM   15  C21 UNL     1      26.134   4.864  49.487  1.00  0.00     0.042 C 
ENDROOT
BRANCH  14  16
HETATM   16  O1  UNL     1      25.049   3.064  50.538  1.00  0.00    -0.353 OA
BRANCH  16  17
HETATM   17  C14 UNL     1      23.961   2.384  51.109  1.00  0.00     0.177 C 
BRANCH  17  18
HETATM   18  C15 UNL     1      24.448   1.437  52.220  1.00  0.00     0.057 C 
BRANCH  18  19
HETATM   19  C16 UNL     1      25.827   0.904  51.944  1.00  0.00     0.274 C 
BRANCH  19  20
HETATM   20  N3  UNL     1      26.109  -0.324  52.691  1.00  0.00     0.092 N 
HETATM   21  C17 UNL     1      25.513  -0.167  54.011  1.00  0.00     0.298 C 
HETATM   22  C18 UNL     1      26.519   0.193  55.051  1.00  0.00     0.198 C 
HETATM   23  O2  UNL     1      27.299   1.261  54.576  1.00  0.00    -0.388 OA
HETATM   24  C19 UNL     1      28.151   0.760  53.567  1.00  0.00     0.198 C 
HETATM   25  C20 UNL     1      27.551  -0.454  52.900  1.00  0.00     0.298 C 
ENDBRANCH  19  20
ENDBRANCH  18  19
ENDBRANCH  17  18
ENDBRANCH  16  17
ENDBRANCH  14  16
BRANCH  15  26
HETATM   26  N4  UNL     1      27.202   3.944  49.546  1.00  0.00    -0.300 NA
HETATM   27  H28 UNL     1      28.072   4.116  48.923  1.00  0.00     0.124 HD
HETATM   28  H29 UNL     1      28.006   4.138  48.947  1.00  0.00     0.124 HD
ENDBRANCH  15  26
BRANCH   1  29
HETATM   29  C2  UNL     1      27.870   6.048  48.291  1.00  0.00     0.036 C 
HETATM   30  C1  UNL     1      28.585   7.353  48.291  1.00  0.00     0.010 C 
ENDBRANCH   1  29
TORSDOF 7
ENDMDL
MODEL 9
REMARK VINA RESULT:      -6.8      2.235      3.263
REMARK  7 active torsions:
REMARK  status: ('A' for Active; 'I' for Inactive)
REMARK    1  A    between atoms: C2_2  and  C3_3 
REMARK    2  A    between atoms: C13_16  and  O1_17 
REMARK    3  A    between atoms: O1_17  and  C14_18 
REMARK    4  A    between atoms: C14_18  and  C15_19 
REMARK    5  A    between atoms: C15_19  and  C16_20 
REMARK    6  A    between atoms: C16_20  and  N3_21 
REMARK    7  A    between atoms: C21_27  and  N4_28 
ROOT
HETATM    1  C3  UNL     1      21.459   0.240  53.119  1.00  0.00    -0.034 C 
HETATM    2  C4  UNL     1      20.219   0.282  52.770  1.00  0.00     0.028 C 
HETATM    3  C5  UNL     1      19.089   0.537  51.920  1.00  0.00     0.016 A 
HETATM    4 CL1  UNL     1      17.501   0.686  51.405  1.00  0.00    -0.174 Cl
HETATM    5  C6  UNL     1      19.454   1.005  50.746  1.00  0.00     0.174 A 
HETATM    6  C7  UNL     1      19.664   1.541  49.377  1.00  0.00     0.115 C 
HETATM    7  N1  UNL     1      20.486   2.776  49.268  1.00  0.00    -0.352 N 
HETATM    8  C8  UNL     1      21.823   2.852  49.902  1.00  0.00     0.016 A 
HETATM    9  C9  UNL     1      22.038   4.080  49.483  1.00  0.00     0.059 A 
HETATM   10  C10 UNL     1      20.736   4.105  48.832  1.00  0.00     0.182 A 
HETATM   11  C11 UNL     1      19.814   5.163  48.926  1.00  0.00     0.147 A 
HETATM   12  N2  UNL     1      20.404   4.664  47.647  1.00  0.00    -0.260 NA
HETATM   13  C12 UNL     1      22.253   1.728  50.625  1.00  0.00     0.123 C 
HETATM   14  C13 UNL     1      23.252   1.325  51.526  1.00  0.00     0.073 C 
HETATM   15  C21 UNL     1      22.790   0.645  52.649  1.00  0.00     0.042 C 
ENDROOT
BRANCH  14  16
HETATM   16  O1  UNL     1      24.620   1.508  51.452  1.00  0.00    -0.353 OA
BRANCH  16  17
HETATM   17  C14 UNL     1      25.222   2.762  51.255  1.00  0.00     0.177 C 
BRANCH  17  18
HETATM   18  C15 UNL     1      26.721   2.691  51.593  1.00  0.00     0.057 C 
BRANCH  18  19
HETATM   19  C16 UNL     1      27.112   1.351  52.154  1.00  0.00     0.274 C 
BRANCH  19  20
HETATM   20  N3  UNL     1      27.470   1.424  53.572  1.00  0.00     0.092 N 
HETATM   21  C17 UNL     1      28.899   1.699  53.638  1.00  0.00     0.298 C 
HETATM   22  C18 UNL     1      29.702   0.478  53.934  1.00  0.00     0.198 C 
HETATM   23  O2  UNL     1      29.294  -0.553  53.071  1.00  0.00    -0.388 OA
HETATM   24  C19 UNL     1      28.015  -0.986  53.488  1.00  0.00     0.198 C 
HETATM   25  C20 UNL     1      27.270   0.118  54.199  1.00  0.00     0.298 C 
ENDBRANCH  19  20
ENDBRANCH  18  19
ENDBRANCH  17  18
ENDBRANCH  16  17
ENDBRANCH  14  16
BRANCH  15  26
HETATM   26  N4  UNL     1      23.841   0.256  53.507  1.00  0.00    -0.300 NA
HETATM   27  H28 UNL     1      24.586  -0.438  53.136  1.00  0.00     0.124 HD
HETATM   28  H29 UNL     1      24.525  -0.397  53.124  1.00  0.00     0.124 HD
ENDBRANCH  15  26
BRANCH   1  29
HETATM   29  C2  UNL     1      21.578  -0.325  54.503  1.00  0.00     0.036 C 
HETATM   30  C1  UNL     1      21.257  -1.776  54.558  1.00  0.00     0.010 C 
ENDBRANCH   1  29
TORSDOF 7
ENDMDL
