MODEL 1
REMARK VINA RESULT:      -9.1      0.000      0.000
REMARK  8 active torsions:
REMARK  status: ('A' for Active; 'I' for Inactive)
REMARK    1  A    between atoms: C2_2  and  O1_3 
REMARK    2  A    between atoms: O1_3  and  C3_4 
REMARK    3  A    between atoms: C3_4  and  C4_5 
REMARK    4  A    between atoms: C4_5  and  C5_6 
REMARK    5  A    between atoms: C6_7  and  N2_10 
REMARK    6  A    between atoms: C8_11  and  N3_12 
REMARK    7  A    between atoms: C8_11  and  C15_20 
REMARK    8  A    between atoms: N3_12  and  C9_13 
ROOT
HETATM    1  C5  UNL     1      23.318   3.257  50.657  1.00  0.00    -0.033 C 
HETATM    2  C6  UNL     1      23.865   3.376  52.033  1.00  0.00     0.244 A 
HETATM    3  N1  UNL     1      24.281   2.590  52.793  1.00  0.00     0.000 N 
HETATM    4  C7  UNL     1      23.053   2.122  52.637  1.00  0.00     0.232 A 
HETATM    5  N2  UNL     1      24.405   2.909  52.605  1.00  0.00     0.156 N 
HETATM    6  C8  UNL     1      25.419   2.383  53.439  1.00  0.00     0.310 A 
HETATM    7  C15 UNL     1      24.087   2.085  53.074  1.00  0.00     0.153 A 
HETATM    8  C16 UNL     1      23.511   0.641  53.457  1.00  0.00     0.101 C 
HETATM    9  O2  UNL     1      23.665  -0.372  54.284  1.00  0.00    -0.349 OA
HETATM   10  C17 UNL     1      22.377  -0.642  54.935  1.00  0.00     0.202 C 
HETATM   11  C18 UNL     1      21.709  -1.743  54.057  1.00  0.00     0.202 C 
HETATM   12  O3  UNL     1      21.616  -1.198  52.700  1.00  0.00    -0.344 OA
HETATM   13  C19 UNL     1      22.268  -0.019  52.612  1.00  0.00     0.128 C 
HETATM   14  C20 UNL     1      21.931   0.997  51.638  1.00  0.00     0.085 C 
HETATM   15  C21 UNL     1      21.511   2.358  52.270  1.00  0.00     0.114 C 
HETATM   16  O4  UNL     1      21.842   1.243  50.109  1.00  0.00    -0.348 OA
HETATM   17  C22 UNL     1      22.729   2.341  49.488  1.00  0.00     0.208 C 
ENDROOT
BRANCH   6  18
HETATM   18  N3  UNL     1      26.690   2.354  54.013  1.00  0.00    -0.350 N 
HETATM   19  H10 UNL     1      26.989   3.140  54.559  1.00  0.00     0.162 HD
BRANCH  18  20
HETATM   20  C9  UNL     1      27.453   1.192  53.759  1.00  0.00     0.031 A 
HETATM   21  C10 UNL     1      28.784   1.343  54.024  1.00  0.00     0.029 A 
HETATM   22  C11 UNL     1      29.675   0.306  53.818  1.00  0.00     0.004 A 
HETATM   23  C12 UNL     1      29.277  -0.925  53.339  1.00  0.00     0.024 A 
HETATM   24  C13 UNL     1      27.927  -1.069  53.074  1.00  0.00     0.036 A 
HETATM   25 CL1  UNL     1      27.206  -2.560  52.457  1.00  0.00    -0.084 Cl
HETATM   26  C14 UNL     1      27.048  -0.034  53.282  1.00  0.00     0.053 A 
ENDBRANCH  18  20
ENDBRANCH   6  18
BRANCH   1  27
HETATM   27  C4  UNL     1      23.397   4.644  50.150  1.00  0.00     0.061 C 
BRANCH  27  28
HETATM   28  C3  UNL     1      24.392   4.818  49.032  1.00  0.00     0.171 C 
BRANCH  28  29
HETATM   29  O1  UNL     1      25.608   5.107  49.610  1.00  0.00    -0.391 OA
BRANCH  29  30
HETATM   30  C2  UNL     1      26.633   4.236  49.360  1.00  0.00     0.163 C 
HETATM   31  C1  UNL     1      27.751   4.938  48.602  1.00  0.00     0.033 C 
ENDBRANCH  29  30
ENDBRANCH  28  29
ENDBRANCH  27  28
ENDBRANCH   1  27
TORSDOF 8
ENDMDL
MODEL 2
REMARK VINA RESULT:      -8.9      1.774      2.136
REMARK  8 active torsions:
REMARK  status: ('A' for Active; 'I' for Inactive)
REMARK    1  A    between atoms: C2_2  and  O1_3 
REMARK    2  A    between atoms: O1_3  and  C3_4 
REMARK    3  A    between atoms: C3_4  and  C4_5 
REMARK    4  A    between atoms: C4_5  and  C5_6 
REMARK    5  A    between atoms: C6_7  and  N2_10 
REMARK    6  A    between atoms: C8_11  and  N3_12 
REMARK    7  A    between atoms: C8_11  and  C15_20 
REMARK    8  A    between atoms: N3_12  and  C9_13 
ROOT
HETATM    1  C5  UNL     1      24.118   2.537  50.519  1.00  0.00    -0.033 C 
HETATM    2  C6  UNL     1      24.660   1.915  51.754  1.00  0.00     0.244 A 
HETATM    3  N1  UNL     1      24.440   0.903  52.297  1.00  0.00     0.000 N 
HETATM    4  C7  UNL     1      23.233   1.444  52.336  1.00  0.00     0.232 A 
HETATM    5  N2  UNL     1      24.744   1.086  52.133  1.00  0.00     0.156 N 
HETATM    6  C8  UNL     1      25.134  -0.167  52.658  1.00  0.00     0.310 A 
HETATM    7  C15 UNL     1      23.962   0.613  52.540  1.00  0.00     0.153 A 
HETATM    8  C16 UNL     1      22.557  -0.096  52.833  1.00  0.00     0.101 C 
HETATM    9  O2  UNL     1      21.995  -1.107  53.463  1.00  0.00    -0.349 OA
HETATM   10  C17 UNL     1      20.928  -0.583  54.325  1.00  0.00     0.202 C 
HETATM   11  C18 UNL     1      19.633  -0.686  53.462  1.00  0.00     0.202 C 
HETATM   12  O3  UNL     1      19.881   0.087  52.242  1.00  0.00    -0.344 OA
HETATM   13  C19 UNL     1      21.169   0.489  52.183  1.00  0.00     0.128 C 
HETATM   14  C20 UNL     1      21.595   1.661  51.448  1.00  0.00     0.085 C 
HETATM   15  C21 UNL     1      22.290   2.739  52.334  1.00  0.00     0.114 C 
HETATM   16  O4  UNL     1      21.625   2.264  50.019  1.00  0.00    -0.348 OA
HETATM   17  C22 UNL     1      22.994   2.581  49.384  1.00  0.00     0.208 C 
ENDROOT
BRANCH   6  18
HETATM   18  N3  UNL     1      26.043  -1.186  52.946  1.00  0.00    -0.350 N 
HETATM   19  H10 UNL     1      25.716  -2.134  52.949  1.00  0.00     0.162 HD
BRANCH  18  20
HETATM   20  C9  UNL     1      27.366  -0.770  53.219  1.00  0.00     0.031 A 
HETATM   21  C10 UNL     1      28.285  -1.775  53.120  1.00  0.00     0.029 A 
HETATM   22  C11 UNL     1      29.626  -1.543  53.367  1.00  0.00     0.004 A 
HETATM   23  C12 UNL     1      30.105  -0.298  53.723  1.00  0.00     0.024 A 
HETATM   24  C13 UNL     1      29.167   0.713  53.820  1.00  0.00     0.036 A 
HETATM   25 CL1  UNL     1      29.566   2.378  54.259  1.00  0.00    -0.084 Cl
HETATM   26  C14 UNL     1      27.837   0.473  53.572  1.00  0.00     0.053 A 
ENDBRANCH  18  20
ENDBRANCH   6  18
BRANCH   1  27
HETATM   27  C4  UNL     1      25.124   3.572  50.201  1.00  0.00     0.061 C 
BRANCH  27  28
HETATM   28  C3  UNL     1      26.522   3.028  50.064  1.00  0.00     0.171 C 
BRANCH  28  29
HETATM   29  O1  UNL     1      27.235   3.924  49.298  1.00  0.00    -0.391 OA
BRANCH  29  30
HETATM   30  C2  UNL     1      26.642   5.131  49.048  1.00  0.00     0.163 C 
HETATM   31  C1  UNL     1      27.612   6.058  48.330  1.00  0.00     0.033 C 
ENDBRANCH  29  30
ENDBRANCH  28  29
ENDBRANCH  27  28
ENDBRANCH   1  27
TORSDOF 8
ENDMDL
MODEL 3
REMARK VINA RESULT:      -8.8      2.604      5.800
REMARK  8 active torsions:
REMARK  status: ('A' for Active; 'I' for Inactive)
REMARK    1  A    between atoms: C2_2  and  O1_3 
REMARK    2  A    between atoms: O1_3  and  C3_4 
REMARK    3  A    between atoms: C3_4  and  C4_5 
REMARK    4  A    between atoms: C4_5  and  C5_6 
REMARK    5  A    between atoms: C6_7  and  N2_10 
REMARK    6  A    between atoms: C8_11  and  N3_12 
REMARK    7  A    between atoms: C8_11  and  C15_20 
REMARK    8  A    between atoms: N3_12  and  C9_13 
ROOT
HETATM    1  C5  UNL     1      26.765   1.145  53.740  1.00  0.00    -0.033 C 
HETATM    2  C6  UNL     1      25.835   1.618  52.683  1.00  0.00     0.244 A 
HETATM    3  N1  UNL     1      24.685   1.830  52.674  1.00  0.00     0.000 N 
HETATM    4  C7  UNL     1      24.673   0.548  53.001  1.00  0.00     0.232 A 
HETATM    5  N2  UNL     1      25.018   2.024  52.611  1.00  0.00     0.156 N 
HETATM    6  C8  UNL     1      23.898   2.866  52.424  1.00  0.00     0.310 A 
HETATM    7  C15 UNL     1      24.167   1.528  52.784  1.00  0.00     0.153 A 
HETATM    8  C16 UNL     1      22.972   0.666  53.412  1.00  0.00     0.101 C 
HETATM    9  O2  UNL     1      21.660   0.575  53.482  1.00  0.00    -0.349 OA
HETATM   10  C17 UNL     1      21.266  -0.779  53.072  1.00  0.00     0.202 C 
HETATM   11  C18 UNL     1      21.175  -1.588  54.402  1.00  0.00     0.202 C 
HETATM   12  O3  UNL     1      22.489  -1.492  55.040  1.00  0.00    -0.344 OA
HETATM   13  C19 UNL     1      23.283  -0.624  54.376  1.00  0.00     0.128 C 
HETATM   14  C20 UNL     1      24.728  -0.703  54.398  1.00  0.00     0.085 C 
HETATM   15  C21 UNL     1      25.368  -0.896  52.990  1.00  0.00     0.114 C 
HETATM   16  O4  UNL     1      25.940  -0.649  55.365  1.00  0.00    -0.348 OA
HETATM   17  C22 UNL     1      26.988   0.466  55.170  1.00  0.00     0.208 C 
ENDROOT
BRANCH   6  18
HETATM   18  N3  UNL     1      23.263   4.072  52.119  1.00  0.00    -0.350 N 
HETATM   19  H10 UNL     1      22.563   4.417  52.749  1.00  0.00     0.162 HD
BRANCH  18  20
HETATM   20  C9  UNL     1      23.675   4.698  50.922  1.00  0.00     0.031 A 
HETATM   21  C10 UNL     1      22.646   5.238  50.205  1.00  0.00     0.029 A 
HETATM   22  C11 UNL     1      22.872   5.878  49.001  1.00  0.00     0.004 A 
HETATM   23  C12 UNL     1      24.136   6.007  48.461  1.00  0.00     0.024 A 
HETATM   24  C13 UNL     1      25.172   5.458  49.194  1.00  0.00     0.036 A 
HETATM   25 CL1  UNL     1      26.864   5.513  48.686  1.00  0.00    -0.084 Cl
HETATM   26  C14 UNL     1      24.938   4.825  50.390  1.00  0.00     0.053 A 
ENDBRANCH  18  20
ENDBRANCH   6  18
BRANCH   1  27
HETATM   27  C4  UNL     1      28.092   1.516  53.203  1.00  0.00     0.061 C 
BRANCH  27  28
HETATM   28  C3  UNL     1      29.240   0.949  53.995  1.00  0.00     0.171 C 
BRANCH  28  29
HETATM   29  O1  UNL     1      29.847  -0.004  53.208  1.00  0.00    -0.391 OA
BRANCH  29  30
HETATM   30  C2  UNL     1      30.034  -1.238  53.767  1.00  0.00     0.163 C 
HETATM   31  C1  UNL     1      29.018  -2.228  53.215  1.00  0.00     0.033 C 
ENDBRANCH  29  30
ENDBRANCH  28  29
ENDBRANCH  27  28
ENDBRANCH   1  27
TORSDOF 8
ENDMDL
MODEL 4
REMARK VINA RESULT:      -8.8      2.767      5.432
REMARK  8 active torsions:
REMARK  status: ('A' for Active; 'I' for Inactive)
REMARK    1  A    between atoms: C2_2  and  O1_3 
REMARK    2  A    between atoms: O1_3  and  C3_4 
REMARK    3  A    between atoms: C3_4  and  C4_5 
REMARK    4  A    between atoms: C4_5  and  C5_6 
REMARK    5  A    between atoms: C6_7  and  N2_10 
REMARK    6  A    between atoms: C8_11  and  N3_12 
REMARK    7  A    between atoms: C8_11  and  C15_20 
REMARK    8  A    between atoms: N3_12  and  C9_13 
ROOT
HETATM    1  C5  UNL     1      24.235  -0.587  54.474  1.00  0.00    -0.033 C 
HETATM    2  C6  UNL     1      24.212   0.278  53.267  1.00  0.00     0.244 A 
HETATM    3  N1  UNL     1      23.435   1.053  52.859  1.00  0.00     0.000 N 
HETATM    4  C7  UNL     1      22.680  -0.034  52.875  1.00  0.00     0.232 A 
HETATM    5  N2  UNL     1      23.809   1.046  52.973  1.00  0.00     0.156 N 
HETATM    6  C8  UNL     1      23.431   2.341  52.552  1.00  0.00     0.310 A 
HETATM    7  C15 UNL     1      22.849   1.063  52.694  1.00  0.00     0.153 A 
HETATM    8  C16 UNL     1      21.254   0.952  52.612  1.00  0.00     0.101 C 
HETATM    9  O2  UNL     1      20.176   1.551  52.149  1.00  0.00    -0.349 OA
HETATM   10  C17 UNL     1      19.419   0.587  51.340  1.00  0.00     0.202 C 
HETATM   11  C18 UNL     1      18.383  -0.034  52.327  1.00  0.00     0.202 C 
HETATM   12  O3  UNL     1      19.153  -0.618  53.428  1.00  0.00    -0.344 OA
HETATM   13  C19 UNL     1      20.460  -0.296  53.323  1.00  0.00     0.128 C 
HETATM   14  C20 UNL     1      21.519  -1.108  53.884  1.00  0.00     0.085 C 
HETATM   15  C21 UNL     1      22.538  -1.629  52.826  1.00  0.00     0.114 C 
HETATM   16  O4  UNL     1      22.045  -1.669  55.231  1.00  0.00    -0.348 OA
HETATM   17  C22 UNL     1      23.457  -1.257  55.698  1.00  0.00     0.208 C 
ENDROOT
BRANCH   6  18
HETATM   18  N3  UNL     1      23.646   3.695  52.290  1.00  0.00    -0.350 N 
HETATM   19  H10 UNL     1      23.165   4.374  52.850  1.00  0.00     0.162 HD
BRANCH  18  20
HETATM   20  C9  UNL     1      24.537   3.983  51.232  1.00  0.00     0.031 A 
HETATM   21  C10 UNL     1      25.554   3.080  51.113  1.00  0.00     0.029 A 
HETATM   22  C11 UNL     1      26.523   3.219  50.137  1.00  0.00     0.004 A 
HETATM   23  C12 UNL     1      26.519   4.266  49.238  1.00  0.00     0.024 A 
HETATM   24  C13 UNL     1      25.485   5.176  49.366  1.00  0.00     0.036 A 
HETATM   25 CL1  UNL     1      25.290   6.587  48.319  1.00  0.00    -0.084 Cl
HETATM   26  C14 UNL     1      24.526   5.029  50.339  1.00  0.00     0.053 A 
ENDBRANCH  18  20
ENDBRANCH   6  18
BRANCH   1  27
HETATM   27  C4  UNL     1      25.661  -0.963  54.583  1.00  0.00     0.061 C 
BRANCH  27  28
HETATM   28  C3  UNL     1      26.562   0.194  54.925  1.00  0.00     0.171 C 
BRANCH  28  29
HETATM   29  O1  UNL     1      27.840  -0.305  55.042  1.00  0.00    -0.391 OA
BRANCH  29  30
HETATM   30  C2  UNL     1      28.816   0.321  54.316  1.00  0.00     0.163 C 
HETATM   31  C1  UNL     1      29.777  -0.702  53.728  1.00  0.00     0.033 C 
ENDBRANCH  29  30
ENDBRANCH  28  29
ENDBRANCH  27  28
ENDBRANCH   1  27
TORSDOF 8
ENDMDL
MODEL 5
REMARK VINA RESULT:      -8.3      1.643      4.907
REMARK  8 active torsions:
REMARK  status: ('A' for Active; 'I' for Inactive)
REMARK    1  A    between atoms: C2_2  and  O1_3 
REMARK    2  A    between atoms: O1_3  and  C3_4 
REMARK    3  A    between atoms: C3_4  and  C4_5 
REMARK    4  A    between atoms: C4_5  and  C5_6 
REMARK    5  A    between atoms: C6_7  and  N2_10 
REMARK    6  A    between atoms: C8_11  and  N3_12 
REMARK    7  A    between atoms: C8_11  and  C15_20 
REMARK    8  A    between atoms: N3_12  and  C9_13 
ROOT
HETATM    1  C5  UNL     1      21.154   2.028  51.287  1.00  0.00    -0.033 C 
HETATM    2  C6  UNL     1      22.322   1.127  51.459  1.00  0.00     0.244 A 
HETATM    3  N1  UNL     1      23.445   1.324  51.720  1.00  0.00     0.000 N 
HETATM    4  C7  UNL     1      23.348   2.030  50.604  1.00  0.00     0.232 A 
HETATM    5  N2  UNL     1      23.142   1.127  51.866  1.00  0.00     0.156 N 
HETATM    6  C8  UNL     1      24.293   0.955  52.668  1.00  0.00     0.310 A 
HETATM    7  C15 UNL     1      23.914   1.643  51.495  1.00  0.00     0.153 A 
HETATM    8  C16 UNL     1      24.901   2.773  50.936  1.00  0.00     0.101 C 
HETATM    9  O2  UNL     1      26.154   3.177  50.942  1.00  0.00    -0.349 OA
HETATM   10  C17 UNL     1      26.604   3.319  49.551  1.00  0.00     0.202 C 
HETATM   11  C18 UNL     1      26.352   4.817  49.201  1.00  0.00     0.202 C 
HETATM   12  O3  UNL     1      24.924   5.063  49.419  1.00  0.00    -0.344 OA
HETATM   13  C19 UNL     1      24.336   3.991  49.994  1.00  0.00     0.128 C 
HETATM   14  C20 UNL     1      22.926   3.695  49.848  1.00  0.00     0.085 C 
HETATM   15  C21 UNL     1      22.642   2.309  49.193  1.00  0.00     0.114 C 
HETATM   16  O4  UNL     1      21.518   4.280  50.133  1.00  0.00    -0.348 OA
HETATM   17  C22 UNL     1      20.576   3.502  51.074  1.00  0.00     0.208 C 
ENDROOT
BRANCH   6  18
HETATM   18  N3  UNL     1      25.011   0.447  53.752  1.00  0.00    -0.350 N 
HETATM   19  H10 UNL     1      24.506   0.011  54.500  1.00  0.00     0.162 HD
BRANCH  18  20
HETATM   20  C9  UNL     1      26.414   0.607  53.689  1.00  0.00     0.031 A 
HETATM   21  C10 UNL     1      26.820   1.907  53.779  1.00  0.00     0.029 A 
HETATM   22  C11 UNL     1      28.161   2.242  53.722  1.00  0.00     0.004 A 
HETATM   23  C12 UNL     1      29.152   1.294  53.573  1.00  0.00     0.024 A 
HETATM   24  C13 UNL     1      28.731  -0.020  53.484  1.00  0.00     0.036 A 
HETATM   25 CL1  UNL     1      29.834  -1.389  53.292  1.00  0.00    -0.084 Cl
HETATM   26  C14 UNL     1      27.397  -0.344  53.542  1.00  0.00     0.053 A 
ENDBRANCH  18  20
ENDBRANCH   6  18
BRANCH   1  27
HETATM   27  C4  UNL     1      20.005   1.103  51.401  1.00  0.00     0.061 C 
BRANCH  27  28
HETATM   28  C3  UNL     1      20.242  -0.032  52.363  1.00  0.00     0.171 C 
BRANCH  28  29
HETATM   29  O1  UNL     1      20.013   0.455  53.631  1.00  0.00    -0.391 OA
BRANCH  29  30
HETATM   30  C2  UNL     1      20.918   0.110  54.597  1.00  0.00     0.163 C 
HETATM   31  C1  UNL     1      21.551  -1.236  54.273  1.00  0.00     0.033 C 
ENDBRANCH  29  30
ENDBRANCH  28  29
ENDBRANCH  27  28
ENDBRANCH   1  27
TORSDOF 8
ENDMDL
MODEL 6
REMARK VINA RESULT:      -8.3      1.603      4.898
REMARK  8 active torsions:
REMARK  status: ('A' for Active; 'I' for Inactive)
REMARK    1  A    between atoms: C2_2  and  O1_3 
REMARK    2  A    between atoms: O1_3  and  C3_4 
REMARK    3  A    between atoms: C3_4  and  C4_5 
REMARK    4  A    between atoms: C4_5  and  C5_6 
REMARK    5  A    between atoms: C6_7  and  N2_10 
REMARK    6  A    between atoms: C8_11  and  N3_12 
REMARK    7  A    between atoms: C8_11  and  C15_20 
REMARK    8  A    between atoms: N3_12  and  C9_13 
ROOT
HETATM    1  C5  UNL     1      21.749   1.443  53.000  1.00  0.00    -0.033 C 
HETATM    2  C6  UNL     1      23.165   1.001  52.919  1.00  0.00     0.244 A 
HETATM    3  N1  UNL     1      24.170   1.580  52.771  1.00  0.00     0.000 N 
HETATM    4  C7  UNL     1      23.548   1.924  51.654  1.00  0.00     0.232 A 
HETATM    5  N2  UNL     1      24.005   1.345  53.035  1.00  0.00     0.156 N 
HETATM    6  C8  UNL     1      25.304   1.727  53.439  1.00  0.00     0.310 A 
HETATM    7  C15 UNL     1      24.421   1.957  52.362  1.00  0.00     0.153 A 
HETATM    8  C16 UNL     1      24.764   3.151  51.353  1.00  0.00     0.101 C 
HETATM    9  O2  UNL     1      25.749   3.896  50.894  1.00  0.00    -0.349 OA
HETATM   10  C17 UNL     1      25.751   3.812  49.428  1.00  0.00     0.202 C 
HETATM   11  C18 UNL     1      24.901   5.032  48.958  1.00  0.00     0.202 C 
HETATM   12  O3  UNL     1      23.585   4.891  49.585  1.00  0.00    -0.344 OA
HETATM   13  C19 UNL     1      23.583   3.872  50.472  1.00  0.00     0.128 C 
HETATM   14  C20 UNL     1      22.384   3.146  50.834  1.00  0.00     0.085 C 
HETATM   15  C21 UNL     1      22.457   1.620  50.521  1.00  0.00     0.114 C 
HETATM   16  O4  UNL     1      20.982   3.340  51.466  1.00  0.00    -0.348 OA
HETATM   17  C22 UNL     1      20.649   2.579  52.766  1.00  0.00     0.208 C 
ENDROOT
BRANCH   6  18
HETATM   18  N3  UNL     1      26.405   1.741  54.297  1.00  0.00    -0.350 N 
HETATM   19  H10 UNL     1      26.403   2.380  55.070  1.00  0.00     0.162 HD
BRANCH  18  20
HETATM   20  C9  UNL     1      27.443   0.836  53.981  1.00  0.00     0.031 A 
HETATM   21  C10 UNL     1      28.691   1.381  54.072  1.00  0.00     0.029 A 
HETATM   22  C11 UNL     1      29.819   0.636  53.784  1.00  0.00     0.004 A 
HETATM   23  C12 UNL     1      29.750  -0.686  53.393  1.00  0.00     0.024 A 
HETATM   24  C13 UNL     1      28.482  -1.230  53.305  1.00  0.00     0.036 A 
HETATM   25 CL1  UNL     1      28.168  -2.902  52.825  1.00  0.00    -0.084 Cl
HETATM   26  C14 UNL     1      27.366  -0.482  53.593  1.00  0.00     0.053 A 
ENDBRANCH  18  20
ENDBRANCH   6  18
BRANCH   1  27
HETATM   27  C4  UNL     1      21.075   0.279  53.614  1.00  0.00     0.061 C 
BRANCH  27  28
HETATM   28  C3  UNL     1      20.274  -0.537  52.634  1.00  0.00     0.171 C 
BRANCH  28  29
HETATM   29  O1  UNL     1      18.947  -0.391  52.971  1.00  0.00    -0.391 OA
BRANCH  29  30
HETATM   30  C2  UNL     1      18.034  -0.549  51.965  1.00  0.00     0.163 C 
HETATM   31  C1  UNL     1      18.373   0.364  50.795  1.00  0.00     0.033 C 
ENDBRANCH  29  30
ENDBRANCH  28  29
ENDBRANCH  27  28
ENDBRANCH   1  27
TORSDOF 8
ENDMDL
MODEL 7
REMARK VINA RESULT:      -8.2      2.891      6.627
REMARK  8 active torsions:
REMARK  status: ('A' for Active; 'I' for Inactive)
REMARK    1  A    between atoms: C2_2  and  O1_3 
REMARK    2  A    between atoms: O1_3  and  C3_4 
REMARK    3  A    between atoms: C3_4  and  C4_5 
REMARK    4  A    between atoms: C4_5  and  C5_6 
REMARK    5  A    between atoms: C6_7  and  N2_10 
REMARK    6  A    between atoms: C8_11  and  N3_12 
REMARK    7  A    between atoms: C8_11  and  C15_20 
REMARK    8  A    between atoms: N3_12  and  C9_13 
ROOT
HETATM    1  C5  UNL     1      25.852   0.179  52.720  1.00  0.00    -0.033 C 
HETATM    2  C6  UNL     1      24.574   0.316  53.465  1.00  0.00     0.244 A 
HETATM    3  N1  UNL     1      23.529   0.753  53.175  1.00  0.00     0.000 N 
HETATM    4  C7  UNL     1      24.277   1.830  52.998  1.00  0.00     0.232 A 
HETATM    5  N2  UNL     1      23.680   0.413  53.294  1.00  0.00     0.156 N 
HETATM    6  C8  UNL     1      22.282   0.308  53.114  1.00  0.00     0.310 A 
HETATM    7  C15 UNL     1      23.297   1.281  52.978  1.00  0.00     0.153 A 
HETATM    8  C16 UNL     1      22.945   2.625  52.181  1.00  0.00     0.101 C 
HETATM    9  O2  UNL     1      21.948   3.401  51.809  1.00  0.00    -0.349 OA
HETATM   10  C17 UNL     1      22.232   4.770  52.260  1.00  0.00     0.202 C 
HETATM   11  C18 UNL     1      22.930   5.453  51.044  1.00  0.00     0.202 C 
HETATM   12  O3  UNL     1      24.112   4.645  50.733  1.00  0.00    -0.344 OA
HETATM   13  C19 UNL     1      24.126   3.513  51.468  1.00  0.00     0.128 C 
HETATM   14  C20 UNL     1      25.344   2.805  51.802  1.00  0.00     0.085 C 
HETATM   15  C21 UNL     1      25.595   2.676  53.334  1.00  0.00     0.114 C 
HETATM   16  O4  UNL     1      26.550   2.076  51.154  1.00  0.00    -0.348 OA
HETATM   17  C22 UNL     1      26.763   0.581  51.470  1.00  0.00     0.208 C 
ENDROOT
BRANCH   6  18
HETATM   18  N3  UNL     1      21.056  -0.358  53.122  1.00  0.00    -0.350 N 
HETATM   19  H10 UNL     1      20.901  -1.071  53.810  1.00  0.00     0.162 HD
BRANCH  18  20
HETATM   20  C9  UNL     1      20.132   0.042  52.130  1.00  0.00     0.031 A 
HETATM   21  C10 UNL     1      18.848  -0.340  52.394  1.00  0.00     0.029 A 
HETATM   22  C11 UNL     1      17.820  -0.039  51.520  1.00  0.00     0.004 A 
HETATM   23  C12 UNL     1      18.029   0.655  50.346  1.00  0.00     0.024 A 
HETATM   24  C13 UNL     1      19.332   1.039  50.088  1.00  0.00     0.036 A 
HETATM   25 CL1  UNL     1      19.819   1.936  48.645  1.00  0.00    -0.084 Cl
HETATM   26  C14 UNL     1      20.348   0.736  50.962  1.00  0.00     0.053 A 
ENDBRANCH  18  20
ENDBRANCH   6  18
BRANCH   1  27
HETATM   27  C4  UNL     1      26.592  -0.824  53.516  1.00  0.00     0.061 C 
BRANCH  27  28
HETATM   28  C3  UNL     1      27.242  -0.252  54.747  1.00  0.00     0.171 C 
BRANCH  28  29
HETATM   29  O1  UNL     1      28.577  -0.587  54.696  1.00  0.00    -0.391 OA
BRANCH  29  30
HETATM   30  C2  UNL     1      29.384   0.209  53.929  1.00  0.00     0.163 C 
HETATM   31  C1  UNL     1      29.153   1.676  54.264  1.00  0.00     0.033 C 
ENDBRANCH  29  30
ENDBRANCH  28  29
ENDBRANCH  27  28
ENDBRANCH   1  27
TORSDOF 8
ENDMDL
MODEL 8
REMARK VINA RESULT:      -7.9      3.106      7.425
REMARK  8 active torsions:
REMARK  status: ('A' for Active; 'I' for Inactive)
REMARK    1  A    between atoms: C2_2  and  O1_3 
REMARK    2  A    between atoms: O1_3  and  C3_4 
REMARK    3  A    between atoms: C3_4  and  C4_5 
REMARK    4  A    between atoms: C4_5  and  C5_6 
REMARK    5  A    between atoms: C6_7  and  N2_10 
REMARK    6  A    between atoms: C8_11  and  N3_12 
REMARK    7  A    between atoms: C8_11  and  C15_20 
REMARK    8  A    between atoms: N3_12  and  C9_13 
ROOT
HETATM    1  C5  UNL     1      24.537   0.107  52.938  1.00  0.00    -0.033 C 
HETATM    2  C6  UNL     1      23.396   0.925  52.453  1.00  0.00     0.244 A 
HETATM    3  N1  UNL     1      23.186   1.475  51.442  1.00  0.00     0.000 N 
HETATM    4  C7  UNL     1      24.299   2.092  51.805  1.00  0.00     0.232 A 
HETATM    5  N2  UNL     1      23.025   1.194  51.661  1.00  0.00     0.156 N 
HETATM    6  C8  UNL     1      22.256   1.436  50.499  1.00  0.00     0.310 A 
HETATM    7  C15 UNL     1      23.447   1.905  51.097  1.00  0.00     0.153 A 
HETATM    8  C16 UNL     1      24.432   2.799  50.206  1.00  0.00     0.101 C 
HETATM    9  O2  UNL     1      24.479   3.587  49.152  1.00  0.00    -0.349 OA
HETATM   10  C17 UNL     1      25.083   4.864  49.552  1.00  0.00     0.202 C 
HETATM   11  C18 UNL     1      26.600   4.705  49.229  1.00  0.00     0.202 C 
HETATM   12  O3  UNL     1      27.067   3.536  49.978  1.00  0.00    -0.344 OA
HETATM   13  C19 UNL     1      26.031   2.893  50.558  1.00  0.00     0.128 C 
HETATM   14  C20 UNL     1      26.175   2.082  51.748  1.00  0.00     0.085 C 
HETATM   15  C21 UNL     1      25.312   2.572  52.950  1.00  0.00     0.114 C 
HETATM   16  O4  UNL     1      26.904   0.825  52.290  1.00  0.00    -0.348 OA
HETATM   17  C22 UNL     1      26.054  -0.368  52.774  1.00  0.00     0.208 C 
ENDROOT
BRANCH   6  18
HETATM   18  N3  UNL     1      21.180   1.233  49.634  1.00  0.00    -0.350 N 
HETATM   19  H10 UNL     1      21.368   0.935  48.696  1.00  0.00     0.162 HD
BRANCH  18  20
HETATM   20  C9  UNL     1      19.899   1.480  50.178  1.00  0.00     0.031 A 
HETATM   21  C10 UNL     1      19.805   2.674  50.834  1.00  0.00     0.029 A 
HETATM   22  C11 UNL     1      18.624   3.066  51.437  1.00  0.00     0.004 A 
HETATM   23  C12 UNL     1      17.488   2.284  51.410  1.00  0.00     0.024 A 
HETATM   24  C13 UNL     1      17.592   1.077  50.744  1.00  0.00     0.036 A 
HETATM   25 CL1  UNL     1      16.259  -0.073  50.590  1.00  0.00    -0.084 Cl
HETATM   26  C14 UNL     1      18.770   0.695  50.147  1.00  0.00     0.053 A 
ENDBRANCH  18  20
ENDBRANCH   6  18
BRANCH   1  27
HETATM   27  C4  UNL     1      23.959  -0.612  54.094  1.00  0.00     0.061 C 
BRANCH  27  28
HETATM   28  C3  UNL     1      22.574  -1.144  53.838  1.00  0.00     0.171 C 
BRANCH  28  29
HETATM   29  O1  UNL     1      21.799  -0.803  54.924  1.00  0.00    -0.391 OA
BRANCH  29  30
HETATM   30  C2  UNL     1      20.813   0.122  54.713  1.00  0.00     0.163 C 
HETATM   31  C1  UNL     1      19.991  -0.251  53.488  1.00  0.00     0.033 C 
ENDBRANCH  29  30
ENDBRANCH  28  29
ENDBRANCH  27  28
ENDBRANCH   1  27
TORSDOF 8
ENDMDL
MODEL 9
REMARK VINA RESULT:      -7.9      3.271      6.424
REMARK  8 active torsions:
REMARK  status: ('A' for Active; 'I' for Inactive)
REMARK    1  A    between atoms: C2_2  and  O1_3 
REMARK    2  A    between atoms: O1_3  and  C3_4 
REMARK    3  A    between atoms: C3_4  and  C4_5 
REMARK    4  A    between atoms: C4_5  and  C5_6 
REMARK    5  A    between atoms: C6_7  and  N2_10 
REMARK    6  A    between atoms: C8_11  and  N3_12 
REMARK    7  A    between atoms: C8_11  and  C15_20 
REMARK    8  A    between atoms: N3_12  and  C9_13 
ROOT
HETATM    1  C5  UNL     1      23.757   0.773  52.941  1.00  0.00    -0.033 C 
HETATM    2  C6  UNL     1      23.910   1.997  52.113  1.00  0.00     0.244 A 
HETATM    3  N1  UNL     1      23.280   2.978  52.021  1.00  0.00     0.000 N 
HETATM    4  C7  UNL     1      22.362   2.089  51.675  1.00  0.00     0.232 A 
HETATM    5  N2  UNL     1      23.644   2.872  52.115  1.00  0.00     0.156 N 
HETATM    6  C8  UNL     1      23.489   4.276  52.182  1.00  0.00     0.310 A 
HETATM    7  C15 UNL     1      22.708   3.138  51.884  1.00  0.00     0.153 A 
HETATM    8  C16 UNL     1      21.119   3.319  51.809  1.00  0.00     0.101 C 
HETATM    9  O2  UNL     1      20.165   4.206  51.611  1.00  0.00    -0.349 OA
HETATM   10  C17 UNL     1      19.292   3.718  50.536  1.00  0.00     0.202 C 
HETATM   11  C18 UNL     1      18.140   2.966  51.269  1.00  0.00     0.202 C 
HETATM   12  O3  UNL     1      18.771   1.920  52.078  1.00  0.00    -0.344 OA
HETATM   13  C19 UNL     1      20.115   2.045  52.059  1.00  0.00     0.128 C 
HETATM   14  C20 UNL     1      21.013   0.931  52.275  1.00  0.00     0.085 C 
HETATM   15  C21 UNL     1      21.971   0.655  51.077  1.00  0.00     0.114 C 
HETATM   16  O4  UNL     1      21.400  -0.140  53.328  1.00  0.00    -0.348 OA
HETATM   17  C22 UNL     1      22.843  -0.148  53.873  1.00  0.00     0.208 C 
ENDROOT
BRANCH   6  18
HETATM   18  N3  UNL     1      23.924   5.583  52.404  1.00  0.00    -0.350 N 
HETATM   19  H10 UNL     1      24.460   5.777  53.229  1.00  0.00     0.162 HD
BRANCH  18  20
HETATM   20  C9  UNL     1      23.551   6.530  51.423  1.00  0.00     0.031 A 
HETATM   21  C10 UNL     1      24.605   7.234  50.915  1.00  0.00     0.029 A 
HETATM   22  C11 UNL     1      24.416   8.209  49.954  1.00  0.00     0.004 A 
HETATM   23  C12 UNL     1      23.167   8.524  49.459  1.00  0.00     0.024 A 
HETATM   24  C13 UNL     1      22.105   7.806  49.979  1.00  0.00     0.036 A 
HETATM   25 CL1  UNL     1      20.426   8.048  49.484  1.00  0.00    -0.084 Cl
HETATM   26  C14 UNL     1      22.303   6.838  50.934  1.00  0.00     0.053 A 
ENDBRANCH  18  20
ENDBRANCH   6  18
BRANCH   1  27
HETATM   27  C4  UNL     1      25.101   0.161  52.876  1.00  0.00     0.061 C 
BRANCH  27  28
HETATM   28  C3  UNL     1      25.395  -0.763  54.029  1.00  0.00     0.171 C 
BRANCH  28  29
HETATM   29  O1  UNL     1      26.763  -0.907  54.097  1.00  0.00    -0.391 OA
BRANCH  29  30
HETATM   30  C2  UNL     1      27.477   0.179  54.524  1.00  0.00     0.163 C 
HETATM   31  C1  UNL     1      28.955  -0.002  54.207  1.00  0.00     0.033 C 
ENDBRANCH  29  30
ENDBRANCH  28  29
ENDBRANCH  27  28
ENDBRANCH   1  27
TORSDOF 8
ENDMDL
