MODEL 1
REMARK VINA RESULT:      -9.3      0.000      0.000
REMARK  5 active torsions:
REMARK  status: ('A' for Active; 'I' for Inactive)
REMARK       I    between atoms: C2_2  and  N1_4 
REMARK    1  A    between atoms: N1_4  and  C3_5 
REMARK    2  A    between atoms: C12_16  and  O2_17 
REMARK    3  A    between atoms: O2_17  and  C13_18 
REMARK    4  A    between atoms: C13_18  and  C14_19 
REMARK    5  A    between atoms: N4_29  and  N5_30 
ROOT
HETATM    1  C3  UNL     1      24.012   3.053  50.316  1.00  0.00    -0.001 C 
HETATM    2  C4  UNL     1      23.171   4.005  50.036  1.00  0.00     0.062 C 
HETATM    3  C5  UNL     1      22.010   4.812  50.280  1.00  0.00     0.094 A 
HETATM    4  C6  UNL     1      20.937   5.504  50.570  1.00  0.00     0.103 A 
HETATM    5  N2  UNL     1      21.102   4.533  51.600  1.00  0.00    -0.263 NA
HETATM    6  C7  UNL     1      20.111   3.676  51.723  1.00  0.00     0.181 C 
HETATM    7  N3  UNL     1      20.099   2.632  52.696  1.00  0.00    -0.231 NA
HETATM    8  C8  UNL     1      21.033   1.704  52.669  1.00  0.00     0.141 C 
HETATM    9  C9  UNL     1      20.863   0.699  53.751  1.00  0.00     0.052 C 
HETATM   10  C10 UNL     1      21.755  -0.186  54.233  1.00  0.00     0.006 C 
HETATM   11  C11 UNL     1      23.101  -0.455  53.678  1.00  0.00     0.035 C 
HETATM   12  C12 UNL     1      23.884   0.260  52.848  1.00  0.00     0.076 C 
HETATM   13  C20 UNL     1      23.512   1.595  52.259  1.00  0.00     0.100 C 
HETATM   14  C21 UNL     1      23.605   2.587  53.370  1.00  0.00     0.048 C 
HETATM   15  C22 UNL     1      24.457   1.917  51.138  1.00  0.00     0.092 C 
HETATM   16  N4  UNL     1      22.155   1.551  51.748  1.00  0.00    -0.282 N 
ENDROOT
BRANCH  12  17
HETATM   17  O2  UNL     1      25.107  -0.231  52.493  1.00  0.00    -0.348 OA
BRANCH  17  18
HETATM   18  C13 UNL     1      25.916  -1.002  53.377  1.00  0.00     0.214 C 
BRANCH  18  19
HETATM   19  C14 UNL     1      27.279  -0.419  53.463  1.00  0.00    -0.031 A 
HETATM   20  C15 UNL     1      28.423  -1.210  53.393  1.00  0.00     0.009 A 
HETATM   21  C16 UNL     1      29.711  -0.719  53.458  1.00  0.00     0.004 A 
HETATM   22  C17 UNL     1      29.795   0.643  53.603  1.00  0.00     0.042 A 
HETATM   23  C18 UNL     1      28.739   1.505  53.682  1.00  0.00     0.117 A 
HETATM   24  F1  UNL     1      28.843   2.847  53.818  1.00  0.00    -0.206 F 
HETATM   25  C19 UNL     1      27.447   0.970  53.611  1.00  0.00     0.051 A 
ENDBRANCH  18  19
ENDBRANCH  17  18
ENDBRANCH  12  17
BRANCH  16  26
HETATM   26  N5  UNL     1      21.340   1.396  50.623  1.00  0.00    -0.245 NA
HETATM   27  H23 UNL     1      20.871   0.463  50.594  1.00  0.00     0.143 HD
HETATM   28  H24 UNL     1      20.621   2.145  50.550  1.00  0.00     0.143 HD
ENDBRANCH  16  26
BRANCH   1  29
HETATM   29  N1  UNL     1      24.672   3.438  49.128  1.00  0.00    -0.334 N 
HETATM   30  C2  UNL     1      25.994   3.858  49.571  1.00  0.00     0.217 C 
HETATM   31  C1  UNL     1      27.192   4.369  48.828  1.00  0.00     0.117 C 
HETATM   32  O1  UNL     1      26.388   3.858  50.804  1.00  0.00    -0.274 OA
HETATM   33  H4  UNL     1      24.926   3.650  48.150  1.00  0.00     0.168 HD
ENDBRANCH   1  29
TORSDOF 5
ENDMDL
MODEL 2
REMARK VINA RESULT:      -9.1      1.646      1.925
REMARK  5 active torsions:
REMARK  status: ('A' for Active; 'I' for Inactive)
REMARK       I    between atoms: C2_2  and  N1_4 
REMARK    1  A    between atoms: N1_4  and  C3_5 
REMARK    2  A    between atoms: C12_16  and  O2_17 
REMARK    3  A    between atoms: O2_17  and  C13_18 
REMARK    4  A    between atoms: C13_18  and  C14_19 
REMARK    5  A    between atoms: N4_29  and  N5_30 
ROOT
HETATM    1  C3  UNL     1      24.469   4.649  50.651  1.00  0.00    -0.001 C 
HETATM    2  C4  UNL     1      23.864   5.462  49.834  1.00  0.00     0.062 C 
HETATM    3  C5  UNL     1      22.723   5.958  49.121  1.00  0.00     0.094 A 
HETATM    4  C6  UNL     1      21.638   6.353  48.505  1.00  0.00     0.103 A 
HETATM    5  N2  UNL     1      21.281   5.228  49.304  1.00  0.00    -0.263 NA
HETATM    6  C7  UNL     1      20.818   4.193  48.638  1.00  0.00     0.181 C 
HETATM    7  N3  UNL     1      20.413   2.978  49.267  1.00  0.00    -0.231 NA
HETATM    8  C8  UNL     1      21.291   2.274  49.953  1.00  0.00     0.141 C 
HETATM    9  C9  UNL     1      20.696   1.043  50.535  1.00  0.00     0.052 C 
HETATM   10  C10 UNL     1      21.167   0.260  51.523  1.00  0.00     0.006 C 
HETATM   11  C11 UNL     1      22.493   0.380  52.172  1.00  0.00     0.035 C 
HETATM   12  C12 UNL     1      23.376   1.396  52.216  1.00  0.00     0.076 C 
HETATM   13  C20 UNL     1      23.178   2.733  51.550  1.00  0.00     0.100 C 
HETATM   14  C21 UNL     1      22.147   3.455  52.352  1.00  0.00     0.048 C 
HETATM   15  C22 UNL     1      24.487   3.467  51.525  1.00  0.00     0.092 C 
HETATM   16  N4  UNL     1      22.704   2.544  50.192  1.00  0.00    -0.282 N 
ENDROOT
BRANCH  12  17
HETATM   17  O2  UNL     1      24.544   1.238  52.904  1.00  0.00    -0.348 OA
BRANCH  17  18
HETATM   18  C13 UNL     1      25.199  -0.021  53.035  1.00  0.00     0.214 C 
BRANCH  18  19
HETATM   19  C14 UNL     1      26.657   0.179  53.231  1.00  0.00    -0.031 A 
HETATM   20  C15 UNL     1      27.554  -0.887  53.225  1.00  0.00     0.009 A 
HETATM   21  C16 UNL     1      28.917  -0.755  53.395  1.00  0.00     0.004 A 
HETATM   22  C17 UNL     1      29.347   0.535  53.577  1.00  0.00     0.042 A 
HETATM   23  C18 UNL     1      28.553   1.646  53.599  1.00  0.00     0.117 A 
HETATM   24  F1  UNL     1      28.998   2.913  53.773  1.00  0.00    -0.206 F 
HETATM   25  C19 UNL     1      27.174   1.474  53.423  1.00  0.00     0.051 A 
ENDBRANCH  18  19
ENDBRANCH  17  18
ENDBRANCH  12  17
BRANCH  16  26
HETATM   26  N5  UNL     1      23.048   2.488  48.838  1.00  0.00    -0.245 NA
HETATM   27  H23 UNL     1      22.296   2.061  48.252  1.00  0.00     0.143 HD
HETATM   28  H24 UNL     1      23.293   3.424  48.454  1.00  0.00     0.143 HD
ENDBRANCH  16  26
BRANCH   1  29
HETATM   29  N1  UNL     1      25.628   5.405  50.368  1.00  0.00    -0.334 N 
HETATM   30  C2  UNL     1      26.381   4.574  49.439  1.00  0.00     0.217 C 
HETATM   31  C1  UNL     1      27.690   4.777  48.738  1.00  0.00     0.117 C 
HETATM   32  O1  UNL     1      26.002   3.407  49.027  1.00  0.00    -0.274 OA
HETATM   33  H4  UNL     1      26.362   6.129  50.324  1.00  0.00     0.168 HD
ENDBRANCH   1  29
TORSDOF 5
ENDMDL
MODEL 3
REMARK VINA RESULT:      -9.0      1.864      4.493
REMARK  5 active torsions:
REMARK  status: ('A' for Active; 'I' for Inactive)
REMARK       I    between atoms: C2_2  and  N1_4 
REMARK    1  A    between atoms: N1_4  and  C3_5 
REMARK    2  A    between atoms: C12_16  and  O2_17 
REMARK    3  A    between atoms: O2_17  and  C13_18 
REMARK    4  A    between atoms: C13_18  and  C14_19 
REMARK    5  A    between atoms: N4_29  and  N5_30 
ROOT
HETATM    1  C3  UNL     1      21.741   1.856  52.669  1.00  0.00    -0.001 C 
HETATM    2  C4  UNL     1      20.538   2.330  52.523  1.00  0.00     0.062 C 
HETATM    3  C5  UNL     1      19.537   3.125  51.871  1.00  0.00     0.094 A 
HETATM    4  C6  UNL     1      18.681   3.873  51.224  1.00  0.00     0.103 A 
HETATM    5  N2  UNL     1      19.934   3.997  50.558  1.00  0.00    -0.263 NA
HETATM    6  C7  UNL     1      20.432   5.214  50.526  1.00  0.00     0.181 C 
HETATM    7  N3  UNL     1      21.678   5.532  49.905  1.00  0.00    -0.231 NA
HETATM    8  C8  UNL     1      22.788   4.979  50.350  1.00  0.00     0.141 C 
HETATM    9  C9  UNL     1      23.984   5.424  49.589  1.00  0.00     0.052 C 
HETATM   10  C10 UNL     1      25.209   4.868  49.533  1.00  0.00     0.006 C 
HETATM   11  C11 UNL     1      25.686   3.732  50.355  1.00  0.00     0.035 C 
HETATM   12  C12 UNL     1      25.020   2.799  51.061  1.00  0.00     0.076 C 
HETATM   13  C20 UNL     1      23.520   2.718  51.173  1.00  0.00     0.100 C 
HETATM   14  C21 UNL     1      23.024   2.225  49.854  1.00  0.00     0.048 C 
HETATM   15  C22 UNL     1      23.161   1.786  52.292  1.00  0.00     0.092 C 
HETATM   16  N4  UNL     1      22.973   4.034  51.446  1.00  0.00    -0.282 N 
ENDROOT
BRANCH  12  17
HETATM   17  O2  UNL     1      25.722   1.843  51.735  1.00  0.00    -0.348 OA
BRANCH  17  18
HETATM   18  C13 UNL     1      26.923   2.126  52.450  1.00  0.00     0.214 C 
BRANCH  18  19
HETATM   19  C14 UNL     1      27.631   0.863  52.781  1.00  0.00    -0.031 A 
HETATM   20  C15 UNL     1      28.862   0.859  53.433  1.00  0.00     0.009 A 
HETATM   21  C16 UNL     1      29.556  -0.284  53.771  1.00  0.00     0.004 A 
HETATM   22  C17 UNL     1      28.938  -1.454  53.411  1.00  0.00     0.042 A 
HETATM   23  C18 UNL     1      27.736  -1.559  52.772  1.00  0.00     0.117 A 
HETATM   24  F1  UNL     1      27.139  -2.725  52.432  1.00  0.00    -0.206 F 
HETATM   25  C19 UNL     1      27.059  -0.378  52.445  1.00  0.00     0.051 A 
ENDBRANCH  18  19
ENDBRANCH  17  18
ENDBRANCH  12  17
BRANCH  16  26
HETATM   26  N5  UNL     1      22.492   4.914  52.420  1.00  0.00    -0.245 NA
HETATM   27  H23 UNL     1      23.252   5.283  53.034  1.00  0.00     0.143 HD
HETATM   28  H24 UNL     1      21.967   5.711  52.006  1.00  0.00     0.143 HD
ENDBRANCH  16  26
BRANCH   1  29
HETATM   29  N1  UNL     1      21.215   1.171  53.788  1.00  0.00    -0.334 N 
HETATM   30  C2  UNL     1      21.364  -0.237  53.450  1.00  0.00     0.217 C 
HETATM   31  C1  UNL     1      21.022  -1.494  54.192  1.00  0.00     0.117 C 
HETATM   32  O1  UNL     1      21.866  -0.676  52.340  1.00  0.00    -0.274 OA
HETATM   33  H4  UNL     1      20.793   0.916  54.694  1.00  0.00     0.168 HD
ENDBRANCH   1  29
TORSDOF 5
ENDMDL
MODEL 4
REMARK VINA RESULT:      -8.9      2.101      4.815
REMARK  5 active torsions:
REMARK  status: ('A' for Active; 'I' for Inactive)
REMARK       I    between atoms: C2_2  and  N1_4 
REMARK    1  A    between atoms: N1_4  and  C3_5 
REMARK    2  A    between atoms: C12_16  and  O2_17 
REMARK    3  A    between atoms: O2_17  and  C13_18 
REMARK    4  A    between atoms: C13_18  and  C14_19 
REMARK    5  A    between atoms: N4_29  and  N5_30 
ROOT
HETATM    1  C3  UNL     1      21.301   0.734  53.223  1.00  0.00    -0.001 C 
HETATM    2  C4  UNL     1      20.141   0.166  53.066  1.00  0.00     0.062 C 
HETATM    3  C5  UNL     1      18.949  -0.148  52.332  1.00  0.00     0.094 A 
HETATM    4  C6  UNL     1      17.891  -0.390  51.602  1.00  0.00     0.103 A 
HETATM    5  N2  UNL     1      18.750   0.446  50.832  1.00  0.00    -0.263 NA
HETATM    6  C7  UNL     1      18.240   1.610  50.493  1.00  0.00     0.181 C 
HETATM    7  N3  UNL     1      18.952   2.581  49.726  1.00  0.00    -0.231 NA
HETATM    8  C8  UNL     1      20.071   3.092  50.197  1.00  0.00     0.141 C 
HETATM    9  C9  UNL     1      20.674   4.084  49.268  1.00  0.00     0.052 C 
HETATM   10  C10 UNL     1      21.929   4.570  49.246  1.00  0.00     0.006 C 
HETATM   11  C11 UNL     1      22.978   4.318  50.260  1.00  0.00     0.035 C 
HETATM   12  C12 UNL     1      23.097   3.365  51.203  1.00  0.00     0.076 C 
HETATM   13  C20 UNL     1      22.094   2.267  51.443  1.00  0.00     0.100 C 
HETATM   14  C21 UNL     1      22.238   1.309  50.307  1.00  0.00     0.048 C 
HETATM   15  C22 UNL     1      22.383   1.619  52.765  1.00  0.00     0.092 C 
HETATM   16  N4  UNL     1      20.752   2.817  51.458  1.00  0.00    -0.282 N 
ENDROOT
BRANCH  12  17
HETATM   17  O2  UNL     1      24.191   3.364  52.018  1.00  0.00    -0.348 OA
BRANCH  17  18
HETATM   18  C13 UNL     1      25.489   2.983  51.569  1.00  0.00     0.214 C 
BRANCH  18  19
HETATM   19  C14 UNL     1      25.931   1.749  52.267  1.00  0.00    -0.031 A 
HETATM   20  C15 UNL     1      26.372   0.627  51.569  1.00  0.00     0.009 A 
HETATM   21  C16 UNL     1      26.801  -0.539  52.169  1.00  0.00     0.004 A 
HETATM   22  C17 UNL     1      26.762  -0.524  53.539  1.00  0.00     0.042 A 
HETATM   23  C18 UNL     1      26.348   0.521  54.316  1.00  0.00     0.117 A 
HETATM   24  F1  UNL     1      26.324   0.519  55.669  1.00  0.00    -0.206 F 
HETATM   25  C19 UNL     1      25.921   1.689  53.673  1.00  0.00     0.051 A 
ENDBRANCH  18  19
ENDBRANCH  17  18
ENDBRANCH  12  17
BRANCH  16  26
HETATM   26  N5  UNL     1      19.689   3.269  52.246  1.00  0.00    -0.245 NA
HETATM   27  H23 UNL     1      18.787   3.299  51.721  1.00  0.00     0.143 HD
HETATM   28  H24 UNL     1      19.567   2.698  53.108  1.00  0.00     0.143 HD
ENDBRANCH  16  26
BRANCH   1  29
HETATM   29  N1  UNL     1      21.298   0.133  54.502  1.00  0.00    -0.334 N 
HETATM   30  C2  UNL     1      22.467  -0.734  54.494  1.00  0.00     0.217 C 
HETATM   31  C1  UNL     1      23.054  -1.645  55.530  1.00  0.00     0.117 C 
HETATM   32  O1  UNL     1      23.271  -0.874  53.489  1.00  0.00    -0.274 OA
HETATM   33  H4  UNL     1      21.081  -0.158  55.468  1.00  0.00     0.168 HD
ENDBRANCH   1  29
TORSDOF 5
ENDMDL
MODEL 5
REMARK VINA RESULT:      -8.9      2.608      5.520
REMARK  5 active torsions:
REMARK  status: ('A' for Active; 'I' for Inactive)
REMARK       I    between atoms: C2_2  and  N1_4 
REMARK    1  A    between atoms: N1_4  and  C3_5 
REMARK    2  A    between atoms: C12_16  and  O2_17 
REMARK    3  A    between atoms: O2_17  and  C13_18 
REMARK    4  A    between atoms: C13_18  and  C14_19 
REMARK    5  A    between atoms: N4_29  and  N5_30 
ROOT
HETATM    1  C3  UNL     1      22.545   4.800  51.301  1.00  0.00    -0.001 C 
HETATM    2  C4  UNL     1      21.812   5.872  51.227  1.00  0.00     0.062 C 
HETATM    3  C5  UNL     1      21.453   7.153  50.690  1.00  0.00     0.094 A 
HETATM    4  C6  UNL     1      21.189   8.315  50.149  1.00  0.00     0.103 A 
HETATM    5  N2  UNL     1      22.342   7.797  49.490  1.00  0.00    -0.263 NA
HETATM    6  C7  UNL     1      23.427   8.532  49.604  1.00  0.00     0.181 C 
HETATM    7  N3  UNL     1      24.677   8.174  49.015  1.00  0.00    -0.231 NA
HETATM    8  C8  UNL     1      25.272   7.055  49.375  1.00  0.00     0.141 C 
HETATM    9  C9  UNL     1      26.559   6.845  48.663  1.00  0.00     0.052 C 
HETATM   10  C10 UNL     1      27.277   5.715  48.527  1.00  0.00     0.006 C 
HETATM   11  C11 UNL     1      27.002   4.423  49.196  1.00  0.00     0.035 C 
HETATM   12  C12 UNL     1      25.892   3.943  49.788  1.00  0.00     0.076 C 
HETATM   13  C20 UNL     1      24.591   4.692  49.904  1.00  0.00     0.100 C 
HETATM   14  C21 UNL     1      23.986   4.703  48.540  1.00  0.00     0.048 C 
HETATM   15  C22 UNL     1      23.713   3.998  50.904  1.00  0.00     0.092 C 
HETATM   16  N4  UNL     1      24.841   6.052  50.344  1.00  0.00    -0.282 N 
ENDROOT
BRANCH  12  17
HETATM   17  O2  UNL     1      25.912   2.691  50.331  1.00  0.00    -0.348 OA
BRANCH  17  18
HETATM   18  C13 UNL     1      26.793   2.322  51.389  1.00  0.00     0.214 C 
BRANCH  18  19
HETATM   19  C14 UNL     1      26.238   1.167  52.138  1.00  0.00    -0.031 A 
HETATM   20  C15 UNL     1      25.055   1.263  52.869  1.00  0.00     0.009 A 
HETATM   21  C16 UNL     1      24.493   0.219  53.574  1.00  0.00     0.004 A 
HETATM   22  C17 UNL     1      25.195  -0.957  53.509  1.00  0.00     0.042 A 
HETATM   23  C18 UNL     1      26.359  -1.156  52.824  1.00  0.00     0.117 A 
HETATM   24  F1  UNL     1      27.034  -2.328  52.766  1.00  0.00    -0.206 F 
HETATM   25  C19 UNL     1      26.901  -0.074  52.118  1.00  0.00     0.051 A 
ENDBRANCH  18  19
ENDBRANCH  17  18
ENDBRANCH  12  17
BRANCH  16  26
HETATM   26  N5  UNL     1      24.866   6.939  51.424  1.00  0.00    -0.245 NA
HETATM   27  H23 UNL     1      25.458   6.592  52.212  1.00  0.00     0.143 HD
HETATM   28  H24 UNL     1      25.185   7.890  51.147  1.00  0.00     0.143 HD
ENDBRANCH  16  26
BRANCH   1  29
HETATM   29  N1  UNL     1      21.664   4.403  52.332  1.00  0.00    -0.334 N 
HETATM   30  C2  UNL     1      20.834   3.376  51.719  1.00  0.00     0.217 C 
HETATM   31  C1  UNL     1      19.713   2.534  52.252  1.00  0.00     0.117 C 
HETATM   32  O1  UNL     1      20.940   2.983  50.490  1.00  0.00    -0.274 OA
HETATM   33  H4  UNL     1      21.154   4.292  53.222  1.00  0.00     0.168 HD
ENDBRANCH   1  29
TORSDOF 5
ENDMDL
MODEL 6
REMARK VINA RESULT:      -8.9      2.730      6.289
REMARK  5 active torsions:
REMARK  status: ('A' for Active; 'I' for Inactive)
REMARK       I    between atoms: C2_2  and  N1_4 
REMARK    1  A    between atoms: N1_4  and  C3_5 
REMARK    2  A    between atoms: C12_16  and  O2_17 
REMARK    3  A    between atoms: O2_17  and  C13_18 
REMARK    4  A    between atoms: C13_18  and  C14_19 
REMARK    5  A    between atoms: N4_29  and  N5_30 
ROOT
HETATM    1  C3  UNL     1      22.908   0.644  52.075  1.00  0.00    -0.001 C 
HETATM    2  C4  UNL     1      22.440  -0.198  52.950  1.00  0.00     0.062 C 
HETATM    3  C5  UNL     1      22.462  -0.905  54.198  1.00  0.00     0.094 A 
HETATM    4  C6  UNL     1      22.552  -1.511  55.355  1.00  0.00     0.103 A 
HETATM    5  N2  UNL     1      23.676  -0.642  55.248  1.00  0.00    -0.263 NA
HETATM    6  C7  UNL     1      24.848  -1.238  55.282  1.00  0.00     0.181 C 
HETATM    7  N3  UNL     1      26.085  -0.533  55.186  1.00  0.00    -0.231 NA
HETATM    8  C8  UNL     1      26.357   0.165  54.102  1.00  0.00     0.141 C 
HETATM    9  C9  UNL     1      27.684   0.829  54.175  1.00  0.00     0.052 C 
HETATM   10  C10 UNL     1      28.165   1.845  53.434  1.00  0.00     0.006 C 
HETATM   11  C11 UNL     1      27.507   2.448  52.252  1.00  0.00     0.035 C 
HETATM   12  C12 UNL     1      26.230   2.412  51.827  1.00  0.00     0.076 C 
HETATM   13  C20 UNL     1      25.114   1.681  52.526  1.00  0.00     0.100 C 
HETATM   14  C21 UNL     1      24.795   2.471  53.751  1.00  0.00     0.048 C 
HETATM   15  C22 UNL     1      23.938   1.580  51.600  1.00  0.00     0.092 C 
HETATM   16  N4  UNL     1      25.552   0.349  52.898  1.00  0.00    -0.282 N 
ENDROOT
BRANCH  12  17
HETATM   17  O2  UNL     1      25.888   3.075  50.684  1.00  0.00    -0.348 OA
BRANCH  17  18
HETATM   18  C13 UNL     1      26.733   3.127  49.538  1.00  0.00     0.214 C 
BRANCH  18  19
HETATM   19  C14 UNL     1      26.822   4.519  49.030  1.00  0.00    -0.031 A 
HETATM   20  C15 UNL     1      25.727   5.381  49.050  1.00  0.00     0.009 A 
HETATM   21  C16 UNL     1      25.759   6.685  48.599  1.00  0.00     0.004 A 
HETATM   22  C17 UNL     1      26.976   7.091  48.114  1.00  0.00     0.042 A 
HETATM   23  C18 UNL     1      28.107   6.327  48.051  1.00  0.00     0.117 A 
HETATM   24  F1  UNL     1      29.301   6.750  47.574  1.00  0.00    -0.206 F 
HETATM   25  C19 UNL     1      28.037   5.009  48.518  1.00  0.00     0.051 A 
ENDBRANCH  18  19
ENDBRANCH  17  18
ENDBRANCH  12  17
BRANCH  16  26
HETATM   26  N5  UNL     1      25.554  -1.009  52.567  1.00  0.00    -0.245 NA
HETATM   27  H23 UNL     1      25.359  -1.621  53.389  1.00  0.00     0.143 HD
HETATM   28  H24 UNL     1      24.879  -1.230  51.805  1.00  0.00     0.143 HD
ENDBRANCH  16  26
BRANCH   1  29
HETATM   29  N1  UNL     1      21.784   0.287  51.296  1.00  0.00    -0.334 N 
HETATM   30  C2  UNL     1      20.797   1.313  51.599  1.00  0.00     0.217 C 
HETATM   31  C1  UNL     1      19.398   1.543  51.110  1.00  0.00     0.117 C 
HETATM   32  O1  UNL     1      20.986   2.293  52.423  1.00  0.00    -0.274 OA
HETATM   33  H4  UNL     1      21.121  -0.170  50.651  1.00  0.00     0.168 HD
ENDBRANCH   1  29
TORSDOF 5
ENDMDL
MODEL 7
REMARK VINA RESULT:      -8.8      2.644      6.020
REMARK  5 active torsions:
REMARK  status: ('A' for Active; 'I' for Inactive)
REMARK       I    between atoms: C2_2  and  N1_4 
REMARK    1  A    between atoms: N1_4  and  C3_5 
REMARK    2  A    between atoms: C12_16  and  O2_17 
REMARK    3  A    between atoms: O2_17  and  C13_18 
REMARK    4  A    between atoms: C13_18  and  C14_19 
REMARK    5  A    between atoms: N4_29  and  N5_30 
ROOT
HETATM    1  C3  UNL     1      26.340   1.683  51.614  1.00  0.00    -0.001 C 
HETATM    2  C4  UNL     1      25.742   0.744  52.287  1.00  0.00     0.062 C 
HETATM    3  C5  UNL     1      24.589   0.062  52.802  1.00  0.00     0.094 A 
HETATM    4  C6  UNL     1      23.492  -0.505  53.234  1.00  0.00     0.103 A 
HETATM    5  N2  UNL     1      23.103   0.627  52.459  1.00  0.00    -0.263 NA
HETATM    6  C7  UNL     1      22.426   1.546  53.113  1.00  0.00     0.181 C 
HETATM    7  N3  UNL     1      21.956   2.748  52.505  1.00  0.00    -0.231 NA
HETATM    8  C8  UNL     1      22.819   3.602  51.993  1.00  0.00     0.141 C 
HETATM    9  C9  UNL     1      22.153   4.794  51.406  1.00  0.00     0.052 C 
HETATM   10  C10 UNL     1      22.648   5.701  50.542  1.00  0.00     0.006 C 
HETATM   11  C11 UNL     1      24.052   5.789  50.082  1.00  0.00     0.035 C 
HETATM   12  C12 UNL     1      25.056   4.892  50.104  1.00  0.00     0.076 C 
HETATM   13  C20 UNL     1      24.945   3.494  50.655  1.00  0.00     0.100 C 
HETATM   14  C21 UNL     1      24.132   2.717  49.675  1.00  0.00     0.048 C 
HETATM   15  C22 UNL     1      26.322   2.922  50.822  1.00  0.00     0.092 C 
HETATM   16  N4  UNL     1      24.275   3.522  51.941  1.00  0.00    -0.282 N 
ENDROOT
BRANCH  12  17
HETATM   17  O2  UNL     1      26.275   5.240  49.598  1.00  0.00    -0.348 OA
BRANCH  17  18
HETATM   18  C13 UNL     1      26.473   6.392  48.783  1.00  0.00     0.214 C 
BRANCH  18  19
HETATM   19  C14 UNL     1      27.910   6.531  48.434  1.00  0.00    -0.031 A 
HETATM   20  C15 UNL     1      28.525   7.777  48.334  1.00  0.00     0.009 A 
HETATM   21  C16 UNL     1      29.856   7.961  48.021  1.00  0.00     0.004 A 
HETATM   22  C17 UNL     1      30.558   6.802  47.808  1.00  0.00     0.042 A 
HETATM   23  C18 UNL     1      30.051   5.536  47.881  1.00  0.00     0.117 A 
HETATM   24  F1  UNL     1      30.762   4.403  47.674  1.00  0.00    -0.206 F 
HETATM   25  C19 UNL     1      28.695   5.388  48.202  1.00  0.00     0.051 A 
ENDBRANCH  18  19
ENDBRANCH  17  18
ENDBRANCH  12  17
BRANCH  16  26
HETATM   26  N5  UNL     1      24.425   3.516  53.331  1.00  0.00    -0.245 NA
HETATM   27  H23 UNL     1      23.520   3.365  53.830  1.00  0.00     0.143 HD
HETATM   28  H24 UNL     1      25.116   2.805  53.650  1.00  0.00     0.143 HD
ENDBRANCH  16  26
BRANCH   1  29
HETATM   29  N1  UNL     1      27.539   1.051  52.013  1.00  0.00    -0.334 N 
HETATM   30  C2  UNL     1      27.875   1.686  53.280  1.00  0.00     0.217 C 
HETATM   31  C1  UNL     1      29.008   1.483  54.241  1.00  0.00     0.117 C 
HETATM   32  O1  UNL     1      27.178   2.624  53.838  1.00  0.00    -0.274 OA
HETATM   33  H4  UNL     1      28.380   0.457  52.082  1.00  0.00     0.168 HD
ENDBRANCH   1  29
TORSDOF 5
ENDMDL
MODEL 8
REMARK VINA RESULT:      -8.6      2.590      3.539
REMARK  5 active torsions:
REMARK  status: ('A' for Active; 'I' for Inactive)
REMARK       I    between atoms: C2_2  and  N1_4 
REMARK    1  A    between atoms: N1_4  and  C3_5 
REMARK    2  A    between atoms: C12_16  and  O2_17 
REMARK    3  A    between atoms: O2_17  and  C13_18 
REMARK    4  A    between atoms: C13_18  and  C14_19 
REMARK    5  A    between atoms: N4_29  and  N5_30 
ROOT
HETATM    1  C3  UNL     1      23.627   6.611  51.252  1.00  0.00    -0.001 C 
HETATM    2  C4  UNL     1      22.735   7.421  50.760  1.00  0.00     0.062 C 
HETATM    3  C5  UNL     1      21.458   7.738  50.188  1.00  0.00     0.094 A 
HETATM    4  C6  UNL     1      20.275   7.948  49.671  1.00  0.00     0.103 A 
HETATM    5  N2  UNL     1      20.376   6.551  49.935  1.00  0.00    -0.263 NA
HETATM    6  C7  UNL     1      20.272   5.775  48.878  1.00  0.00     0.181 C 
HETATM    7  N3  UNL     1      20.351   4.351  48.945  1.00  0.00    -0.231 NA
HETATM    8  C8  UNL     1      21.453   3.779  49.385  1.00  0.00     0.141 C 
HETATM    9  C9  UNL     1      21.358   2.296  49.385  1.00  0.00     0.052 C 
HETATM   10  C10 UNL     1      22.123   1.397  50.033  1.00  0.00     0.006 C 
HETATM   11  C11 UNL     1      23.353   1.695  50.802  1.00  0.00     0.035 C 
HETATM   12  C12 UNL     1      23.824   2.845  51.321  1.00  0.00     0.076 C 
HETATM   13  C20 UNL     1      23.137   4.180  51.209  1.00  0.00     0.100 C 
HETATM   14  C21 UNL     1      21.960   4.127  52.125  1.00  0.00     0.048 C 
HETATM   15  C22 UNL     1      24.102   5.262  51.597  1.00  0.00     0.092 C 
HETATM   16  N4  UNL     1      22.693   4.396  49.845  1.00  0.00    -0.282 N 
ENDROOT
BRANCH  12  17
HETATM   17  O2  UNL     1      25.006   2.835  52.003  1.00  0.00    -0.348 OA
BRANCH  17  18
HETATM   18  C13 UNL     1      26.250   2.508  51.389  1.00  0.00     0.214 C 
BRANCH  18  19
HETATM   19  C14 UNL     1      26.938   1.443  52.162  1.00  0.00    -0.031 A 
HETATM   20  C15 UNL     1      27.941   1.733  53.083  1.00  0.00     0.009 A 
HETATM   21  C16 UNL     1      28.605   0.783  53.832  1.00  0.00     0.004 A 
HETATM   22  C17 UNL     1      28.202  -0.507  53.603  1.00  0.00     0.042 A 
HETATM   23  C18 UNL     1      27.231  -0.898  52.724  1.00  0.00     0.117 A 
HETATM   24  F1  UNL     1      26.843  -2.177  52.517  1.00  0.00    -0.206 F 
HETATM   25  C19 UNL     1      26.578   0.095  51.982  1.00  0.00     0.051 A 
ENDBRANCH  18  19
ENDBRANCH  17  18
ENDBRANCH  12  17
BRANCH  16  26
HETATM   26  N5  UNL     1      22.966   5.002  48.615  1.00  0.00    -0.245 NA
HETATM   27  H23 UNL     1      23.896   4.723  48.231  1.00  0.00     0.143 HD
HETATM   28  H24 UNL     1      22.229   4.806  47.907  1.00  0.00     0.143 HD
ENDBRANCH  16  26
BRANCH   1  29
HETATM   29  N1  UNL     1      24.432   7.763  51.397  1.00  0.00    -0.334 N 
HETATM   30  C2  UNL     1      25.451   7.620  50.368  1.00  0.00     0.217 C 
HETATM   31  C1  UNL     1      26.606   8.488  49.964  1.00  0.00     0.117 C 
HETATM   32  O1  UNL     1      25.535   6.619  49.551  1.00  0.00    -0.274 OA
HETATM   33  H4  UNL     1      24.849   8.658  51.695  1.00  0.00     0.168 HD
ENDBRANCH   1  29
TORSDOF 5
ENDMDL
MODEL 9
REMARK VINA RESULT:      -8.4      3.336      7.521
REMARK  5 active torsions:
REMARK  status: ('A' for Active; 'I' for Inactive)
REMARK       I    between atoms: C2_2  and  N1_4 
REMARK    1  A    between atoms: N1_4  and  C3_5 
REMARK    2  A    between atoms: C12_16  and  O2_17 
REMARK    3  A    between atoms: O2_17  and  C13_18 
REMARK    4  A    between atoms: C13_18  and  C14_19 
REMARK    5  A    between atoms: N4_29  and  N5_30 
ROOT
HETATM    1  C3  UNL     1      24.000   0.051  53.150  1.00  0.00    -0.001 C 
HETATM    2  C4  UNL     1      24.957  -0.207  53.992  1.00  0.00     0.062 C 
HETATM    3  C5  UNL     1      26.206   0.063  54.646  1.00  0.00     0.094 A 
HETATM    4  C6  UNL     1      27.350   0.377  55.197  1.00  0.00     0.103 A 
HETATM    5  N2  UNL     1      27.049   1.395  54.246  1.00  0.00    -0.263 NA
HETATM    6  C7  UNL     1      27.923   1.526  53.272  1.00  0.00     0.181 C 
HETATM    7  N3  UNL     1      27.789   2.489  52.228  1.00  0.00    -0.231 NA
HETATM    8  C8  UNL     1      26.747   2.439  51.424  1.00  0.00     0.141 C 
HETATM    9  C9  UNL     1      26.772   3.514  50.398  1.00  0.00     0.052 C 
HETATM   10  C10 UNL     1      25.768   3.973  49.627  1.00  0.00     0.006 C 
HETATM   11  C11 UNL     1      24.409   3.394  49.532  1.00  0.00     0.035 C 
HETATM   12  C12 UNL     1      23.736   2.558  50.345  1.00  0.00     0.076 C 
HETATM   13  C20 UNL     1      24.281   1.987  51.628  1.00  0.00     0.100 C 
HETATM   14  C21 UNL     1      24.293   3.106  52.615  1.00  0.00     0.048 C 
HETATM   15  C22 UNL     1      23.403   0.855  52.073  1.00  0.00     0.092 C 
HETATM   16  N4  UNL     1      25.631   1.498  51.418  1.00  0.00    -0.282 N 
ENDROOT
BRANCH  12  17
HETATM   17  O2  UNL     1      22.468   2.180  50.013  1.00  0.00    -0.348 OA
BRANCH  17  18
HETATM   18  C13 UNL     1      21.356   3.069  50.070  1.00  0.00     0.214 C 
BRANCH  18  19
HETATM   19  C14 UNL     1      20.159   2.360  50.589  1.00  0.00    -0.031 A 
HETATM   20  C15 UNL     1      20.107   0.970  50.676  1.00  0.00     0.009 A 
HETATM   21  C16 UNL     1      19.024   0.264  51.157  1.00  0.00     0.004 A 
HETATM   22  C17 UNL     1      17.968   1.042  51.558  1.00  0.00     0.042 A 
HETATM   23  C18 UNL     1      17.918   2.406  51.514  1.00  0.00     0.117 A 
HETATM   24  F1  UNL     1      16.868   3.156  51.921  1.00  0.00    -0.206 F 
HETATM   25  C19 UNL     1      19.036   3.089  51.020  1.00  0.00     0.051 A 
ENDBRANCH  18  19
ENDBRANCH  17  18
ENDBRANCH  12  17
BRANCH  16  26
HETATM   26  N5  UNL     1      26.438   0.385  51.171  1.00  0.00    -0.245 NA
HETATM   27  H23 UNL     1      26.704  -0.119  52.047  1.00  0.00     0.143 HD
HETATM   28  H24 UNL     1      25.994  -0.286  50.510  1.00  0.00     0.143 HD
ENDBRANCH  16  26
BRANCH   1  29
HETATM   29  N1  UNL     1      23.413  -1.145  53.623  1.00  0.00    -0.334 N 
HETATM   30  C2  UNL     1      22.049  -0.765  53.964  1.00  0.00     0.217 C 
HETATM   31  C1  UNL     1      20.890  -1.546  54.507  1.00  0.00     0.117 C 
HETATM   32  O1  UNL     1      21.568   0.430  53.841  1.00  0.00    -0.274 OA
HETATM   33  H4  UNL     1      23.222  -2.116  53.915  1.00  0.00     0.168 HD
ENDBRANCH   1  29
TORSDOF 5
ENDMDL
