MODEL 1
REMARK VINA RESULT:      -7.5      0.000      0.000
REMARK  5 active torsions:
REMARK  status: ('A' for Active; 'I' for Inactive)
REMARK    1  A    between atoms: C4_4  and  C5_5 
REMARK    2  A    between atoms: C5_5  and  N1_6 
REMARK    3  A    between atoms: C8_10  and  C9_11 
REMARK    4  A    between atoms: C9_11  and  C10_12 
REMARK    5  A    between atoms: C13_15  and  O2_16 
ROOT
HETATM    1  C1  UNL     1      20.535  -0.147  52.899  1.00  0.00     0.049 C 
HETATM    2  C2  UNL     1      21.998   0.013  53.154  1.00  0.00    -0.051 A 
HETATM    3  C3  UNL     1      22.786  -0.776  53.869  1.00  0.00     0.017 A 
HETATM    4  C4  UNL     1      24.135  -0.225  53.838  1.00  0.00    -0.021 A 
HETATM    5  C6  UNL     1      24.161   0.878  53.115  1.00  0.00    -0.016 A 
HETATM    6  C7  UNL     1      25.229   1.840  52.741  1.00  0.00     0.208 C 
HETATM    7  O1  UNL     1      24.719   3.105  52.469  1.00  0.00    -0.377 OA
HETATM    8  C8  UNL     1      23.699   3.099  51.531  1.00  0.00     0.149 C 
HETATM    9  C16 UNL     1      22.592   2.192  51.858  1.00  0.00     0.017 C 
HETATM   10  C17 UNL     1      22.791   1.115  52.620  1.00  0.00    -0.022 A 
ENDROOT
BRANCH   8  11
HETATM   11  C9  UNL     1      24.147   2.880  50.126  1.00  0.00     0.074 C 
BRANCH  11  12
HETATM   12  C10 UNL     1      25.074   3.911  49.602  1.00  0.00    -0.055 A 
HETATM   13  C11 UNL     1      26.415   3.539  49.470  1.00  0.00     0.010 A 
HETATM   14  C12 UNL     1      27.330   4.476  48.980  1.00  0.00     0.037 A 
HETATM   15  C13 UNL     1      26.898   5.751  48.636  1.00  0.00     0.065 A 
HETATM   16  C14 UNL     1      25.573   6.116  48.767  1.00  0.00     0.037 A 
HETATM   17  C15 UNL     1      24.660   5.186  49.254  1.00  0.00     0.010 A 
BRANCH  15  18
HETATM   18  O2  UNL     1      27.871   6.641  48.151  1.00  0.00    -0.361 OA
HETATM   19  H16 UNL     1      27.663   7.262  47.369  1.00  0.00     0.217 HD
ENDBRANCH  15  18
ENDBRANCH  11  12
ENDBRANCH   8  11
BRANCH   4  20
HETATM   20  C5  UNL     1      25.276  -0.867  54.544  1.00  0.00     0.306 C 
BRANCH  20  21
HETATM   21  N1  UNL     1      24.897  -1.366  55.847  1.00  0.00     0.082 N 
HETATM   22  H7  UNL     1      25.529  -1.042  56.605  1.00  0.00     0.313 HD
HETATM   23  H8  UNL     1      23.888  -1.228  56.062  1.00  0.00     0.313 HD
ENDBRANCH  20  21
ENDBRANCH   4  20
TORSDOF 5
ENDMDL
MODEL 2
REMARK VINA RESULT:      -7.5      3.473      6.143
REMARK  5 active torsions:
REMARK  status: ('A' for Active; 'I' for Inactive)
REMARK    1  A    between atoms: C4_4  and  C5_5 
REMARK    2  A    between atoms: C5_5  and  N1_6 
REMARK    3  A    between atoms: C8_10  and  C9_11 
REMARK    4  A    between atoms: C9_11  and  C10_12 
REMARK    5  A    between atoms: C13_15  and  O2_16 
ROOT
HETATM    1  C1  UNL     1      25.073   3.478  49.664  1.00  0.00     0.049 C 
HETATM    2  C2  UNL     1      23.834   2.687  49.933  1.00  0.00    -0.051 A 
HETATM    3  C3  UNL     1      22.782   2.538  49.142  1.00  0.00     0.017 A 
HETATM    4  C4  UNL     1      21.818   1.682  49.821  1.00  0.00    -0.021 A 
HETATM    5  C6  UNL     1      22.281   1.320  51.003  1.00  0.00    -0.016 A 
HETATM    6  C7  UNL     1      21.750   0.476  52.103  1.00  0.00     0.208 C 
HETATM    7  O1  UNL     1      22.288   0.827  53.337  1.00  0.00    -0.377 OA
HETATM    8  C8  UNL     1      23.673   0.852  53.347  1.00  0.00     0.149 C 
HETATM    9  C16 UNL     1      24.263   1.698  52.303  1.00  0.00     0.017 C 
HETATM   10  C17 UNL     1      23.611   1.938  51.165  1.00  0.00    -0.022 A 
ENDROOT
BRANCH   8  11
HETATM   11  C9  UNL     1      24.319  -0.492  53.348  1.00  0.00     0.074 C 
BRANCH  11  12
HETATM   12  C10 UNL     1      25.784  -0.477  53.577  1.00  0.00    -0.055 A 
HETATM   13  C11 UNL     1      26.569  -1.184  52.663  1.00  0.00     0.010 A 
HETATM   14  C12 UNL     1      27.956  -1.200  52.835  1.00  0.00     0.037 A 
HETATM   15  C13 UNL     1      28.529  -0.521  53.904  1.00  0.00     0.065 A 
HETATM   16  C14 UNL     1      27.751   0.178  54.806  1.00  0.00     0.037 A 
HETATM   17  C15 UNL     1      26.370   0.196  54.637  1.00  0.00     0.010 A 
BRANCH  15  18
HETATM   18  O2  UNL     1      29.928  -0.580  54.016  1.00  0.00    -0.361 OA
HETATM   19  H16 UNL     1      30.394  -0.275  54.871  1.00  0.00     0.217 HD
ENDBRANCH  15  18
ENDBRANCH  11  12
ENDBRANCH   8  11
BRANCH   4  20
HETATM   20  C5  UNL     1      20.514   1.307  49.212  1.00  0.00     0.306 C 
BRANCH  20  21
HETATM   21  N1  UNL     1      20.174   2.156  48.092  1.00  0.00     0.082 N 
HETATM   22  H7  UNL     1      20.998   2.414  47.515  1.00  0.00     0.313 HD
HETATM   23  H8  UNL     1      19.373   1.799  47.534  1.00  0.00     0.313 HD
ENDBRANCH  20  21
ENDBRANCH   4  20
TORSDOF 5
ENDMDL
MODEL 3
REMARK VINA RESULT:      -7.4      1.066      1.683
REMARK  5 active torsions:
REMARK  status: ('A' for Active; 'I' for Inactive)
REMARK    1  A    between atoms: C4_4  and  C5_5 
REMARK    2  A    between atoms: C5_5  and  N1_6 
REMARK    3  A    between atoms: C8_10  and  C9_11 
REMARK    4  A    between atoms: C9_11  and  C10_12 
REMARK    5  A    between atoms: C13_15  and  O2_16 
ROOT
HETATM    1  C1  UNL     1      22.176  -1.168  53.649  1.00  0.00     0.049 C 
HETATM    2  C2  UNL     1      23.485  -0.453  53.747  1.00  0.00    -0.051 A 
HETATM    3  C3  UNL     1      24.545  -0.801  54.460  1.00  0.00     0.017 A 
HETATM    4  C4  UNL     1      25.587   0.195  54.246  1.00  0.00    -0.021 A 
HETATM    5  C6  UNL     1      25.162   1.129  53.417  1.00  0.00    -0.016 A 
HETATM    6  C7  UNL     1      25.773   2.358  52.850  1.00  0.00     0.208 C 
HETATM    7  O1  UNL     1      24.814   3.304  52.502  1.00  0.00    -0.377 OA
HETATM    8  C8  UNL     1      23.824   2.806  51.671  1.00  0.00     0.149 C 
HETATM    9  C16 UNL     1      23.155   1.608  52.190  1.00  0.00     0.017 C 
HETATM   10  C17 UNL     1      23.780   0.784  53.033  1.00  0.00    -0.022 A 
ENDROOT
BRANCH   8  11
HETATM   11  C9  UNL     1      24.249   2.588  50.258  1.00  0.00     0.074 C 
BRANCH  11  12
HETATM   12  C10 UNL     1      25.116   3.652  49.699  1.00  0.00    -0.055 A 
HETATM   13  C11 UNL     1      24.498   4.868  49.392  1.00  0.00     0.010 A 
HETATM   14  C12 UNL     1      25.272   5.903  48.862  1.00  0.00     0.037 A 
HETATM   15  C13 UNL     1      26.632   5.712  48.650  1.00  0.00     0.065 A 
HETATM   16  C14 UNL     1      27.241   4.511  48.955  1.00  0.00     0.037 A 
HETATM   17  C15 UNL     1      26.473   3.478  49.482  1.00  0.00     0.010 A 
BRANCH  15  18
HETATM   18  O2  UNL     1      27.349   6.796  48.114  1.00  0.00    -0.361 OA
HETATM   19  H16 UNL     1      26.911   7.712  48.020  1.00  0.00     0.217 HD
ENDBRANCH  15  18
ENDBRANCH  11  12
ENDBRANCH   8  11
BRANCH   4  20
HETATM   20  C5  UNL     1      26.920   0.110  54.901  1.00  0.00     0.306 C 
BRANCH  20  21
HETATM   21  N1  UNL     1      27.847  -0.699  54.143  1.00  0.00     0.082 N 
HETATM   22  H7  UNL     1      27.376  -1.432  53.576  1.00  0.00     0.313 HD
HETATM   23  H8  UNL     1      28.536  -0.137  53.603  1.00  0.00     0.313 HD
ENDBRANCH  20  21
ENDBRANCH   4  20
TORSDOF 5
ENDMDL
MODEL 4
REMARK VINA RESULT:      -7.4      4.175      5.402
REMARK  5 active torsions:
REMARK  status: ('A' for Active; 'I' for Inactive)
REMARK    1  A    between atoms: C4_4  and  C5_5 
REMARK    2  A    between atoms: C5_5  and  N1_6 
REMARK    3  A    between atoms: C8_10  and  C9_11 
REMARK    4  A    between atoms: C9_11  and  C10_12 
REMARK    5  A    between atoms: C13_15  and  O2_16 
ROOT
HETATM    1  C1  UNL     1      19.667   1.401  49.837  1.00  0.00     0.049 C 
HETATM    2  C2  UNL     1      19.548   0.587  51.085  1.00  0.00    -0.051 A 
HETATM    3  C3  UNL     1      18.514  -0.140  51.481  1.00  0.00     0.017 A 
HETATM    4  C4  UNL     1      18.851  -0.756  52.757  1.00  0.00    -0.021 A 
HETATM    5  C6  UNL     1      20.069  -0.407  53.126  1.00  0.00    -0.016 A 
HETATM    6  C7  UNL     1      20.920  -0.722  54.302  1.00  0.00     0.208 C 
HETATM    7  O1  UNL     1      21.855   0.278  54.551  1.00  0.00    -0.377 OA
HETATM    8  C8  UNL     1      22.626   0.600  53.447  1.00  0.00     0.149 C 
HETATM    9  C16 UNL     1      21.844   0.955  52.256  1.00  0.00     0.017 C 
HETATM   10  C17 UNL     1      20.610   0.482  52.080  1.00  0.00    -0.022 A 
ENDROOT
BRANCH   8  11
HETATM   11  C9  UNL     1      23.666  -0.409  53.098  1.00  0.00     0.074 C 
BRANCH  11  12
HETATM   12  C10 UNL     1      25.052   0.114  53.062  1.00  0.00    -0.055 A 
HETATM   13  C11 UNL     1      25.224   1.459  53.404  1.00  0.00     0.010 A 
HETATM   14  C12 UNL     1      26.512   2.000  53.386  1.00  0.00     0.037 A 
HETATM   15  C13 UNL     1      27.594   1.203  53.030  1.00  0.00     0.065 A 
HETATM   16  C14 UNL     1      27.422  -0.124  52.694  1.00  0.00     0.037 A 
HETATM   17  C15 UNL     1      26.141  -0.667  52.711  1.00  0.00     0.010 A 
BRANCH  15  18
HETATM   18  O2  UNL     1      28.859   1.813  53.033  1.00  0.00    -0.361 OA
HETATM   19  H16 UNL     1      28.946   2.829  53.082  1.00  0.00     0.217 HD
ENDBRANCH  15  18
ENDBRANCH  11  12
ENDBRANCH   8  11
BRANCH   4  20
HETATM   20  C5  UNL     1      17.908  -1.644  53.489  1.00  0.00     0.306 C 
BRANCH  20  21
HETATM   21  N1  UNL     1      16.528  -1.314  53.215  1.00  0.00     0.082 N 
HETATM   22  H7  UNL     1      16.341  -0.292  53.251  1.00  0.00     0.313 HD
HETATM   23  H8  UNL     1      16.159  -1.772  52.358  1.00  0.00     0.313 HD
ENDBRANCH  20  21
ENDBRANCH   4  20
TORSDOF 5
ENDMDL
MODEL 5
REMARK VINA RESULT:      -7.2      3.258      5.757
REMARK  5 active torsions:
REMARK  status: ('A' for Active; 'I' for Inactive)
REMARK    1  A    between atoms: C4_4  and  C5_5 
REMARK    2  A    between atoms: C5_5  and  N1_6 
REMARK    3  A    between atoms: C8_10  and  C9_11 
REMARK    4  A    between atoms: C9_11  and  C10_12 
REMARK    5  A    between atoms: C13_15  and  O2_16 
ROOT
HETATM    1  C1  UNL     1      19.877   2.275  52.326  1.00  0.00     0.049 C 
HETATM    2  C2  UNL     1      21.197   2.943  52.115  1.00  0.00    -0.051 A 
HETATM    3  C3  UNL     1      21.426   4.224  51.870  1.00  0.00     0.017 A 
HETATM    4  C4  UNL     1      22.864   4.415  51.735  1.00  0.00    -0.021 A 
HETATM    5  C6  UNL     1      23.494   3.266  51.898  1.00  0.00    -0.016 A 
HETATM    6  C7  UNL     1      24.923   2.862  51.872  1.00  0.00     0.208 C 
HETATM    7  O1  UNL     1      25.080   1.524  51.526  1.00  0.00    -0.377 OA
HETATM    8  C8  UNL     1      24.329   0.661  52.307  1.00  0.00     0.149 C 
HETATM    9  C16 UNL     1      22.898   0.985  52.349  1.00  0.00     0.017 C 
HETATM   10  C17 UNL     1      22.472   2.234  52.154  1.00  0.00    -0.022 A 
ENDROOT
BRANCH   8  11
HETATM   11  C9  UNL     1      24.852   0.458  53.689  1.00  0.00     0.074 C 
BRANCH  11  12
HETATM   12  C10 UNL     1      26.283   0.081  53.762  1.00  0.00    -0.055 A 
HETATM   13  C11 UNL     1      26.674  -1.042  53.028  1.00  0.00     0.010 A 
HETATM   14  C12 UNL     1      28.014  -1.439  53.065  1.00  0.00     0.037 A 
HETATM   15  C13 UNL     1      28.929  -0.719  53.823  1.00  0.00     0.065 A 
HETATM   16  C14 UNL     1      28.541   0.391  54.547  1.00  0.00     0.037 A 
HETATM   17  C15 UNL     1      27.208   0.789  54.513  1.00  0.00     0.010 A 
BRANCH  15  18
HETATM   18  O2  UNL     1      30.258  -1.174  53.814  1.00  0.00    -0.361 OA
HETATM   19  H16 UNL     1      30.575  -1.837  53.106  1.00  0.00     0.217 HD
ENDBRANCH  15  18
ENDBRANCH  11  12
ENDBRANCH   8  11
BRANCH   4  20
HETATM   20  C5  UNL     1      23.471   5.743  51.455  1.00  0.00     0.306 C 
BRANCH  20  21
HETATM   21  N1  UNL     1      24.203   6.256  52.591  1.00  0.00     0.082 N 
HETATM   22  H7  UNL     1      25.054   6.786  52.319  1.00  0.00     0.313 HD
HETATM   23  H8  UNL     1      23.602   6.761  53.273  1.00  0.00     0.313 HD
ENDBRANCH  20  21
ENDBRANCH   4  20
TORSDOF 5
ENDMDL
MODEL 6
REMARK VINA RESULT:      -7.2      3.873      5.421
REMARK  5 active torsions:
REMARK  status: ('A' for Active; 'I' for Inactive)
REMARK    1  A    between atoms: C4_4  and  C5_5 
REMARK    2  A    between atoms: C5_5  and  N1_6 
REMARK    3  A    between atoms: C8_10  and  C9_11 
REMARK    4  A    between atoms: C9_11  and  C10_12 
REMARK    5  A    between atoms: C13_15  and  O2_16 
ROOT
HETATM    1  C1  UNL     1      21.268   2.663  51.496  1.00  0.00     0.049 C 
HETATM    2  C2  UNL     1      21.657   1.474  52.312  1.00  0.00    -0.051 A 
HETATM    3  C3  UNL     1      20.874   0.498  52.744  1.00  0.00     0.017 A 
HETATM    4  C4  UNL     1      21.690  -0.444  53.500  1.00  0.00    -0.021 A 
HETATM    5  C6  UNL     1      22.946  -0.041  53.524  1.00  0.00    -0.016 A 
HETATM    6  C7  UNL     1      24.191  -0.584  54.126  1.00  0.00     0.208 C 
HETATM    7  O1  UNL     1      25.123   0.415  54.385  1.00  0.00    -0.377 OA
HETATM    8  C8  UNL     1      25.404   1.208  53.285  1.00  0.00     0.149 C 
HETATM    9  C16 UNL     1      24.216   1.804  52.661  1.00  0.00     0.017 C 
HETATM   10  C17 UNL     1      23.022   1.220  52.762  1.00  0.00    -0.022 A 
ENDROOT
BRANCH   8  11
HETATM   11  C9  UNL     1      26.257   0.556  52.250  1.00  0.00     0.074 C 
BRANCH  11  12
HETATM   12  C10 UNL     1      27.509  -0.045  52.767  1.00  0.00    -0.055 A 
HETATM   13  C11 UNL     1      27.600  -1.440  52.724  1.00  0.00     0.010 A 
HETATM   14  C12 UNL     1      28.761  -2.055  53.200  1.00  0.00     0.037 A 
HETATM   15  C13 UNL     1      29.798  -1.280  53.705  1.00  0.00     0.065 A 
HETATM   16  C14 UNL     1      29.707   0.096  53.746  1.00  0.00     0.037 A 
HETATM   17  C15 UNL     1      28.552   0.713  53.273  1.00  0.00     0.010 A 
BRANCH  15  18
HETATM   18  O2  UNL     1      30.935  -1.966  54.167  1.00  0.00    -0.361 OA
HETATM   19  H16 UNL     1      31.280  -2.789  53.674  1.00  0.00     0.217 HD
ENDBRANCH  15  18
ENDBRANCH  11  12
ENDBRANCH   8  11
BRANCH   4  20
HETATM   20  C5  UNL     1      21.123  -1.666  54.131  1.00  0.00     0.306 C 
BRANCH  20  21
HETATM   21  N1  UNL     1      19.678  -1.659  54.125  1.00  0.00     0.082 N 
HETATM   22  H7  UNL     1      19.278  -0.766  53.774  1.00  0.00     0.313 HD
HETATM   23  H8  UNL     1      19.264  -2.501  53.676  1.00  0.00     0.313 HD
ENDBRANCH  20  21
ENDBRANCH   4  20
TORSDOF 5
ENDMDL
MODEL 7
REMARK VINA RESULT:      -7.2      2.992      7.285
REMARK  5 active torsions:
REMARK  status: ('A' for Active; 'I' for Inactive)
REMARK    1  A    between atoms: C4_4  and  C5_5 
REMARK    2  A    between atoms: C5_5  and  N1_6 
REMARK    3  A    between atoms: C8_10  and  C9_11 
REMARK    4  A    between atoms: C9_11  and  C10_12 
REMARK    5  A    between atoms: C13_15  and  O2_16 
ROOT
HETATM    1  C1  UNL     1      27.644   4.499  48.665  1.00  0.00     0.049 C 
HETATM    2  C2  UNL     1      26.393   4.976  49.326  1.00  0.00    -0.051 A 
HETATM    3  C3  UNL     1      25.778   6.136  49.152  1.00  0.00     0.017 A 
HETATM    4  C4  UNL     1      24.597   6.161  50.006  1.00  0.00    -0.021 A 
HETATM    5  C6  UNL     1      24.502   5.033  50.685  1.00  0.00    -0.016 A 
HETATM    6  C7  UNL     1      23.532   4.509  51.681  1.00  0.00     0.208 C 
HETATM    7  O1  UNL     1      24.111   3.569  52.527  1.00  0.00    -0.377 OA
HETATM    8  C8  UNL     1      24.746   2.538  51.854  1.00  0.00     0.149 C 
HETATM    9  C16 UNL     1      25.744   2.988  50.877  1.00  0.00     0.017 C 
HETATM   10  C17 UNL     1      25.647   4.187  50.301  1.00  0.00    -0.022 A 
ENDROOT
BRANCH   8  11
HETATM   11  C9  UNL     1      23.827   1.542  51.231  1.00  0.00     0.074 C 
BRANCH  11  12
HETATM   12  C10 UNL     1      23.039   0.737  52.194  1.00  0.00    -0.055 A 
HETATM   13  C11 UNL     1      23.761   0.046  53.171  1.00  0.00     0.010 A 
HETATM   14  C12 UNL     1      23.064  -0.729  54.103  1.00  0.00     0.037 A 
HETATM   15  C13 UNL     1      21.677  -0.801  54.044  1.00  0.00     0.065 A 
HETATM   16  C14 UNL     1      20.967  -0.118  53.078  1.00  0.00     0.037 A 
HETATM   17  C15 UNL     1      21.657   0.655  52.149  1.00  0.00     0.010 A 
BRANCH  15  18
HETATM   18  O2  UNL     1      21.042  -1.598  55.012  1.00  0.00    -0.361 OA
HETATM   19  H16 UNL     1      21.495  -1.789  55.906  1.00  0.00     0.217 HD
ENDBRANCH  15  18
ENDBRANCH  11  12
ENDBRANCH   8  11
BRANCH   4  20
HETATM   20  C5  UNL     1      23.672   7.324  50.058  1.00  0.00     0.306 C 
BRANCH  20  21
HETATM   21  N1  UNL     1      23.819   8.080  51.281  1.00  0.00     0.082 N 
HETATM   22  H7  UNL     1      22.947   8.114  51.844  1.00  0.00     0.313 HD
HETATM   23  H8  UNL     1      24.657   7.809  51.834  1.00  0.00     0.313 HD
ENDBRANCH  20  21
ENDBRANCH   4  20
TORSDOF 5
ENDMDL
MODEL 8
REMARK VINA RESULT:      -7.0      3.333      7.434
REMARK  5 active torsions:
REMARK  status: ('A' for Active; 'I' for Inactive)
REMARK    1  A    between atoms: C4_4  and  C5_5 
REMARK    2  A    between atoms: C5_5  and  N1_6 
REMARK    3  A    between atoms: C8_10  and  C9_11 
REMARK    4  A    between atoms: C9_11  and  C10_12 
REMARK    5  A    between atoms: C13_15  and  O2_16 
ROOT
HETATM    1  C1  UNL     1      24.215   3.232  49.541  1.00  0.00     0.049 C 
HETATM    2  C2  UNL     1      24.390   2.518  50.841  1.00  0.00    -0.051 A 
HETATM    3  C3  UNL     1      25.401   2.621  51.691  1.00  0.00     0.017 A 
HETATM    4  C4  UNL     1      25.140   1.738  52.821  1.00  0.00    -0.021 A 
HETATM    5  C6  UNL     1      23.990   1.113  52.655  1.00  0.00    -0.016 A 
HETATM    6  C7  UNL     1      23.231   0.121  53.459  1.00  0.00     0.208 C 
HETATM    7  O1  UNL     1      22.399  -0.664  52.669  1.00  0.00    -0.377 OA
HETATM    8  C8  UNL     1      21.554   0.073  51.855  1.00  0.00     0.149 C 
HETATM    9  C16 UNL     1      22.245   1.051  51.007  1.00  0.00     0.017 C 
HETATM   10  C17 UNL     1      23.420   1.566  51.372  1.00  0.00    -0.022 A 
ENDROOT
BRANCH   8  11
HETATM   11  C9  UNL     1      20.415   0.721  52.567  1.00  0.00     0.074 C 
BRANCH  11  12
HETATM   12  C10 UNL     1      19.148  -0.047  52.539  1.00  0.00    -0.055 A 
HETATM   13  C11 UNL     1      19.028  -1.093  53.458  1.00  0.00     0.010 A 
HETATM   14  C12 UNL     1      17.852  -1.848  53.471  1.00  0.00     0.037 A 
HETATM   15  C13 UNL     1      16.828  -1.551  52.580  1.00  0.00     0.065 A 
HETATM   16  C14 UNL     1      16.948  -0.516  51.674  1.00  0.00     0.037 A 
HETATM   17  C15 UNL     1      18.118   0.237  51.657  1.00  0.00     0.010 A 
BRANCH  15  18
HETATM   18  O2  UNL     1      15.675  -2.350  52.649  1.00  0.00    -0.361 OA
HETATM   19  H16 UNL     1      15.161  -2.595  51.803  1.00  0.00     0.217 HD
ENDBRANCH  15  18
ENDBRANCH  11  12
ENDBRANCH   8  11
BRANCH   4  20
HETATM   20  C5  UNL     1      26.080   1.608  53.966  1.00  0.00     0.306 C 
BRANCH  20  21
HETATM   21  N1  UNL     1      27.223   2.482  53.833  1.00  0.00     0.082 N 
HETATM   22  H7  UNL     1      27.678   2.696  54.741  1.00  0.00     0.313 HD
HETATM   23  H8  UNL     1      27.891   2.176  53.097  1.00  0.00     0.313 HD
ENDBRANCH  20  21
ENDBRANCH   4  20
TORSDOF 5
ENDMDL
MODEL 9
REMARK VINA RESULT:      -7.0      3.263      6.730
REMARK  5 active torsions:
REMARK  status: ('A' for Active; 'I' for Inactive)
REMARK    1  A    between atoms: C4_4  and  C5_5 
REMARK    2  A    between atoms: C5_5  and  N1_6 
REMARK    3  A    between atoms: C8_10  and  C9_11 
REMARK    4  A    between atoms: C9_11  and  C10_12 
REMARK    5  A    between atoms: C13_15  and  O2_16 
ROOT
HETATM    1  C1  UNL     1      26.379   3.198  50.575  1.00  0.00     0.049 C 
HETATM    2  C2  UNL     1      26.642   2.320  51.754  1.00  0.00    -0.051 A 
HETATM    3  C3  UNL     1      27.733   2.278  52.504  1.00  0.00     0.017 A 
HETATM    4  C4  UNL     1      27.539   1.270  53.538  1.00  0.00    -0.021 A 
HETATM    5  C6  UNL     1      26.349   0.712  53.414  1.00  0.00    -0.016 A 
HETATM    6  C7  UNL     1      25.624  -0.345  54.164  1.00  0.00     0.208 C 
HETATM    7  O1  UNL     1      24.683  -0.994  53.371  1.00  0.00    -0.377 OA
HETATM    8  C8  UNL     1      23.801  -0.130  52.742  1.00  0.00     0.149 C 
HETATM    9  C16 UNL     1      24.455   0.921  51.954  1.00  0.00     0.017 C 
HETATM   10  C17 UNL     1      25.683   1.344  52.259  1.00  0.00    -0.022 A 
ENDROOT
BRANCH   8  11
HETATM   11  C9  UNL     1      22.768   0.464  53.638  1.00  0.00     0.074 C 
BRANCH  11  12
HETATM   12  C10 UNL     1      21.367   0.179  53.245  1.00  0.00    -0.055 A 
HETATM   13  C11 UNL     1      20.705  -0.822  53.962  1.00  0.00     0.010 A 
HETATM   14  C12 UNL     1      19.383  -1.127  53.629  1.00  0.00     0.037 A 
HETATM   15  C13 UNL     1      18.751  -0.440  52.600  1.00  0.00     0.065 A 
HETATM   16  C14 UNL     1      19.407   0.549  51.894  1.00  0.00     0.037 A 
HETATM   17  C15 UNL     1      20.723   0.856  52.222  1.00  0.00     0.010 A 
BRANCH  15  18
HETATM   18  O2  UNL     1      17.422  -0.799  52.319  1.00  0.00    -0.361 OA
HETATM   19  H16 UNL     1      16.970  -0.486  51.460  1.00  0.00     0.217 HD
ENDBRANCH  15  18
ENDBRANCH  11  12
ENDBRANCH   8  11
BRANCH   4  20
HETATM   20  C5  UNL     1      28.576   0.962  54.559  1.00  0.00     0.306 C 
BRANCH  20  21
HETATM   21  N1  UNL     1      29.533   2.036  54.701  1.00  0.00     0.082 N 
HETATM   22  H7  UNL     1      29.112   2.906  55.083  1.00  0.00     0.313 HD
HETATM   23  H8  UNL     1      30.404   1.749  55.192  1.00  0.00     0.313 HD
ENDBRANCH  20  21
ENDBRANCH   4  20
TORSDOF 5
ENDMDL
