MODEL 1
REMARK VINA RESULT:      -8.7      0.000      0.000
REMARK  6 active torsions:
REMARK  status: ('A' for Active; 'I' for Inactive)
REMARK    1  A    between atoms: C5_5  and  N1_6 
REMARK    2  A    between atoms: N1_6  and  C6_7 
REMARK    3  A    between atoms: C10_14  and  C11_15 
REMARK    4  A    between atoms: C11_15  and  N5_16 
REMARK    5  A    between atoms: C14_19  and  N6_20 
REMARK    6  A    between atoms: C16_22  and  N7_23 
ROOT
HETATM    1  C6  UNL     1      23.622  -0.214  53.500  1.00  0.00     0.159 A 
HETATM    2  N2  UNL     1      23.984  -0.882  54.629  1.00  0.00    -0.220 NA
HETATM    3  C7  UNL     1      22.977  -1.413  55.382  1.00  0.00     0.258 A 
HETATM    4  N3  UNL     1      21.705  -1.262  54.996  1.00  0.00    -0.161 NA
HETATM    5  N4  UNL     1      21.374  -0.606  53.893  1.00  0.00    -0.240 N 
HETATM    6  C8  UNL     1      20.167  -0.342  53.340  1.00  0.00     0.119 A 
HETATM    7  C9  UNL     1      20.426   0.386  52.191  1.00  0.00     0.030 A 
HETATM    8  C10 UNL     1      21.794   0.585  52.012  1.00  0.00     0.004 A 
HETATM    9  C17 UNL     1      22.300  -0.062  53.109  1.00  0.00     0.112 A 
ENDROOT
BRANCH   8  10
HETATM   10  C11 UNL     1      22.405   1.312  50.903  1.00  0.00     0.316 C 
BRANCH  10  11
HETATM   11  N5  UNL     1      22.102   2.730  50.902  1.00  0.00     0.126 N 
HETATM   12  C12 UNL     1      22.354   3.365  49.656  1.00  0.00     0.277 C 
HETATM   13  C13 UNL     1      23.525   4.239  49.514  1.00  0.00     0.055 C 
HETATM   14  C14 UNL     1      24.232   4.640  50.778  1.00  0.00     0.079 C 
HETATM   15  C15 UNL     1      24.111   3.630  51.880  1.00  0.00     0.092 C 
HETATM   16  C16 UNL     1      22.615   3.404  52.057  1.00  0.00     0.453 C 
BRANCH  14  17
HETATM   17  N6  UNL     1      25.619   4.972  50.504  1.00  0.00    -0.426 N 
HETATM   18  H17 UNL     1      25.780   5.979  50.413  1.00  0.00     0.150 HD
HETATM   19  H18 UNL     1      26.295   4.422  51.036  1.00  0.00     0.150 HD
ENDBRANCH  14  17
BRANCH  16  20
HETATM   20  N7  UNL     1      21.997   4.720  52.129  1.00  0.00     0.112 N 
HETATM   21  H22 UNL     1      21.939   5.038  53.123  1.00  0.00     0.315 HD
HETATM   22  H23 UNL     1      21.017   4.706  51.782  1.00  0.00     0.315 HD
ENDBRANCH  16  20
ENDBRANCH  10  11
ENDBRANCH   8  10
BRANCH   1  23
HETATM   23  N1  UNL     1      24.692   0.338  52.725  1.00  0.00    -0.339 N 
HETATM   24  H6  UNL     1      24.497   1.019  51.957  1.00  0.00     0.167 HD
BRANCH  23  25
HETATM   25  C5  UNL     1      26.057  -0.047  53.000  1.00  0.00     0.033 A 
HETATM   26  C4  UNL     1      26.589  -1.251  52.595  1.00  0.00     0.030 A 
HETATM   27  C3  UNL     1      27.926  -1.547  52.884  1.00  0.00     0.009 A 
HETATM   28  C2  UNL     1      28.699  -0.618  53.578  1.00  0.00    -0.062 A 
HETATM   29  C1  UNL     1      30.105  -1.112  53.787  1.00  0.00     0.048 C 
HETATM   30  C19 UNL     1      28.164   0.580  53.980  1.00  0.00     0.009 A 
HETATM   31  C18 UNL     1      26.849   0.871  53.696  1.00  0.00     0.030 A 
ENDBRANCH  23  25
ENDBRANCH   1  23
TORSDOF 6
ENDMDL
MODEL 2
REMARK VINA RESULT:      -8.6      2.368      6.082
REMARK  6 active torsions:
REMARK  status: ('A' for Active; 'I' for Inactive)
REMARK    1  A    between atoms: C5_5  and  N1_6 
REMARK    2  A    between atoms: N1_6  and  C6_7 
REMARK    3  A    between atoms: C10_14  and  C11_15 
REMARK    4  A    between atoms: C11_15  and  N5_16 
REMARK    5  A    between atoms: C14_19  and  N6_20 
REMARK    6  A    between atoms: C16_22  and  N7_23 
ROOT
HETATM    1  C6  UNL     1      23.927   2.394  50.621  1.00  0.00     0.159 A 
HETATM    2  N2  UNL     1      23.411   2.790  49.426  1.00  0.00    -0.220 NA
HETATM    3  C7  UNL     1      22.220   2.239  49.053  1.00  0.00     0.258 A 
HETATM    4  N3  UNL     1      21.616   1.353  49.853  1.00  0.00    -0.161 NA
HETATM    5  N4  UNL     1      22.137   0.979  51.014  1.00  0.00    -0.240 N 
HETATM    6  C8  UNL     1      21.696   0.107  51.950  1.00  0.00     0.119 A 
HETATM    7  C9  UNL     1      22.650   0.110  52.953  1.00  0.00     0.030 A 
HETATM    8  C10 UNL     1      23.696   0.982  52.657  1.00  0.00     0.004 A 
HETATM    9  C17 UNL     1      23.294   1.474  51.443  1.00  0.00     0.112 A 
ENDROOT
BRANCH   8  10
HETATM   10  C11 UNL     1      24.862   1.222  53.502  1.00  0.00     0.316 C 
BRANCH  10  11
HETATM   11  N5  UNL     1      25.631   0.025  53.784  1.00  0.00     0.126 N 
HETATM   12  C12 UNL     1      26.379   0.099  54.989  1.00  0.00     0.277 C 
HETATM   13  C13 UNL     1      27.835   0.280  54.926  1.00  0.00     0.055 C 
HETATM   14  C14 UNL     1      28.487   0.090  53.586  1.00  0.00     0.079 C 
HETATM   15  C15 UNL     1      27.587   0.406  52.429  1.00  0.00     0.092 C 
HETATM   16  C16 UNL     1      26.346  -0.453  52.638  1.00  0.00     0.453 C 
BRANCH  14  17
HETATM   17  N6  UNL     1      29.734   0.830  53.514  1.00  0.00    -0.426 N 
HETATM   18  H17 UNL     1      29.976   1.295  54.394  1.00  0.00     0.150 HD
HETATM   19  H18 UNL     1      30.476   0.354  53.001  1.00  0.00     0.150 HD
ENDBRANCH  14  17
BRANCH  16  20
HETATM   20  N7  UNL     1      26.811  -1.802  52.921  1.00  0.00     0.112 N 
HETATM   21  H22 UNL     1      26.803  -1.979  53.951  1.00  0.00     0.315 HD
HETATM   22  H23 UNL     1      27.797  -1.942  52.620  1.00  0.00     0.315 HD
ENDBRANCH  16  20
ENDBRANCH  10  11
ENDBRANCH   8  10
BRANCH   1  23
HETATM   23  N1  UNL     1      25.179   2.982  50.993  1.00  0.00    -0.339 N 
HETATM   24  H6  UNL     1      25.696   2.644  51.835  1.00  0.00     0.167 HD
BRANCH  23  25
HETATM   25  C5  UNL     1      25.735   4.056  50.203  1.00  0.00     0.033 A 
HETATM   26  C4  UNL     1      25.205   5.327  50.192  1.00  0.00     0.030 A 
HETATM   27  C3  UNL     1      25.811   6.321  49.414  1.00  0.00     0.009 A 
HETATM   28  C2  UNL     1      26.941   6.008  48.661  1.00  0.00    -0.062 A 
HETATM   29  C1  UNL     1      27.449   7.202  47.899  1.00  0.00     0.048 C 
HETATM   30  C19 UNL     1      27.465   4.739  48.675  1.00  0.00     0.009 A 
HETATM   31  C18 UNL     1      26.870   3.763  49.440  1.00  0.00     0.030 A 
ENDBRANCH  23  25
ENDBRANCH   1  23
TORSDOF 6
ENDMDL
MODEL 3
REMARK VINA RESULT:      -8.2      1.730      5.736
REMARK  6 active torsions:
REMARK  status: ('A' for Active; 'I' for Inactive)
REMARK    1  A    between atoms: C5_5  and  N1_6 
REMARK    2  A    between atoms: N1_6  and  C6_7 
REMARK    3  A    between atoms: C10_14  and  C11_15 
REMARK    4  A    between atoms: C11_15  and  N5_16 
REMARK    5  A    between atoms: C14_19  and  N6_20 
REMARK    6  A    between atoms: C16_22  and  N7_23 
ROOT
HETATM    1  C6  UNL     1      21.668   0.650  51.588  1.00  0.00     0.159 A 
HETATM    2  N2  UNL     1      20.410   0.752  51.080  1.00  0.00    -0.220 NA
HETATM    3  C7  UNL     1      19.399   0.206  51.817  1.00  0.00     0.258 A 
HETATM    4  N3  UNL     1      19.673  -0.393  52.982  1.00  0.00    -0.161 NA
HETATM    5  N4  UNL     1      20.907  -0.482  53.459  1.00  0.00    -0.240 N 
HETATM    6  C8  UNL     1      21.387  -1.043  54.593  1.00  0.00     0.119 A 
HETATM    7  C9  UNL     1      22.756  -0.841  54.568  1.00  0.00     0.030 A 
HETATM    8  C10 UNL     1      23.148  -0.154  53.420  1.00  0.00     0.004 A 
HETATM    9  C17 UNL     1      21.942   0.026  52.796  1.00  0.00     0.112 A 
ENDROOT
BRANCH   8  10
HETATM   10  C11 UNL     1      24.519   0.218  53.083  1.00  0.00     0.316 C 
BRANCH  10  11
HETATM   11  N5  UNL     1      25.516  -0.679  53.634  1.00  0.00     0.126 N 
HETATM   12  C12 UNL     1      26.091  -0.216  54.848  1.00  0.00     0.277 C 
HETATM   13  C13 UNL     1      27.459   0.317  54.844  1.00  0.00     0.055 C 
HETATM   14  C14 UNL     1      28.278   0.077  53.607  1.00  0.00     0.079 C 
HETATM   15  C15 UNL     1      27.459  -0.045  52.357  1.00  0.00     0.092 C 
HETATM   16  C16 UNL     1      26.444  -1.144  52.646  1.00  0.00     0.453 C 
BRANCH  14  17
HETATM   17  N6  UNL     1      29.312   1.087  53.475  1.00  0.00    -0.426 N 
HETATM   18  H17 UNL     1      29.021   1.887  52.905  1.00  0.00     0.150 HD
HETATM   19  H18 UNL     1      29.831   1.271  54.334  1.00  0.00     0.150 HD
ENDBRANCH  14  17
BRANCH  16  20
HETATM   20  N7  UNL     1      27.185  -2.263  53.208  1.00  0.00     0.112 N 
HETATM   21  H22 UNL     1      26.751  -2.569  54.109  1.00  0.00     0.315 HD
HETATM   22  H23 UNL     1      28.163  -2.000  53.444  1.00  0.00     0.315 HD
ENDBRANCH  16  20
ENDBRANCH  10  11
ENDBRANCH   8  10
BRANCH   1  23
HETATM   23  N1  UNL     1      22.714   1.227  50.798  1.00  0.00    -0.339 N 
HETATM   24  H6  UNL     1      23.275   0.635  50.145  1.00  0.00     0.167 HD
BRANCH  23  25
HETATM   25  C5  UNL     1      23.004   2.638  50.901  1.00  0.00     0.033 A 
HETATM   26  C4  UNL     1      22.614   3.403  51.978  1.00  0.00     0.030 A 
HETATM   27  C3  UNL     1      22.947   4.762  52.016  1.00  0.00     0.009 A 
HETATM   28  C2  UNL     1      23.668   5.321  50.962  1.00  0.00    -0.062 A 
HETATM   29  C1  UNL     1      23.933   6.785  51.186  1.00  0.00     0.048 C 
HETATM   30  C19 UNL     1      24.055   4.554  49.892  1.00  0.00     0.009 A 
HETATM   31  C18 UNL     1      23.728   3.217  49.855  1.00  0.00     0.030 A 
ENDBRANCH  23  25
ENDBRANCH   1  23
TORSDOF 6
ENDMDL
MODEL 4
REMARK VINA RESULT:      -8.0      1.562      2.371
REMARK  6 active torsions:
REMARK  status: ('A' for Active; 'I' for Inactive)
REMARK    1  A    between atoms: C5_5  and  N1_6 
REMARK    2  A    between atoms: N1_6  and  C6_7 
REMARK    3  A    between atoms: C10_14  and  C11_15 
REMARK    4  A    between atoms: C11_15  and  N5_16 
REMARK    5  A    between atoms: C14_19  and  N6_20 
REMARK    6  A    between atoms: C16_22  and  N7_23 
ROOT
HETATM    1  C6  UNL     1      23.617   0.718  53.042  1.00  0.00     0.159 A 
HETATM    2  N2  UNL     1      23.235  -0.347  53.799  1.00  0.00    -0.220 NA
HETATM    3  C7  UNL     1      22.107  -1.009  53.409  1.00  0.00     0.258 A 
HETATM    4  N3  UNL     1      21.434  -0.599  52.327  1.00  0.00    -0.161 NA
HETATM    5  N4  UNL     1      21.823   0.442  51.605  1.00  0.00    -0.240 N 
HETATM    6  C8  UNL     1      21.288   1.011  50.500  1.00  0.00     0.119 A 
HETATM    7  C9  UNL     1      22.115   2.074  50.181  1.00  0.00     0.030 A 
HETATM    8  C10 UNL     1      23.173   2.183  51.081  1.00  0.00     0.004 A 
HETATM    9  C17 UNL     1      22.912   1.136  51.924  1.00  0.00     0.112 A 
ENDROOT
BRANCH   8  10
HETATM   10  C11 UNL     1      24.224   3.196  51.032  1.00  0.00     0.316 C 
BRANCH  10  11
HETATM   11  N5  UNL     1      24.056   4.156  49.959  1.00  0.00     0.126 N 
HETATM   12  C12 UNL     1      25.244   4.394  49.216  1.00  0.00     0.277 C 
HETATM   13  C13 UNL     1      25.975   5.653  49.404  1.00  0.00     0.055 C 
HETATM   14  C14 UNL     1      25.269   6.743  50.162  1.00  0.00     0.079 C 
HETATM   15  C15 UNL     1      24.276   6.232  51.162  1.00  0.00     0.092 C 
HETATM   16  C16 UNL     1      23.339   5.325  50.373  1.00  0.00     0.453 C 
BRANCH  14  17
HETATM   17  N6  UNL     1      26.230   7.645  50.771  1.00  0.00    -0.426 N 
HETATM   18  H17 UNL     1      25.820   8.545  51.040  1.00  0.00     0.150 HD
HETATM   19  H18 UNL     1      26.874   7.195  51.423  1.00  0.00     0.150 HD
ENDBRANCH  14  17
BRANCH  16  20
HETATM   20  N7  UNL     1      22.943   6.063  49.183  1.00  0.00     0.112 N 
HETATM   21  H22 UNL     1      21.911   6.228  49.186  1.00  0.00     0.315 HD
HETATM   22  H23 UNL     1      23.139   5.528  48.313  1.00  0.00     0.315 HD
ENDBRANCH  16  20
ENDBRANCH  10  11
ENDBRANCH   8  10
BRANCH   1  23
HETATM   23  N1  UNL     1      24.802   1.400  53.469  1.00  0.00    -0.339 N 
HETATM   24  H6  UNL     1      24.765   2.407  53.746  1.00  0.00     0.167 HD
BRANCH  23  25
HETATM   25  C5  UNL     1      26.063   0.698  53.517  1.00  0.00     0.033 A 
HETATM   26  C4  UNL     1      26.973   0.867  54.537  1.00  0.00     0.030 A 
HETATM   27  C3  UNL     1      28.167   0.137  54.523  1.00  0.00     0.009 A 
HETATM   28  C2  UNL     1      28.418  -0.750  53.478  1.00  0.00    -0.062 A 
HETATM   29  C1  UNL     1      29.743  -1.442  53.642  1.00  0.00     0.048 C 
HETATM   30  C19 UNL     1      27.507  -0.915  52.464  1.00  0.00     0.009 A 
HETATM   31  C18 UNL     1      26.332  -0.197  52.478  1.00  0.00     0.030 A 
ENDBRANCH  23  25
ENDBRANCH   1  23
TORSDOF 6
ENDMDL
MODEL 5
REMARK VINA RESULT:      -8.0      1.432      5.029
REMARK  6 active torsions:
REMARK  status: ('A' for Active; 'I' for Inactive)
REMARK    1  A    between atoms: C5_5  and  N1_6 
REMARK    2  A    between atoms: N1_6  and  C6_7 
REMARK    3  A    between atoms: C10_14  and  C11_15 
REMARK    4  A    between atoms: C11_15  and  N5_16 
REMARK    5  A    between atoms: C14_19  and  N6_20 
REMARK    6  A    between atoms: C16_22  and  N7_23 
ROOT
HETATM    1  C6  UNL     1      25.593   3.176  51.130  1.00  0.00     0.159 A 
HETATM    2  N2  UNL     1      26.812   3.254  50.530  1.00  0.00    -0.220 NA
HETATM    3  C7  UNL     1      26.900   4.026  49.408  1.00  0.00     0.258 A 
HETATM    4  N3  UNL     1      25.815   4.661  48.949  1.00  0.00    -0.161 NA
HETATM    5  N4  UNL     1      24.637   4.570  49.548  1.00  0.00    -0.240 N 
HETATM    6  C8  UNL     1      23.437   5.119  49.245  1.00  0.00     0.119 A 
HETATM    7  C9  UNL     1      22.558   4.674  50.218  1.00  0.00     0.030 A 
HETATM    8  C10 UNL     1      23.196   3.844  51.138  1.00  0.00     0.004 A 
HETATM    9  C17 UNL     1      24.474   3.837  50.646  1.00  0.00     0.112 A 
ENDROOT
BRANCH   8  10
HETATM   10  C11 UNL     1      22.558   3.205  52.285  1.00  0.00     0.316 C 
BRANCH  10  11
HETATM   11  N5  UNL     1      21.609   2.171  51.921  1.00  0.00     0.126 N 
HETATM   12  C12 UNL     1      20.543   2.023  52.850  1.00  0.00     0.277 C 
HETATM   13  C13 UNL     1      20.527   0.865  53.752  1.00  0.00     0.055 C 
HETATM   14  C14 UNL     1      21.489  -0.249  53.448  1.00  0.00     0.079 C 
HETATM   15  C15 UNL     1      22.733   0.206  52.746  1.00  0.00     0.092 C 
HETATM   16  C16 UNL     1      22.249   0.957  51.512  1.00  0.00     0.453 C 
BRANCH  14  17
HETATM   17  N6  UNL     1      21.795  -1.003  54.650  1.00  0.00    -0.426 N 
HETATM   18  H17 UNL     1      22.764  -0.887  54.961  1.00  0.00     0.150 HD
HETATM   19  H18 UNL     1      21.057  -0.985  55.356  1.00  0.00     0.150 HD
ENDBRANCH  14  17
BRANCH  16  20
HETATM   20  N7  UNL     1      21.253   0.111  50.870  1.00  0.00     0.112 N 
HETATM   21  H22 UNL     1      20.856  -0.567  51.559  1.00  0.00     0.315 HD
HETATM   22  H23 UNL     1      21.669  -0.469  50.114  1.00  0.00     0.315 HD
ENDBRANCH  16  20
ENDBRANCH  10  11
ENDBRANCH   8  10
BRANCH   1  23
HETATM   23  N1  UNL     1      25.521   2.360  52.304  1.00  0.00    -0.339 N 
HETATM   24  H6  UNL     1      24.670   2.372  52.910  1.00  0.00     0.167 HD
BRANCH  23  25
HETATM   25  C5  UNL     1      26.633   1.510  52.663  1.00  0.00     0.033 A 
HETATM   26  C4  UNL     1      27.776   1.991  53.262  1.00  0.00     0.030 A 
HETATM   27  C3  UNL     1      28.805   1.103  53.596  1.00  0.00     0.009 A 
HETATM   28  C2  UNL     1      28.657  -0.255  53.318  1.00  0.00    -0.062 A 
HETATM   29  C1  UNL     1      29.861  -1.045  53.755  1.00  0.00     0.048 C 
HETATM   30  C19 UNL     1      27.515  -0.728  52.722  1.00  0.00     0.009 A 
HETATM   31  C18 UNL     1      26.504   0.145  52.393  1.00  0.00     0.030 A 
ENDBRANCH  23  25
ENDBRANCH   1  23
TORSDOF 6
ENDMDL
MODEL 6
REMARK VINA RESULT:      -8.0      2.264      5.675
REMARK  6 active torsions:
REMARK  status: ('A' for Active; 'I' for Inactive)
REMARK    1  A    between atoms: C5_5  and  N1_6 
REMARK    2  A    between atoms: N1_6  and  C6_7 
REMARK    3  A    between atoms: C10_14  and  C11_15 
REMARK    4  A    between atoms: C11_15  and  N5_16 
REMARK    5  A    between atoms: C14_19  and  N6_20 
REMARK    6  A    between atoms: C16_22  and  N7_23 
ROOT
HETATM    1  C6  UNL     1      26.474   1.811  52.325  1.00  0.00     0.159 A 
HETATM    2  N2  UNL     1      27.682   2.437  52.358  1.00  0.00    -0.220 NA
HETATM    3  C7  UNL     1      28.486   2.172  53.429  1.00  0.00     0.258 A 
HETATM    4  N3  UNL     1      28.069   1.331  54.383  1.00  0.00    -0.161 NA
HETATM    5  N4  UNL     1      26.887   0.733  54.331  1.00  0.00    -0.240 N 
HETATM    6  C8  UNL     1      26.287  -0.132  55.182  1.00  0.00     0.119 A 
HETATM    7  C9  UNL     1      25.055  -0.423  54.622  1.00  0.00     0.030 A 
HETATM    8  C10 UNL     1      24.871   0.254  53.418  1.00  0.00     0.004 A 
HETATM    9  C17 UNL     1      26.051   0.942  53.319  1.00  0.00     0.112 A 
ENDROOT
BRANCH   8  10
HETATM   10  C11 UNL     1      23.682   0.170  52.574  1.00  0.00     0.316 C 
BRANCH  10  11
HETATM   11  N5  UNL     1      22.643   1.113  52.940  1.00  0.00     0.126 N 
HETATM   12  C12 UNL     1      21.654   0.564  53.802  1.00  0.00     0.277 C 
HETATM   13  C13 UNL     1      20.325   0.245  53.266  1.00  0.00     0.055 C 
HETATM   14  C14 UNL     1      19.994   0.782  51.902  1.00  0.00     0.079 C 
HETATM   15  C15 UNL     1      21.193   0.965  51.021  1.00  0.00     0.092 C 
HETATM   16  C16 UNL     1      22.146   1.849  51.816  1.00  0.00     0.453 C 
BRANCH  14  17
HETATM   17  N6  UNL     1      18.979  -0.036  51.264  1.00  0.00    -0.426 N 
HETATM   18  H17 UNL     1      18.192  -0.255  51.882  1.00  0.00     0.150 HD
HETATM   19  H18 UNL     1      18.774   0.227  50.298  1.00  0.00     0.150 HD
ENDBRANCH  14  17
BRANCH  16  20
HETATM   20  N7  UNL     1      21.363   2.970  52.315  1.00  0.00     0.112 N 
HETATM   21  H22 UNL     1      21.824   3.873  52.066  1.00  0.00     0.315 HD
HETATM   22  H23 UNL     1      21.299   2.965  53.353  1.00  0.00     0.315 HD
ENDBRANCH  16  20
ENDBRANCH  10  11
ENDBRANCH   8  10
BRANCH   1  23
HETATM   23  N1  UNL     1      25.645   2.104  51.194  1.00  0.00    -0.339 N 
HETATM   24  H6  UNL     1      24.916   1.425  50.879  1.00  0.00     0.167 HD
BRANCH  23  25
HETATM   25  C5  UNL     1      25.814   3.346  50.476  1.00  0.00     0.033 A 
HETATM   26  C4  UNL     1      26.792   3.530  49.524  1.00  0.00     0.030 A 
HETATM   27  C3  UNL     1      26.883   4.757  48.857  1.00  0.00     0.009 A 
HETATM   28  C2  UNL     1      25.983   5.775  49.168  1.00  0.00    -0.062 A 
HETATM   29  C1  UNL     1      26.236   7.010  48.345  1.00  0.00     0.048 C 
HETATM   30  C19 UNL     1      25.010   5.586  50.117  1.00  0.00     0.009 A 
HETATM   31  C18 UNL     1      24.921   4.379  50.772  1.00  0.00     0.030 A 
ENDBRANCH  23  25
ENDBRANCH   1  23
TORSDOF 6
ENDMDL
MODEL 7
REMARK VINA RESULT:      -7.9      2.230      6.962
REMARK  6 active torsions:
REMARK  status: ('A' for Active; 'I' for Inactive)
REMARK    1  A    between atoms: C5_5  and  N1_6 
REMARK    2  A    between atoms: N1_6  and  C6_7 
REMARK    3  A    between atoms: C10_14  and  C11_15 
REMARK    4  A    between atoms: C11_15  and  N5_16 
REMARK    5  A    between atoms: C14_19  and  N6_20 
REMARK    6  A    between atoms: C16_22  and  N7_23 
ROOT
HETATM    1  C6  UNL     1      23.771   4.288  51.465  1.00  0.00     0.159 A 
HETATM    2  N2  UNL     1      22.980   5.395  51.463  1.00  0.00    -0.220 NA
HETATM    3  C7  UNL     1      23.344   6.414  50.631  1.00  0.00     0.258 A 
HETATM    4  N3  UNL     1      24.437   6.292  49.867  1.00  0.00    -0.161 NA
HETATM    5  N4  UNL     1      25.194   5.204  49.886  1.00  0.00    -0.240 N 
HETATM    6  C8  UNL     1      26.323   4.892  49.208  1.00  0.00     0.119 A 
HETATM    7  C9  UNL     1      26.683   3.624  49.631  1.00  0.00     0.030 A 
HETATM    8  C10 UNL     1      25.786   3.130  50.577  1.00  0.00     0.004 A 
HETATM    9  C17 UNL     1      24.902   4.172  50.671  1.00  0.00     0.112 A 
ENDROOT
BRANCH   8  10
HETATM   10  C11 UNL     1      25.875   1.825  51.226  1.00  0.00     0.316 C 
BRANCH  10  11
HETATM   11  N5  UNL     1      27.006   1.700  52.125  1.00  0.00     0.126 N 
HETATM   12  C12 UNL     1      27.513   0.376  52.222  1.00  0.00     0.277 C 
HETATM   13  C13 UNL     1      27.246  -0.413  53.431  1.00  0.00     0.055 C 
HETATM   14  C14 UNL     1      26.695   0.325  54.618  1.00  0.00     0.079 C 
HETATM   15  C15 UNL     1      25.885   1.533  54.251  1.00  0.00     0.092 C 
HETATM   16  C16 UNL     1      26.797   2.378  53.370  1.00  0.00     0.453 C 
BRANCH  14  17
HETATM   17  N6  UNL     1      25.954  -0.576  55.482  1.00  0.00    -0.426 N 
HETATM   18  H17 UNL     1      25.191  -1.059  54.998  1.00  0.00     0.150 HD
HETATM   19  H18 UNL     1      26.536  -1.116  56.123  1.00  0.00     0.150 HD
ENDBRANCH  14  17
BRANCH  16  20
HETATM   20  N7  UNL     1      28.076   2.472  54.057  1.00  0.00     0.112 N 
HETATM   21  H22 UNL     1      28.104   3.329  54.655  1.00  0.00     0.315 HD
HETATM   22  H23 UNL     1      28.868   2.570  53.390  1.00  0.00     0.315 HD
ENDBRANCH  16  20
ENDBRANCH  10  11
ENDBRANCH   8  10
BRANCH   1  23
HETATM   23  N1  UNL     1      23.373   3.232  52.347  1.00  0.00    -0.339 N 
HETATM   24  H6  UNL     1      23.911   3.037  53.221  1.00  0.00     0.167 HD
BRANCH  23  25
HETATM   25  C5  UNL     1      22.218   2.423  52.031  1.00  0.00     0.033 A 
HETATM   26  C4  UNL     1      22.291   1.295  51.245  1.00  0.00     0.030 A 
HETATM   27  C3  UNL     1      21.131   0.552  50.997  1.00  0.00     0.009 A 
HETATM   28  C2  UNL     1      19.920   0.966  51.548  1.00  0.00    -0.062 A 
HETATM   29  C1  UNL     1      18.794   0.039  51.175  1.00  0.00     0.048 C 
HETATM   30  C19 UNL     1      19.854   2.091  52.331  1.00  0.00     0.009 A 
HETATM   31  C18 UNL     1      20.994   2.821  52.576  1.00  0.00     0.030 A 
ENDBRANCH  23  25
ENDBRANCH   1  23
TORSDOF 6
ENDMDL
MODEL 8
REMARK VINA RESULT:      -7.7      1.920      3.242
REMARK  6 active torsions:
REMARK  status: ('A' for Active; 'I' for Inactive)
REMARK    1  A    between atoms: C5_5  and  N1_6 
REMARK    2  A    between atoms: N1_6  and  C6_7 
REMARK    3  A    between atoms: C10_14  and  C11_15 
REMARK    4  A    between atoms: C11_15  and  N5_16 
REMARK    5  A    between atoms: C14_19  and  N6_20 
REMARK    6  A    between atoms: C16_22  and  N7_23 
ROOT
HETATM    1  C6  UNL     1      23.122   1.631  51.823  1.00  0.00     0.159 A 
HETATM    2  N2  UNL     1      22.505   0.865  52.764  1.00  0.00    -0.220 NA
HETATM    3  C7  UNL     1      21.409   0.157  52.363  1.00  0.00     0.258 A 
HETATM    4  N3  UNL     1      20.992   0.237  51.093  1.00  0.00    -0.161 NA
HETATM    5  N4  UNL     1      21.608   0.991  50.193  1.00  0.00    -0.240 N 
HETATM    6  C8  UNL     1      21.345   1.211  48.884  1.00  0.00     0.119 A 
HETATM    7  C9  UNL     1      22.316   2.094  48.444  1.00  0.00     0.030 A 
HETATM    8  C10 UNL     1      23.194   2.436  49.470  1.00  0.00     0.004 A 
HETATM    9  C17 UNL     1      22.681   1.709  50.511  1.00  0.00     0.112 A 
ENDROOT
BRANCH   8  10
HETATM   10  C11 UNL     1      24.329   3.346  49.344  1.00  0.00     0.316 C 
BRANCH  10  11
HETATM   11  N5  UNL     1      24.050   4.691  49.810  1.00  0.00     0.126 N 
HETATM   12  C12 UNL     1      23.292   5.466  48.892  1.00  0.00     0.277 C 
HETATM   13  C13 UNL     1      23.954   6.528  48.124  1.00  0.00     0.055 C 
HETATM   14  C14 UNL     1      25.336   6.924  48.562  1.00  0.00     0.079 C 
HETATM   15  C15 UNL     1      26.098   5.815  49.222  1.00  0.00     0.092 C 
HETATM   16  C16 UNL     1      25.206   5.334  50.360  1.00  0.00     0.453 C 
BRANCH  14  17
HETATM   17  N6  UNL     1      26.078   7.500  47.454  1.00  0.00    -0.426 N 
HETATM   18  H17 UNL     1      26.935   7.977  47.750  1.00  0.00     0.150 HD
HETATM   19  H18 UNL     1      26.117   6.909  46.623  1.00  0.00     0.150 HD
ENDBRANCH  14  17
BRANCH  16  20
HETATM   20  N7  UNL     1      24.768   6.520  51.080  1.00  0.00     0.112 N 
HETATM   21  H22 UNL     1      24.824   6.358  52.111  1.00  0.00     0.315 HD
HETATM   22  H23 UNL     1      23.772   6.745  50.886  1.00  0.00     0.315 HD
ENDBRANCH  16  20
ENDBRANCH  10  11
ENDBRANCH   8  10
BRANCH   1  23
HETATM   23  N1  UNL     1      24.267   2.368  52.266  1.00  0.00    -0.339 N 
HETATM   24  H6  UNL     1      24.247   3.412  52.300  1.00  0.00     0.167 HD
BRANCH  23  25
HETATM   25  C5  UNL     1      25.466   1.670  52.666  1.00  0.00     0.033 A 
HETATM   26  C4  UNL     1      26.215   2.039  53.761  1.00  0.00     0.030 A 
HETATM   27  C3  UNL     1      27.356   1.301  54.097  1.00  0.00     0.009 A 
HETATM   28  C2  UNL     1      27.718   0.205  53.317  1.00  0.00    -0.062 A 
HETATM   29  C1  UNL     1      28.964  -0.460  53.838  1.00  0.00     0.048 C 
HETATM   30  C19 UNL     1      26.968  -0.159  52.227  1.00  0.00     0.009 A 
HETATM   31  C18 UNL     1      25.846   0.566  51.897  1.00  0.00     0.030 A 
ENDBRANCH  23  25
ENDBRANCH   1  23
TORSDOF 6
ENDMDL
MODEL 9
REMARK VINA RESULT:      -7.5      1.859      5.669
REMARK  6 active torsions:
REMARK  status: ('A' for Active; 'I' for Inactive)
REMARK    1  A    between atoms: C5_5  and  N1_6 
REMARK    2  A    between atoms: N1_6  and  C6_7 
REMARK    3  A    between atoms: C10_14  and  C11_15 
REMARK    4  A    between atoms: C11_15  and  N5_16 
REMARK    5  A    between atoms: C14_19  and  N6_20 
REMARK    6  A    between atoms: C16_22  and  N7_23 
ROOT
HETATM    1  C6  UNL     1      22.100   0.485  53.571  1.00  0.00     0.159 A 
HETATM    2  N2  UNL     1      21.483  -0.210  54.565  1.00  0.00    -0.220 NA
HETATM    3  C7  UNL     1      22.241  -1.116  55.248  1.00  0.00     0.258 A 
HETATM    4  N3  UNL     1      23.529  -1.286  54.925  1.00  0.00    -0.161 NA
HETATM    5  N4  UNL     1      24.110  -0.599  53.952  1.00  0.00    -0.240 N 
HETATM    6  C8  UNL     1      25.376  -0.627  53.474  1.00  0.00     0.119 A 
HETATM    7  C9  UNL     1      25.415   0.302  52.448  1.00  0.00     0.030 A 
HETATM    8  C10 UNL     1      24.178   0.919  52.273  1.00  0.00     0.004 A 
HETATM    9  C17 UNL     1      23.435   0.301  53.243  1.00  0.00     0.112 A 
ENDROOT
BRANCH   8  10
HETATM   10  C11 UNL     1      23.877   1.943  51.276  1.00  0.00     0.316 C 
BRANCH  10  11
HETATM   11  N5  UNL     1      24.534   3.211  51.530  1.00  0.00     0.126 N 
HETATM   12  C12 UNL     1      24.143   3.820  52.753  1.00  0.00     0.277 C 
HETATM   13  C13 UNL     1      23.250   4.985  52.726  1.00  0.00     0.055 C 
HETATM   14  C14 UNL     1      23.028   5.644  51.394  1.00  0.00     0.079 C 
HETATM   15  C15 UNL     1      23.161   4.706  50.231  1.00  0.00     0.092 C 
HETATM   16  C16 UNL     1      24.537   4.068  50.382  1.00  0.00     0.453 C 
BRANCH  14  17
HETATM   17  N6  UNL     1      21.758   6.346  51.375  1.00  0.00    -0.426 N 
HETATM   18  H17 UNL     1      21.429   6.556  50.428  1.00  0.00     0.150 HD
HETATM   19  H18 UNL     1      21.079   6.003  52.056  1.00  0.00     0.150 HD
ENDBRANCH  14  17
BRANCH  16  20
HETATM   20  N7  UNL     1      25.477   5.152  50.625  1.00  0.00     0.112 N 
HETATM   21  H22 UNL     1      25.398   5.485  51.612  1.00  0.00     0.315 HD
HETATM   22  H23 UNL     1      25.273   5.981  50.033  1.00  0.00     0.315 HD
ENDBRANCH  16  20
ENDBRANCH  10  11
ENDBRANCH   8  10
BRANCH   1  23
HETATM   23  N1  UNL     1      21.287   1.429  52.865  1.00  0.00    -0.339 N 
HETATM   24  H6  UNL     1      21.494   2.452  52.915  1.00  0.00     0.167 HD
BRANCH  23  25
HETATM   25  C5  UNL     1      20.166   0.971  52.077  1.00  0.00     0.033 A 
HETATM   26  C4  UNL     1      19.265   0.035  52.535  1.00  0.00     0.030 A 
HETATM   27  C3  UNL     1      18.193  -0.346  51.720  1.00  0.00     0.009 A 
HETATM   28  C2  UNL     1      18.055   0.226  50.456  1.00  0.00    -0.062 A 
HETATM   29  C1  UNL     1      16.845  -0.305  49.737  1.00  0.00     0.048 C 
HETATM   30  C19 UNL     1      18.955   1.158  50.005  1.00  0.00     0.009 A 
HETATM   31  C18 UNL     1      20.009   1.534  50.807  1.00  0.00     0.030 A 
ENDBRANCH  23  25
ENDBRANCH   1  23
TORSDOF 6
ENDMDL
