MODEL 1
REMARK VINA RESULT:      -8.0      0.000      0.000
REMARK  3 active torsions:
REMARK  status: ('A' for Active; 'I' for Inactive)
REMARK    1  A    between atoms: N1_2  and  C2_3 
REMARK    2  A    between atoms: N1_2  and  C11_15 
REMARK    3  A    between atoms: C5_6  and  O1_7 
ROOT
HETATM    1  C2  UNL     1      24.837   1.287  53.108  1.00  0.00     0.140 C 
HETATM    2  C3  UNL     1      26.124   1.072  53.243  1.00  0.00     0.027 C 
HETATM    3  C4  UNL     1      27.167   2.082  52.988  1.00  0.00     0.046 C 
HETATM    4  C5  UNL     1      28.445   1.942  53.385  1.00  0.00     0.048 C 
HETATM    5  C6  UNL     1      28.669   0.607  54.117  1.00  0.00     0.101 C 
HETATM    6  C7  UNL     1      27.908  -0.411  53.289  1.00  0.00    -0.038 A 
HETATM    7  C8  UNL     1      27.141  -1.268  52.609  1.00  0.00     0.020 A 
HETATM    8  C9  UNL     1      26.547  -0.327  53.563  1.00  0.00     0.105 A 
HETATM    9  N2  UNL     1      25.650  -0.982  54.445  1.00  0.00    -0.364 N 
HETATM   10  C10 UNL     1      24.247  -0.707  54.233  1.00  0.00     0.206 C 
HETATM   11  N3  UNL     1      23.834   0.374  53.604  1.00  0.00    -0.226 NA
HETATM   12  H9  UNL     1      25.845  -1.639  55.231  1.00  0.00     0.162 HD
ENDROOT
BRANCH   1  13
HETATM   13  N1  UNL     1      24.325   2.536  52.673  1.00  0.00    -0.336 N 
HETATM   14  C1  UNL     1      24.176   3.713  53.521  1.00  0.00     0.158 C 
BRANCH  13  15
HETATM   15  C11 UNL     1      23.928   2.641  51.301  1.00  0.00     0.036 A 
HETATM   16  C12 UNL     1      24.726   3.271  50.346  1.00  0.00     0.030 A 
HETATM   17  C13 UNL     1      24.308   3.352  49.030  1.00  0.00     0.004 A 
HETATM   18  C14 UNL     1      23.101   2.820  48.616  1.00  0.00     0.019 A 
HETATM   19  C15 UNL     1      22.297   2.193  49.538  1.00  0.00     0.013 A 
HETATM   20 BR1  UNL     1      20.602   1.427  49.037  1.00  0.00    -0.051 Br
HETATM   21  C16 UNL     1      22.734   2.125  50.843  1.00  0.00     0.048 A 
ENDBRANCH  13  15
ENDBRANCH   1  13
BRANCH   4  22
HETATM   22  O1  UNL     1      29.337   2.963  53.091  1.00  0.00    -0.365 OA
HETATM   23  H5  UNL     1      30.076   2.781  52.417  1.00  0.00     0.217 HD
ENDBRANCH   4  22
TORSDOF 3
ENDMDL
MODEL 2
REMARK VINA RESULT:      -7.0      1.695      2.149
REMARK  3 active torsions:
REMARK  status: ('A' for Active; 'I' for Inactive)
REMARK    1  A    between atoms: N1_2  and  C2_3 
REMARK    2  A    between atoms: N1_2  and  C11_15 
REMARK    3  A    between atoms: C5_6  and  O1_7 
ROOT
HETATM    1  C2  UNL     1      25.043   1.576  51.759  1.00  0.00     0.140 C 
HETATM    2  C3  UNL     1      26.115   1.272  52.452  1.00  0.00     0.027 C 
HETATM    3  C4  UNL     1      27.342   2.089  52.488  1.00  0.00     0.046 C 
HETATM    4  C5  UNL     1      28.317   1.919  53.399  1.00  0.00     0.048 C 
HETATM    5  C6  UNL     1      27.992   0.771  54.371  1.00  0.00     0.101 C 
HETATM    6  C7  UNL     1      27.439  -0.329  53.486  1.00  0.00    -0.038 A 
HETATM    7  C8  UNL     1      26.852  -1.240  52.703  1.00  0.00     0.020 A 
HETATM    8  C9  UNL     1      26.118  -0.052  53.150  1.00  0.00     0.105 A 
HETATM    9  N2  UNL     1      24.847  -0.397  53.675  1.00  0.00    -0.364 N 
HETATM   10  C10 UNL     1      23.710  -0.040  52.855  1.00  0.00     0.206 C 
HETATM   11  N3  UNL     1      23.778   0.903  51.938  1.00  0.00    -0.226 NA
HETATM   12  H9  UNL     1      24.599  -0.872  54.569  1.00  0.00     0.162 HD
ENDROOT
BRANCH   1  13
HETATM   13  N1  UNL     1      24.977   2.736  50.946  1.00  0.00    -0.336 N 
HETATM   14  C1  UNL     1      25.966   3.101  49.939  1.00  0.00     0.158 C 
BRANCH  13  15
HETATM   15  C11 UNL     1      23.856   3.607  51.135  1.00  0.00     0.036 A 
HETATM   16  C12 UNL     1      23.597   4.226  52.359  1.00  0.00     0.030 A 
HETATM   17  C13 UNL     1      22.503   5.061  52.501  1.00  0.00     0.004 A 
HETATM   18  C14 UNL     1      21.637   5.310  51.453  1.00  0.00     0.019 A 
HETATM   19  C15 UNL     1      21.871   4.713  50.237  1.00  0.00     0.013 A 
HETATM   20 BR1  UNL     1      20.709   5.013  48.731  1.00  0.00    -0.051 Br
HETATM   21  C16 UNL     1      22.967   3.885  50.119  1.00  0.00     0.048 A 
ENDBRANCH  13  15
ENDBRANCH   1  13
BRANCH   4  22
HETATM   22  O1  UNL     1      29.424   2.753  53.335  1.00  0.00    -0.365 OA
HETATM   23  H5  UNL     1      30.275   2.396  52.907  1.00  0.00     0.217 HD
ENDBRANCH   4  22
TORSDOF 3
ENDMDL
MODEL 3
REMARK VINA RESULT:      -6.9      9.058     10.400
REMARK  3 active torsions:
REMARK  status: ('A' for Active; 'I' for Inactive)
REMARK    1  A    between atoms: N1_2  and  C2_3 
REMARK    2  A    between atoms: N1_2  and  C11_15 
REMARK    3  A    between atoms: C5_6  and  O1_7 
ROOT
HETATM    1  C2  UNL     1      32.818   6.646  47.233  1.00  0.00     0.140 C 
HETATM    2  C3  UNL     1      33.350   5.727  46.462  1.00  0.00     0.027 C 
HETATM    3  C4  UNL     1      32.857   5.384  45.116  1.00  0.00     0.046 C 
HETATM    4  C5  UNL     1      33.560   4.648  44.236  1.00  0.00     0.048 C 
HETATM    5  C6  UNL     1      34.916   4.211  44.818  1.00  0.00     0.101 C 
HETATM    6  C7  UNL     1      34.600   3.785  46.239  1.00  0.00    -0.038 A 
HETATM    7  C8  UNL     1      34.317   3.522  47.518  1.00  0.00     0.020 A 
HETATM    8  C9  UNL     1      34.453   4.905  47.050  1.00  0.00     0.105 A 
HETATM    9  N2  UNL     1      35.303   5.657  47.901  1.00  0.00    -0.364 N 
HETATM   10  C10 UNL     1      34.649   6.645  48.729  1.00  0.00     0.206 C 
HETATM   11  N3  UNL     1      33.465   7.137  48.427  1.00  0.00    -0.226 NA
HETATM   12  H9  UNL     1      36.337   5.609  48.025  1.00  0.00     0.162 HD
ENDROOT
BRANCH   1  13
HETATM   13  N1  UNL     1      31.680   7.394  46.837  1.00  0.00    -0.336 N 
HETATM   14  C1  UNL     1      31.720   8.586  46.000  1.00  0.00     0.158 C 
BRANCH  13  15
HETATM   15  C11 UNL     1      30.402   6.937  47.296  1.00  0.00     0.036 A 
HETATM   16  C12 UNL     1      30.249   5.729  47.977  1.00  0.00     0.030 A 
HETATM   17  C13 UNL     1      28.998   5.322  48.405  1.00  0.00     0.004 A 
HETATM   18  C14 UNL     1      27.868   6.085  48.179  1.00  0.00     0.019 A 
HETATM   19  C15 UNL     1      27.992   7.281  47.511  1.00  0.00     0.013 A 
HETATM   20 BR1  UNL     1      26.465   8.399  47.159  1.00  0.00    -0.051 Br
HETATM   21  C16 UNL     1      29.249   7.665  47.094  1.00  0.00     0.048 A 
ENDBRANCH  13  15
ENDBRANCH   1  13
BRANCH   4  22
HETATM   22  O1  UNL     1      32.993   4.393  42.996  1.00  0.00    -0.365 OA
HETATM   23  H5  UNL     1      32.938   3.429  42.678  1.00  0.00     0.217 HD
ENDBRANCH   4  22
TORSDOF 3
ENDMDL
MODEL 4
REMARK VINA RESULT:      -6.8      3.219      6.276
REMARK  3 active torsions:
REMARK  status: ('A' for Active; 'I' for Inactive)
REMARK    1  A    between atoms: N1_2  and  C2_3 
REMARK    2  A    between atoms: N1_2  and  C11_15 
REMARK    3  A    between atoms: C5_6  and  O1_7 
ROOT
HETATM    1  C2  UNL     1      23.495   2.795  52.107  1.00  0.00     0.140 C 
HETATM    2  C3  UNL     1      23.124   2.869  50.851  1.00  0.00     0.027 C 
HETATM    3  C4  UNL     1      22.678   1.718  50.046  1.00  0.00     0.046 C 
HETATM    4  C5  UNL     1      22.047   1.842  48.863  1.00  0.00     0.048 C 
HETATM    5  C6  UNL     1      21.869   3.318  48.467  1.00  0.00     0.101 C 
HETATM    6  C7  UNL     1      23.199   3.964  48.806  1.00  0.00    -0.038 A 
HETATM    7  C8  UNL     1      24.337   4.533  49.216  1.00  0.00     0.020 A 
HETATM    8  C9  UNL     1      23.281   4.195  50.175  1.00  0.00     0.105 A 
HETATM    9  N2  UNL     1      22.998   5.285  51.036  1.00  0.00    -0.364 N 
HETATM   10  C10 UNL     1      23.443   5.140  52.404  1.00  0.00     0.206 C 
HETATM   11  N3  UNL     1      23.681   3.960  52.939  1.00  0.00    -0.226 NA
HETATM   12  H9  UNL     1      22.512   6.187  50.837  1.00  0.00     0.162 HD
ENDROOT
BRANCH   1  13
HETATM   13  N1  UNL     1      23.521   1.564  52.812  1.00  0.00    -0.336 N 
HETATM   14  C1  UNL     1      22.347   0.895  53.356  1.00  0.00     0.158 C 
BRANCH  13  15
HETATM   15  C11 UNL     1      24.798   0.941  52.997  1.00  0.00     0.036 A 
HETATM   16  C12 UNL     1      24.954  -0.446  52.977  1.00  0.00     0.030 A 
HETATM   17  C13 UNL     1      26.204  -1.010  53.160  1.00  0.00     0.004 A 
HETATM   18  C14 UNL     1      27.329  -0.235  53.366  1.00  0.00     0.019 A 
HETATM   19  C15 UNL     1      27.202   1.134  53.389  1.00  0.00     0.013 A 
HETATM   20 BR1  UNL     1      28.723   2.280  53.671  1.00  0.00    -0.051 Br
HETATM   21  C16 UNL     1      25.946   1.674  53.205  1.00  0.00     0.048 A 
ENDBRANCH  13  15
ENDBRANCH   1  13
BRANCH   4  22
HETATM   22  O1  UNL     1      21.671   0.683  48.199  1.00  0.00    -0.365 OA
HETATM   23  H5  UNL     1      20.936   0.110  48.604  1.00  0.00     0.217 HD
ENDBRANCH   4  22
TORSDOF 3
ENDMDL
MODEL 5
REMARK VINA RESULT:      -6.8      2.817      3.719
REMARK  3 active torsions:
REMARK  status: ('A' for Active; 'I' for Inactive)
REMARK    1  A    between atoms: N1_2  and  C2_3 
REMARK    2  A    between atoms: N1_2  and  C11_15 
REMARK    3  A    between atoms: C5_6  and  O1_7 
ROOT
HETATM    1  C2  UNL     1      24.440   2.751  51.674  1.00  0.00     0.140 C 
HETATM    2  C3  UNL     1      24.495   1.674  52.421  1.00  0.00     0.027 C 
HETATM    3  C4  UNL     1      23.313   0.953  52.928  1.00  0.00     0.046 C 
HETATM    4  C5  UNL     1      23.371  -0.284  53.454  1.00  0.00     0.048 C 
HETATM    5  C6  UNL     1      24.810  -0.829  53.467  1.00  0.00     0.101 C 
HETATM    6  C7  UNL     1      25.655   0.344  53.928  1.00  0.00    -0.038 A 
HETATM    7  C8  UNL     1      26.389   1.420  54.227  1.00  0.00     0.020 A 
HETATM    8  C9  UNL     1      25.850   1.233  52.877  1.00  0.00     0.105 A 
HETATM    9  N2  UNL     1      26.850   1.429  51.890  1.00  0.00    -0.364 N 
HETATM   10  C10 UNL     1      26.734   2.641  51.109  1.00  0.00     0.206 C 
HETATM   11  N3  UNL     1      25.592   3.286  50.986  1.00  0.00    -0.226 NA
HETATM   12  H9  UNL     1      27.665   0.831  51.635  1.00  0.00     0.162 HD
ENDROOT
BRANCH   1  13
HETATM   13  N1  UNL     1      23.208   3.342  51.296  1.00  0.00    -0.336 N 
HETATM   14  C1  UNL     1      22.354   4.121  52.184  1.00  0.00     0.158 C 
BRANCH  13  15
HETATM   15  C11 UNL     1      22.778   3.156  49.942  1.00  0.00     0.036 A 
HETATM   16  C12 UNL     1      22.437   1.900  49.441  1.00  0.00     0.030 A 
HETATM   17  C13 UNL     1      22.026   1.761  48.126  1.00  0.00     0.004 A 
HETATM   18  C14 UNL     1      21.940   2.845  47.273  1.00  0.00     0.019 A 
HETATM   19  C15 UNL     1      22.270   4.094  47.743  1.00  0.00     0.013 A 
HETATM   20 BR1  UNL     1      22.174   5.650  46.615  1.00  0.00    -0.051 Br
HETATM   21  C16 UNL     1      22.677   4.207  49.056  1.00  0.00     0.048 A 
ENDBRANCH  13  15
ENDBRANCH   1  13
BRANCH   4  22
HETATM   22  O1  UNL     1      22.190  -0.864  53.894  1.00  0.00    -0.365 OA
HETATM   23  H5  UNL     1      21.431  -0.253  54.187  1.00  0.00     0.217 HD
ENDBRANCH   4  22
TORSDOF 3
ENDMDL
MODEL 6
REMARK VINA RESULT:      -6.8      3.547      6.039
REMARK  3 active torsions:
REMARK  status: ('A' for Active; 'I' for Inactive)
REMARK    1  A    between atoms: N1_2  and  C2_3 
REMARK    2  A    between atoms: N1_2  and  C11_15 
REMARK    3  A    between atoms: C5_6  and  O1_7 
ROOT
HETATM    1  C2  UNL     1      21.660   2.414  50.466  1.00  0.00     0.140 C 
HETATM    2  C3  UNL     1      22.477   3.353  50.049  1.00  0.00     0.027 C 
HETATM    3  C4  UNL     1      23.115   4.350  50.927  1.00  0.00     0.046 C 
HETATM    4  C5  UNL     1      24.147   5.123  50.541  1.00  0.00     0.048 C 
HETATM    5  C6  UNL     1      24.555   4.839  49.085  1.00  0.00     0.101 C 
HETATM    6  C7  UNL     1      23.239   4.723  48.339  1.00  0.00    -0.038 A 
HETATM    7  C8  UNL     1      22.070   4.514  47.726  1.00  0.00     0.020 A 
HETATM    8  C9  UNL     1      22.669   3.476  48.570  1.00  0.00     0.105 A 
HETATM    9  N2  UNL     1      22.681   2.220  47.913  1.00  0.00    -0.364 N 
HETATM   10  C10 UNL     1      21.750   1.236  48.418  1.00  0.00     0.206 C 
HETATM   11  N3  UNL     1      21.254   1.304  49.637  1.00  0.00    -0.226 NA
HETATM   12  H9  UNL     1      23.263   1.889  47.113  1.00  0.00     0.162 HD
ENDROOT
BRANCH   1  13
HETATM   13  N1  UNL     1      21.294   2.288  51.831  1.00  0.00    -0.336 N 
HETATM   14  C1  UNL     1      20.302   3.116  52.504  1.00  0.00     0.158 C 
BRANCH  13  15
HETATM   15  C11 UNL     1      21.952   1.271  52.596  1.00  0.00     0.036 A 
HETATM   16  C12 UNL     1      21.269   0.485  53.524  1.00  0.00     0.030 A 
HETATM   17  C13 UNL     1      21.941  -0.487  54.244  1.00  0.00     0.004 A 
HETATM   18  C14 UNL     1      23.293  -0.715  54.073  1.00  0.00     0.019 A 
HETATM   19  C15 UNL     1      23.989   0.046  53.164  1.00  0.00     0.013 A 
HETATM   20 BR1  UNL     1      25.874  -0.212  52.871  1.00  0.00    -0.051 Br
HETATM   21  C16 UNL     1      23.299   1.009  52.459  1.00  0.00     0.048 A 
ENDBRANCH  13  15
ENDBRANCH   1  13
BRANCH   4  22
HETATM   22  O1  UNL     1      24.668   6.024  51.458  1.00  0.00    -0.365 OA
HETATM   23  H5  UNL     1      24.080   6.321  52.232  1.00  0.00     0.217 HD
ENDBRANCH   4  22
TORSDOF 3
ENDMDL
MODEL 7
REMARK VINA RESULT:      -6.6      7.981     10.068
REMARK  3 active torsions:
REMARK  status: ('A' for Active; 'I' for Inactive)
REMARK    1  A    between atoms: N1_2  and  C2_3 
REMARK    2  A    between atoms: N1_2  and  C11_15 
REMARK    3  A    between atoms: C5_6  and  O1_7 
ROOT
HETATM    1  C2  UNL     1      30.450   7.249  48.292  1.00  0.00     0.140 C 
HETATM    2  C3  UNL     1      29.178   6.929  48.251  1.00  0.00     0.027 C 
HETATM    3  C4  UNL     1      28.657   5.564  48.450  1.00  0.00     0.046 C 
HETATM    4  C5  UNL     1      27.358   5.294  48.677  1.00  0.00     0.048 C 
HETATM    5  C6  UNL     1      26.506   6.575  48.689  1.00  0.00     0.101 C 
HETATM    6  C7  UNL     1      27.025   7.386  47.517  1.00  0.00    -0.038 A 
HETATM    7  C8  UNL     1      27.572   8.130  46.551  1.00  0.00     0.020 A 
HETATM    8  C9  UNL     1      28.219   8.010  47.861  1.00  0.00     0.105 A 
HETATM    9  N2  UNL     1      28.587   9.279  48.374  1.00  0.00    -0.364 N 
HETATM   10  C10 UNL     1      30.003   9.569  48.381  1.00  0.00     0.206 C 
HETATM   11  N3  UNL     1      30.912   8.616  48.349  1.00  0.00    -0.226 NA
HETATM   12  H9  UNL     1      27.990  10.046  48.753  1.00  0.00     0.162 HD
ENDROOT
BRANCH   1  13
HETATM   13  N1  UNL     1      31.462   6.281  48.515  1.00  0.00    -0.336 N 
HETATM   14  C1  UNL     1      32.008   5.937  49.822  1.00  0.00     0.158 C 
BRANCH  13  15
HETATM   15  C11 UNL     1      31.979   5.595  47.369  1.00  0.00     0.036 A 
HETATM   16  C12 UNL     1      31.953   4.204  47.264  1.00  0.00     0.030 A 
HETATM   17  C13 UNL     1      32.462   3.579  46.139  1.00  0.00     0.004 A 
HETATM   18  C14 UNL     1      33.008   4.298  45.092  1.00  0.00     0.019 A 
HETATM   19  C15 UNL     1      33.045   5.670  45.171  1.00  0.00     0.013 A 
HETATM   20 BR1  UNL     1      33.790   6.738  43.753  1.00  0.00    -0.051 Br
HETATM   21  C16 UNL     1      32.532   6.270  46.301  1.00  0.00     0.048 A 
ENDBRANCH  13  15
ENDBRANCH   1  13
BRANCH   4  22
HETATM   22  O1  UNL     1      26.987   3.968  48.853  1.00  0.00    -0.365 OA
HETATM   23  H5  UNL     1      27.283   3.287  48.158  1.00  0.00     0.217 HD
ENDBRANCH   4  22
TORSDOF 3
ENDMDL
MODEL 8
REMARK VINA RESULT:      -6.5      3.568      6.365
REMARK  3 active torsions:
REMARK  status: ('A' for Active; 'I' for Inactive)
REMARK    1  A    between atoms: N1_2  and  C2_3 
REMARK    2  A    between atoms: N1_2  and  C11_15 
REMARK    3  A    between atoms: C5_6  and  O1_7 
ROOT
HETATM    1  C2  UNL     1      24.892   3.964  49.609  1.00  0.00     0.140 C 
HETATM    2  C3  UNL     1      24.599   5.233  49.762  1.00  0.00     0.027 C 
HETATM    3  C4  UNL     1      23.340   5.731  50.347  1.00  0.00     0.046 C 
HETATM    4  C5  UNL     1      23.163   7.004  50.747  1.00  0.00     0.048 C 
HETATM    5  C6  UNL     1      24.422   7.855  50.506  1.00  0.00     0.101 C 
HETATM    6  C7  UNL     1      24.898   7.445  49.125  1.00  0.00    -0.038 A 
HETATM    7  C8  UNL     1      25.360   6.988  47.958  1.00  0.00     0.020 A 
HETATM    8  C9  UNL     1      25.564   6.226  49.193  1.00  0.00     0.105 A 
HETATM    9  N2  UNL     1      26.914   5.817  49.332  1.00  0.00    -0.364 N 
HETATM   10  C10 UNL     1      27.167   4.406  49.141  1.00  0.00     0.206 C 
HETATM   11  N3  UNL     1      26.219   3.502  49.275  1.00  0.00    -0.226 NA
HETATM   12  H9  UNL     1      27.765   6.379  49.552  1.00  0.00     0.162 HD
ENDROOT
BRANCH   1  13
HETATM   13  N1  UNL     1      23.992   2.934  49.982  1.00  0.00    -0.336 N 
HETATM   14  C1  UNL     1      22.823   2.533  49.210  1.00  0.00     0.158 C 
BRANCH  13  15
HETATM   15  C11 UNL     1      24.259   2.242  51.208  1.00  0.00     0.036 A 
HETATM   16  C12 UNL     1      25.400   2.498  51.969  1.00  0.00     0.030 A 
HETATM   17  C13 UNL     1      25.622   1.809  53.148  1.00  0.00     0.004 A 
HETATM   18  C14 UNL     1      24.735   0.854  53.611  1.00  0.00     0.019 A 
HETATM   19  C15 UNL     1      23.603   0.584  52.879  1.00  0.00     0.013 A 
HETATM   20 BR1  UNL     1      22.322  -0.731  53.460  1.00  0.00    -0.051 Br
HETATM   21  C16 UNL     1      23.403   1.283  51.708  1.00  0.00     0.048 A 
ENDBRANCH  13  15
ENDBRANCH   1  13
BRANCH   4  22
HETATM   22  O1  UNL     1      21.934   7.354  51.287  1.00  0.00    -0.365 OA
HETATM   23  H5  UNL     1      21.914   7.764  52.217  1.00  0.00     0.217 HD
ENDBRANCH   4  22
TORSDOF 3
ENDMDL
MODEL 9
REMARK VINA RESULT:      -6.5      3.782      6.104
REMARK  3 active torsions:
REMARK  status: ('A' for Active; 'I' for Inactive)
REMARK    1  A    between atoms: N1_2  and  C2_3 
REMARK    2  A    between atoms: N1_2  and  C11_15 
REMARK    3  A    between atoms: C5_6  and  O1_7 
ROOT
HETATM    1  C2  UNL     1      22.740   4.110  49.537  1.00  0.00     0.140 C 
HETATM    2  C3  UNL     1      23.880   4.759  49.580  1.00  0.00     0.027 C 
HETATM    3  C4  UNL     1      25.198   4.142  49.342  1.00  0.00     0.046 C 
HETATM    4  C5  UNL     1      26.318   4.854  49.120  1.00  0.00     0.048 C 
HETATM    5  C6  UNL     1      26.046   6.368  49.160  1.00  0.00     0.101 C 
HETATM    6  C7  UNL     1      25.128   6.556  50.353  1.00  0.00    -0.038 A 
HETATM    7  C8  UNL     1      24.233   6.682  51.337  1.00  0.00     0.020 A 
HETATM    8  C9  UNL     1      23.829   6.189  50.018  1.00  0.00     0.105 A 
HETATM    9  N2  UNL     1      22.677   6.866  49.543  1.00  0.00    -0.364 N 
HETATM   10  C10 UNL     1      21.455   6.094  49.531  1.00  0.00     0.206 C 
HETATM   11  N3  UNL     1      21.460   4.777  49.521  1.00  0.00    -0.226 NA
HETATM   12  H9  UNL     1      22.571   7.844  49.197  1.00  0.00     0.162 HD
ENDROOT
BRANCH   1  13
HETATM   13  N1  UNL     1      22.677   2.718  49.270  1.00  0.00    -0.336 N 
HETATM   14  C1  UNL     1      22.677   2.128  47.938  1.00  0.00     0.158 C 
BRANCH  13  15
HETATM   15  C11 UNL     1      22.609   1.837  50.397  1.00  0.00     0.036 A 
HETATM   16  C12 UNL     1      21.465   1.091  50.685  1.00  0.00     0.030 A 
HETATM   17  C13 UNL     1      21.439   0.250  51.784  1.00  0.00     0.004 A 
HETATM   18  C14 UNL     1      22.527   0.117  52.625  1.00  0.00     0.019 A 
HETATM   19  C15 UNL     1      23.667   0.840  52.362  1.00  0.00     0.013 A 
HETATM   20 BR1  UNL     1      25.223   0.708  53.488  1.00  0.00    -0.051 Br
HETATM   21  C16 UNL     1      23.670   1.672  51.262  1.00  0.00     0.048 A 
ENDBRANCH  13  15
ENDBRANCH   1  13
BRANCH   4  22
HETATM   22  O1  UNL     1      27.501   4.161  48.904  1.00  0.00    -0.365 OA
HETATM   23  H5  UNL     1      28.375   4.680  48.917  1.00  0.00     0.217 HD
ENDBRANCH   4  22
TORSDOF 3
ENDMDL
