MODEL 1
REMARK VINA RESULT:      -9.3      0.000      0.000
REMARK  4 active torsions:
REMARK  status: ('A' for Active; 'I' for Inactive)
REMARK    1  A    between atoms: N1_1  and  C1_2 
REMARK    2  A    between atoms: C9_10  and  C10_11 
REMARK    3  A    between atoms: C10_11  and  C11_12 
REMARK    4  A    between atoms: N4_19  and  C16_20 
ROOT
HETATM    1  C11 UNL     1      22.491   1.678  51.147  1.00  0.00     0.030 C 
HETATM    2  C12 UNL     1      23.629   1.402  51.752  1.00  0.00     0.048 C 
HETATM    3  C13 UNL     1      23.307   0.958  53.106  1.00  0.00     0.236 C 
HETATM    4  N2  UNL     1      21.841   0.837  53.081  1.00  0.00    -0.258 N 
HETATM    5  C14 UNL     1      21.337   0.181  54.268  1.00  0.00     0.225 C 
HETATM    6  N3  UNL     1      21.905  -0.934  54.668  1.00  0.00    -0.264 NA
HETATM    7  C15 UNL     1      23.003  -1.406  53.856  1.00  0.00     0.277 C 
HETATM    8  N4  UNL     1      23.869  -0.297  53.541  1.00  0.00    -0.336 N 
HETATM    9  N5  UNL     1      21.326   1.358  51.920  1.00  0.00    -0.299 N 
HETATM   10  H20 UNL     1      20.303   1.451  51.764  1.00  0.00     0.187 HD
ENDROOT
BRANCH   1  11
HETATM   11  C10 UNL     1      22.401   2.173  49.751  1.00  0.00     0.097 C 
BRANCH  11  12
HETATM   12  C9  UNL     1      23.247   3.325  49.505  1.00  0.00    -0.045 C 
HETATM   13  C4  UNL     1      22.511   4.551  49.689  1.00  0.00    -0.037 C 
HETATM   14  C3  UNL     1      21.666   5.086  50.570  1.00  0.00    -0.020 C 
HETATM   15  C5  UNL     1      22.912   5.727  48.742  1.00  0.00     0.076 C 
HETATM   16  C2  UNL     1      22.339   6.167  51.206  1.00  0.00     0.025 C 
HETATM   17  C1  UNL     1      23.690   6.815  50.697  1.00  0.00     0.271 C 
HETATM   18  C6  UNL     1      24.163   5.845  49.675  1.00  0.00    -0.040 C 
HETATM   19  C7  UNL     1      25.108   5.000  49.331  1.00  0.00     0.006 C 
HETATM   20  C8  UNL     1      24.549   3.608  49.244  1.00  0.00     0.008 C 
BRANCH  17  21
HETATM   21  N1  UNL     1      24.542   7.012  51.805  1.00  0.00     0.090 N 
HETATM   22  H1  UNL     1      24.918   6.152  52.234  1.00  0.00     0.314 HD
HETATM   23  H2  UNL     1      25.273   7.728  51.671  1.00  0.00     0.314 HD
ENDBRANCH  17  21
ENDBRANCH  11  12
ENDBRANCH   1  11
BRANCH   8  24
HETATM   24  C16 UNL     1      25.289  -0.369  53.633  1.00  0.00     0.033 A 
HETATM   25  C17 UNL     1      26.045   0.286  54.580  1.00  0.00     0.031 A 
HETATM   26  C18 UNL     1      27.419   0.233  54.674  1.00  0.00     0.026 A 
HETATM   27  C19 UNL     1      28.115  -0.528  53.758  1.00  0.00     0.034 A 
HETATM   28 CL1  UNL     1      29.857  -0.628  53.833  1.00  0.00    -0.084 Cl
HETATM   29  C20 UNL     1      27.420  -1.211  52.781  1.00  0.00     0.026 A 
HETATM   30  C21 UNL     1      26.044  -1.110  52.749  1.00  0.00     0.031 A 
ENDBRANCH   8  24
TORSDOF 4
ENDMDL
MODEL 2
REMARK VINA RESULT:      -9.3      3.242      6.965
REMARK  4 active torsions:
REMARK  status: ('A' for Active; 'I' for Inactive)
REMARK    1  A    between atoms: N1_1  and  C1_2 
REMARK    2  A    between atoms: C9_10  and  C10_11 
REMARK    3  A    between atoms: C10_11  and  C11_12 
REMARK    4  A    between atoms: N4_19  and  C16_20 
ROOT
HETATM    1  C11 UNL     1      25.028   2.711  51.655  1.00  0.00     0.030 C 
HETATM    2  C12 UNL     1      23.945   2.106  52.101  1.00  0.00     0.048 C 
HETATM    3  C13 UNL     1      22.931   3.134  52.324  1.00  0.00     0.236 C 
HETATM    4  N2  UNL     1      23.543   4.341  51.747  1.00  0.00    -0.258 N 
HETATM    5  C14 UNL     1      22.596   5.431  51.657  1.00  0.00     0.225 C 
HETATM    6  N3  UNL     1      21.408   5.201  51.146  1.00  0.00    -0.264 NA
HETATM    7  C15 UNL     1      21.164   3.846  50.708  1.00  0.00     0.277 C 
HETATM    8  N4  UNL     1      21.639   2.931  51.716  1.00  0.00    -0.336 N 
HETATM    9  N5  UNL     1      24.856   4.114  51.416  1.00  0.00    -0.299 N 
HETATM   10  H20 UNL     1      25.479   4.877  51.085  1.00  0.00     0.187 HD
ENDROOT
BRANCH   1  11
HETATM   11  C10 UNL     1      26.287   2.001  51.320  1.00  0.00     0.097 C 
BRANCH  11  12
HETATM   12  C9  UNL     1      27.147   1.803  52.471  1.00  0.00    -0.045 C 
HETATM   13  C4  UNL     1      26.982   0.478  53.014  1.00  0.00    -0.037 C 
HETATM   14  C3  UNL     1      26.913  -0.779  52.575  1.00  0.00    -0.020 C 
HETATM   15  C5  UNL     1      27.119   0.362  54.565  1.00  0.00     0.076 C 
HETATM   16  C2  UNL     1      28.082  -1.455  53.026  1.00  0.00     0.025 C 
HETATM   17  C1  UNL     1      29.074  -0.904  54.131  1.00  0.00     0.271 C 
HETATM   18  C6  UNL     1      28.651   0.512  54.285  1.00  0.00    -0.040 C 
HETATM   19  C7  UNL     1      29.002   1.772  54.161  1.00  0.00     0.006 C 
HETATM   20  C8  UNL     1      28.131   2.453  53.142  1.00  0.00     0.008 C 
BRANCH  17  21
HETATM   21  N1  UNL     1      30.399  -1.111  53.691  1.00  0.00     0.090 N 
HETATM   22  H1  UNL     1      30.542  -1.054  52.672  1.00  0.00     0.314 HD
HETATM   23  H2  UNL     1      31.117  -0.585  54.213  1.00  0.00     0.314 HD
ENDBRANCH  17  21
ENDBRANCH  11  12
ENDBRANCH   1  11
BRANCH   8  24
HETATM   24  C16 UNL     1      20.890   1.803  52.158  1.00  0.00     0.033 A 
HETATM   25  C17 UNL     1      21.046   1.192  53.383  1.00  0.00     0.031 A 
HETATM   26  C18 UNL     1      20.335   0.095  53.819  1.00  0.00     0.026 A 
HETATM   27  C19 UNL     1      19.386  -0.452  52.981  1.00  0.00     0.034 A 
HETATM   28 CL1  UNL     1      18.458  -1.844  53.485  1.00  0.00    -0.084 Cl
HETATM   29  C20 UNL     1      19.178   0.110  51.739  1.00  0.00     0.026 A 
HETATM   30  C21 UNL     1      19.928   1.208  51.370  1.00  0.00     0.031 A 
ENDBRANCH   8  24
TORSDOF 4
ENDMDL
MODEL 3
REMARK VINA RESULT:      -8.9      3.389      4.923
REMARK  4 active torsions:
REMARK  status: ('A' for Active; 'I' for Inactive)
REMARK    1  A    between atoms: N1_1  and  C1_2 
REMARK    2  A    between atoms: C9_10  and  C10_11 
REMARK    3  A    between atoms: C10_11  and  C11_12 
REMARK    4  A    between atoms: N4_19  and  C16_20 
ROOT
HETATM    1  C11 UNL     1      25.571   3.674  50.205  1.00  0.00     0.030 C 
HETATM    2  C12 UNL     1      24.737   2.780  50.698  1.00  0.00     0.048 C 
HETATM    3  C13 UNL     1      25.505   1.915  51.592  1.00  0.00     0.236 C 
HETATM    4  N2  UNL     1      26.811   2.587  51.671  1.00  0.00    -0.258 N 
HETATM    5  C14 UNL     1      27.649   2.011  52.701  1.00  0.00     0.225 C 
HETATM    6  N3  UNL     1      27.139   1.804  53.894  1.00  0.00    -0.264 NA
HETATM    7  C15 UNL     1      25.758   2.190  54.062  1.00  0.00     0.277 C 
HETATM    8  N4  UNL     1      24.996   1.728  52.929  1.00  0.00    -0.336 N 
HETATM    9  N5  UNL     1      26.891   3.612  50.761  1.00  0.00    -0.299 N 
HETATM   10  H20 UNL     1      27.772   4.139  50.603  1.00  0.00     0.187 HD
ENDROOT
BRANCH   1  11
HETATM   11  C10 UNL     1      25.168   4.729  49.242  1.00  0.00     0.097 C 
BRANCH  11  12
HETATM   12  C9  UNL     1      26.289   5.516  48.766  1.00  0.00    -0.045 C 
HETATM   13  C4  UNL     1      25.917   6.902  48.620  1.00  0.00    -0.037 C 
HETATM   14  C3  UNL     1      25.271   7.840  49.312  1.00  0.00    -0.020 C 
HETATM   15  C5  UNL     1      26.599   7.663  47.440  1.00  0.00     0.076 C 
HETATM   16  C2  UNL     1      26.226   8.821  49.701  1.00  0.00     0.025 C 
HETATM   17  C1  UNL     1      27.691   8.939  49.111  1.00  0.00     0.271 C 
HETATM   18  C6  UNL     1      27.858   7.661  48.370  1.00  0.00    -0.040 C 
HETATM   19  C7  UNL     1      28.530   6.536  48.279  1.00  0.00     0.006 C 
HETATM   20  C8  UNL     1      27.612   5.367  48.501  1.00  0.00     0.008 C 
BRANCH  17  21
HETATM   21  N1  UNL     1      28.590   9.160  50.176  1.00  0.00     0.090 N 
HETATM   22  H1  UNL     1      28.809   8.332  50.750  1.00  0.00     0.314 HD
HETATM   23  H2  UNL     1      29.438   9.692  49.926  1.00  0.00     0.314 HD
ENDBRANCH  17  21
ENDBRANCH  11  12
ENDBRANCH   1  11
BRANCH   8  24
HETATM   24  C16 UNL     1      23.733   1.082  53.051  1.00  0.00     0.033 A 
HETATM   25  C17 UNL     1      22.516   1.699  52.856  1.00  0.00     0.031 A 
HETATM   26  C18 UNL     1      21.287   1.088  52.981  1.00  0.00     0.026 A 
HETATM   27  C19 UNL     1      21.245  -0.246  53.327  1.00  0.00     0.034 A 
HETATM   28 CL1  UNL     1      19.713  -1.068  53.499  1.00  0.00    -0.084 Cl
HETATM   29  C20 UNL     1      22.427  -0.927  53.538  1.00  0.00     0.026 A 
HETATM   30  C21 UNL     1      23.620  -0.249  53.395  1.00  0.00     0.031 A 
ENDBRANCH   8  24
TORSDOF 4
ENDMDL
MODEL 4
REMARK VINA RESULT:      -8.8      1.487      2.249
REMARK  4 active torsions:
REMARK  status: ('A' for Active; 'I' for Inactive)
REMARK    1  A    between atoms: N1_1  and  C1_2 
REMARK    2  A    between atoms: C9_10  and  C10_11 
REMARK    3  A    between atoms: C10_11  and  C11_12 
REMARK    4  A    between atoms: N4_19  and  C16_20 
ROOT
HETATM    1  C11 UNL     1      23.539   2.496  50.599  1.00  0.00     0.030 C 
HETATM    2  C12 UNL     1      24.538   2.027  51.320  1.00  0.00     0.048 C 
HETATM    3  C13 UNL     1      23.985   1.588  52.599  1.00  0.00     0.236 C 
HETATM    4  N2  UNL     1      22.532   1.694  52.393  1.00  0.00    -0.258 N 
HETATM    5  C14 UNL     1      21.791   1.079  53.472  1.00  0.00     0.225 C 
HETATM    6  N3  UNL     1      22.135  -0.124  53.875  1.00  0.00    -0.264 NA
HETATM    7  C15 UNL     1      23.245  -0.727  53.176  1.00  0.00     0.277 C 
HETATM    8  N4  UNL     1      24.298   0.247  53.029  1.00  0.00    -0.336 N 
HETATM    9  N5  UNL     1      22.251   2.329  51.208  1.00  0.00    -0.299 N 
HETATM   10  H20 UNL     1      21.280   2.582  50.937  1.00  0.00     0.187 HD
ENDROOT
BRANCH   1  11
HETATM   11  C10 UNL     1      23.700   3.050  49.232  1.00  0.00     0.097 C 
BRANCH  11  12
HETATM   12  C9  UNL     1      23.764   4.498  49.214  1.00  0.00    -0.045 C 
HETATM   13  C4  UNL     1      25.077   4.959  49.591  1.00  0.00    -0.037 C 
HETATM   14  C3  UNL     1      26.351   4.681  49.313  1.00  0.00    -0.020 C 
HETATM   15  C5  UNL     1      25.117   6.297  50.395  1.00  0.00     0.076 C 
HETATM   16  C2  UNL     1      26.886   5.793  48.604  1.00  0.00     0.025 C 
HETATM   17  C1  UNL     1      26.196   7.213  48.495  1.00  0.00     0.271 C 
HETATM   18  C6  UNL     1      24.824   6.958  49.008  1.00  0.00    -0.040 C 
HETATM   19  C7  UNL     1      23.541   6.950  48.726  1.00  0.00     0.006 C 
HETATM   20  C8  UNL     1      22.992   5.557  48.860  1.00  0.00     0.008 C 
BRANCH  17  21
HETATM   21  N1  UNL     1      26.284   7.658  47.158  1.00  0.00     0.090 N 
HETATM   22  H1  UNL     1      25.485   8.217  46.823  1.00  0.00     0.314 HD
HETATM   23  H2  UNL     1      27.188   8.082  46.900  1.00  0.00     0.314 HD
ENDBRANCH  17  21
ENDBRANCH  11  12
ENDBRANCH   1  11
BRANCH   8  24
HETATM   24  C16 UNL     1      25.668  -0.043  53.286  1.00  0.00     0.033 A 
HETATM   25  C17 UNL     1      26.430   0.573  54.255  1.00  0.00     0.031 A 
HETATM   26  C18 UNL     1      27.759   0.309  54.507  1.00  0.00     0.026 A 
HETATM   27  C19 UNL     1      28.399  -0.644  53.742  1.00  0.00     0.034 A 
HETATM   28 CL1  UNL     1      30.083  -1.016  54.021  1.00  0.00    -0.084 Cl
HETATM   29  C20 UNL     1      27.696  -1.300  52.753  1.00  0.00     0.026 A 
HETATM   30  C21 UNL     1      26.368  -0.982  52.558  1.00  0.00     0.031 A 
ENDBRANCH   8  24
TORSDOF 4
ENDMDL
MODEL 5
REMARK VINA RESULT:      -8.6      2.908      7.179
REMARK  4 active torsions:
REMARK  status: ('A' for Active; 'I' for Inactive)
REMARK    1  A    between atoms: N1_1  and  C1_2 
REMARK    2  A    between atoms: C9_10  and  C10_11 
REMARK    3  A    between atoms: C10_11  and  C11_12 
REMARK    4  A    between atoms: N4_19  and  C16_20 
ROOT
HETATM    1  C11 UNL     1      24.292   2.094  51.430  1.00  0.00     0.030 C 
HETATM    2  C12 UNL     1      25.008   2.879  50.649  1.00  0.00     0.048 C 
HETATM    3  C13 UNL     1      24.132   3.956  50.193  1.00  0.00     0.236 C 
HETATM    4  N2  UNL     1      22.912   3.760  50.993  1.00  0.00    -0.258 N 
HETATM    5  C14 UNL     1      21.999   4.874  50.860  1.00  0.00     0.225 C 
HETATM    6  N3  UNL     1      22.464   6.097  50.981  1.00  0.00    -0.264 NA
HETATM    7  C15 UNL     1      23.879   6.206  51.249  1.00  0.00     0.277 C 
HETATM    8  N4  UNL     1      24.597   5.309  50.378  1.00  0.00    -0.336 N 
HETATM    9  N5  UNL     1      22.966   2.576  51.686  1.00  0.00    -0.299 N 
HETATM   10  H20 UNL     1      22.156   2.220  52.230  1.00  0.00     0.187 HD
ENDROOT
BRANCH   1  11
HETATM   11  C10 UNL     1      24.829   0.875  52.083  1.00  0.00     0.097 C 
BRANCH  11  12
HETATM   12  C9  UNL     1      25.929   1.155  52.986  1.00  0.00    -0.045 C 
HETATM   13  C4  UNL     1      26.507  -0.067  53.486  1.00  0.00    -0.037 C 
HETATM   14  C3  UNL     1      26.908  -1.248  53.016  1.00  0.00    -0.020 C 
HETATM   15  C5  UNL     1      27.040  -0.010  54.953  1.00  0.00     0.076 C 
HETATM   16  C2  UNL     1      28.325  -1.301  53.143  1.00  0.00     0.025 C 
HETATM   17  C1  UNL     1      29.192  -0.297  54.006  1.00  0.00     0.271 C 
HETATM   18  C6  UNL     1      28.229   0.790  54.325  1.00  0.00    -0.040 C 
HETATM   19  C7  UNL     1      27.939   2.063  54.184  1.00  0.00     0.006 C 
HETATM   20  C8  UNL     1      26.645   2.217  53.436  1.00  0.00     0.008 C 
BRANCH  17  21
HETATM   21  N1  UNL     1      30.326   0.082  53.255  1.00  0.00     0.090 N 
HETATM   22  H1  UNL     1      30.191   0.111  52.233  1.00  0.00     0.314 HD
HETATM   23  H2  UNL     1      30.820   0.917  53.604  1.00  0.00     0.314 HD
ENDBRANCH  17  21
ENDBRANCH  11  12
ENDBRANCH   1  11
BRANCH   8  24
HETATM   24  C16 UNL     1      25.774   5.686  49.670  1.00  0.00     0.033 A 
HETATM   25  C17 UNL     1      26.140   6.987  49.399  1.00  0.00     0.031 A 
HETATM   26  C18 UNL     1      27.270   7.365  48.707  1.00  0.00     0.026 A 
HETATM   27  C19 UNL     1      28.117   6.382  48.239  1.00  0.00     0.034 A 
HETATM   28 CL1  UNL     1      29.563   6.808  47.355  1.00  0.00    -0.084 Cl
HETATM   29  C20 UNL     1      27.811   5.058  48.475  1.00  0.00     0.026 A 
HETATM   30  C21 UNL     1      26.661   4.755  49.175  1.00  0.00     0.031 A 
ENDBRANCH   8  24
TORSDOF 4
ENDMDL
MODEL 6
REMARK VINA RESULT:      -8.6      3.764      7.170
REMARK  4 active torsions:
REMARK  status: ('A' for Active; 'I' for Inactive)
REMARK    1  A    between atoms: N1_1  and  C1_2 
REMARK    2  A    between atoms: C9_10  and  C10_11 
REMARK    3  A    between atoms: C10_11  and  C11_12 
REMARK    4  A    between atoms: N4_19  and  C16_20 
ROOT
HETATM    1  C11 UNL     1      23.391   2.900  51.863  1.00  0.00     0.030 C 
HETATM    2  C12 UNL     1      22.174   2.394  51.897  1.00  0.00     0.048 C 
HETATM    3  C13 UNL     1      21.537   2.707  50.620  1.00  0.00     0.236 C 
HETATM    4  N2  UNL     1      22.638   3.266  49.821  1.00  0.00    -0.258 N 
HETATM    5  C14 UNL     1      22.266   3.425  48.432  1.00  0.00     0.225 C 
HETATM    6  N3  UNL     1      21.680   2.427  47.812  1.00  0.00    -0.264 NA
HETATM    7  C15 UNL     1      21.467   1.236  48.601  1.00  0.00     0.277 C 
HETATM    8  N4  UNL     1      20.944   1.611  49.892  1.00  0.00    -0.336 N 
HETATM    9  N5  UNL     1      23.752   3.470  50.598  1.00  0.00    -0.299 N 
HETATM   10  H20 UNL     1      24.598   3.949  50.231  1.00  0.00     0.187 HD
ENDROOT
BRANCH   1  11
HETATM   11  C10 UNL     1      24.353   2.800  52.988  1.00  0.00     0.097 C 
BRANCH  11  12
HETATM   12  C9  UNL     1      24.931   1.476  53.120  1.00  0.00    -0.045 C 
HETATM   13  C4  UNL     1      26.252   1.433  52.542  1.00  0.00    -0.037 C 
HETATM   14  C3  UNL     1      27.369   2.160  52.549  1.00  0.00    -0.020 C 
HETATM   15  C5  UNL     1      26.647   0.083  51.864  1.00  0.00     0.076 C 
HETATM   16  C2  UNL     1      28.364   1.410  53.238  1.00  0.00     0.025 C 
HETATM   17  C1  UNL     1      28.248  -0.127  53.598  1.00  0.00     0.271 C 
HETATM   18  C6  UNL     1      26.816  -0.426  53.334  1.00  0.00    -0.040 C 
HETATM   19  C7  UNL     1      25.671  -0.808  53.852  1.00  0.00     0.006 C 
HETATM   20  C8  UNL     1      24.649   0.284  53.704  1.00  0.00     0.008 C 
BRANCH  17  21
HETATM   21  N1  UNL     1      28.685  -0.313  54.927  1.00  0.00     0.090 N 
HETATM   22  H1  UNL     1      29.535   0.207  55.192  1.00  0.00     0.314 HD
HETATM   23  H2  UNL     1      27.946  -0.237  55.643  1.00  0.00     0.314 HD
ENDBRANCH  17  21
ENDBRANCH  11  12
ENDBRANCH   1  11
BRANCH   8  24
HETATM   24  C16 UNL     1      19.849   0.945  50.511  1.00  0.00     0.033 A 
HETATM   25  C17 UNL     1      18.568   0.908  50.005  1.00  0.00     0.031 A 
HETATM   26  C18 UNL     1      17.497   0.276  50.600  1.00  0.00     0.026 A 
HETATM   27  C19 UNL     1      17.699  -0.379  51.797  1.00  0.00     0.034 A 
HETATM   28 CL1  UNL     1      16.375  -1.197  52.592  1.00  0.00    -0.084 Cl
HETATM   29  C20 UNL     1      18.958  -0.383  52.361  1.00  0.00     0.026 A 
HETATM   30  C21 UNL     1      19.982   0.273  51.708  1.00  0.00     0.031 A 
ENDBRANCH   8  24
TORSDOF 4
ENDMDL
MODEL 7
REMARK VINA RESULT:      -8.3      5.676      8.728
REMARK  4 active torsions:
REMARK  status: ('A' for Active; 'I' for Inactive)
REMARK    1  A    between atoms: N1_1  and  C1_2 
REMARK    2  A    between atoms: C9_10  and  C10_11 
REMARK    3  A    between atoms: C10_11  and  C11_12 
REMARK    4  A    between atoms: N4_19  and  C16_20 
ROOT
HETATM    1  C11 UNL     1      28.044   5.536  48.672  1.00  0.00     0.030 C 
HETATM    2  C12 UNL     1      29.182   5.388  48.023  1.00  0.00     0.048 C 
HETATM    3  C13 UNL     1      29.769   6.717  47.864  1.00  0.00     0.236 C 
HETATM    4  N2  UNL     1      28.901   7.571  48.690  1.00  0.00    -0.258 N 
HETATM    5  C14 UNL     1      29.454   8.897  48.855  1.00  0.00     0.225 C 
HETATM    6  N3  UNL     1      30.717   9.022  49.195  1.00  0.00    -0.264 NA
HETATM    7  C15 UNL     1      31.443   7.786  49.380  1.00  0.00     0.277 C 
HETATM    8  N4  UNL     1      31.136   6.890  48.293  1.00  0.00    -0.336 N 
HETATM    9  N5  UNL     1      27.795   6.877  49.116  1.00  0.00    -0.299 N 
HETATM   10  H20 UNL     1      27.020   7.341  49.630  1.00  0.00     0.187 HD
ENDROOT
BRANCH   1  11
HETATM   11  C10 UNL     1      27.143   4.410  49.018  1.00  0.00     0.097 C 
BRANCH  11  12
HETATM   12  C9  UNL     1      25.745   4.795  49.052  1.00  0.00    -0.045 C 
HETATM   13  C4  UNL     1      24.953   3.793  49.721  1.00  0.00    -0.037 C 
HETATM   14  C3  UNL     1      25.004   3.057  50.831  1.00  0.00    -0.020 C 
HETATM   15  C5  UNL     1      23.507   3.595  49.166  1.00  0.00     0.076 C 
HETATM   16  C2  UNL     1      23.963   3.508  51.692  1.00  0.00     0.025 C 
HETATM   17  C1  UNL     1      22.770   4.450  51.249  1.00  0.00     0.271 C 
HETATM   18  C6  UNL     1      23.204   4.936  49.913  1.00  0.00    -0.040 C 
HETATM   19  C7  UNL     1      23.538   5.982  49.192  1.00  0.00     0.006 C 
HETATM   20  C8  UNL     1      24.963   5.856  48.729  1.00  0.00     0.008 C 
BRANCH  17  21
HETATM   21  N1  UNL     1      22.584   5.439  52.238  1.00  0.00     0.090 N 
HETATM   22  H1  UNL     1      21.607   5.602  52.525  1.00  0.00     0.314 HD
HETATM   23  H2  UNL     1      23.218   5.369  53.049  1.00  0.00     0.314 HD
ENDBRANCH  17  21
ENDBRANCH  11  12
ENDBRANCH   1  11
BRANCH   8  24
HETATM   24  C16 UNL     1      32.128   6.141  47.597  1.00  0.00     0.033 A 
HETATM   25  C17 UNL     1      32.973   5.227  48.187  1.00  0.00     0.031 A 
HETATM   26  C18 UNL     1      33.943   4.503  47.527  1.00  0.00     0.026 A 
HETATM   27  C19 UNL     1      34.100   4.692  46.170  1.00  0.00     0.034 A 
HETATM   28 CL1  UNL     1      35.315   3.800  45.287  1.00  0.00    -0.084 Cl
HETATM   29  C20 UNL     1      33.286   5.594  45.516  1.00  0.00     0.026 A 
HETATM   30  C21 UNL     1      32.336   6.283  46.242  1.00  0.00     0.031 A 
ENDBRANCH   8  24
TORSDOF 4
ENDMDL
MODEL 8
REMARK VINA RESULT:      -8.2      2.905      4.412
REMARK  4 active torsions:
REMARK  status: ('A' for Active; 'I' for Inactive)
REMARK    1  A    between atoms: N1_1  and  C1_2 
REMARK    2  A    between atoms: C9_10  and  C10_11 
REMARK    3  A    between atoms: C10_11  and  C11_12 
REMARK    4  A    between atoms: N4_19  and  C16_20 
ROOT
HETATM    1  C11 UNL     1      25.684   3.352  50.245  1.00  0.00     0.030 C 
HETATM    2  C12 UNL     1      24.836   2.482  50.757  1.00  0.00     0.048 C 
HETATM    3  C13 UNL     1      25.573   1.670  51.723  1.00  0.00     0.236 C 
HETATM    4  N2  UNL     1      26.874   2.351  51.812  1.00  0.00    -0.258 N 
HETATM    5  C14 UNL     1      27.676   1.835  52.900  1.00  0.00     0.225 C 
HETATM    6  N3  UNL     1      27.125   1.692  54.084  1.00  0.00    -0.264 NA
HETATM    7  C15 UNL     1      25.737   2.081  54.182  1.00  0.00     0.277 C 
HETATM    8  N4  UNL     1      25.017   1.555  53.049  1.00  0.00    -0.336 N 
HETATM    9  N5  UNL     1      26.984   3.325  50.851  1.00  0.00    -0.299 N 
HETATM   10  H20 UNL     1      27.869   3.847  50.695  1.00  0.00     0.187 HD
ENDROOT
BRANCH   1  11
HETATM   11  C10 UNL     1      25.314   4.351  49.213  1.00  0.00     0.097 C 
BRANCH  11  12
HETATM   12  C9  UNL     1      23.953   4.832  49.355  1.00  0.00    -0.045 C 
HETATM   13  C4  UNL     1      23.857   5.791  50.428  1.00  0.00    -0.037 C 
HETATM   14  C3  UNL     1      24.514   6.863  50.870  1.00  0.00    -0.020 C 
HETATM   15  C5  UNL     1      22.519   5.771  51.232  1.00  0.00     0.076 C 
HETATM   16  C2  UNL     1      23.674   7.994  50.667  1.00  0.00     0.025 C 
HETATM   17  C1  UNL     1      22.131   7.923  50.318  1.00  0.00     0.271 C 
HETATM   18  C6  UNL     1      21.932   6.490  49.973  1.00  0.00    -0.040 C 
HETATM   19  C7  UNL     1      21.597   5.634  49.035  1.00  0.00     0.006 C 
HETATM   20  C8  UNL     1      22.754   4.726  48.728  1.00  0.00     0.008 C 
BRANCH  17  21
HETATM   21  N1  UNL     1      21.856   8.851  49.292  1.00  0.00     0.090 N 
HETATM   22  H1  UNL     1      21.281   9.661  49.569  1.00  0.00     0.314 HD
HETATM   23  H2  UNL     1      22.674   9.132  48.729  1.00  0.00     0.314 HD
ENDBRANCH  17  21
ENDBRANCH  11  12
ENDBRANCH   1  11
BRANCH   8  24
HETATM   24  C16 UNL     1      23.752   0.911  53.162  1.00  0.00     0.033 A 
HETATM   25  C17 UNL     1      22.537   1.539  52.994  1.00  0.00     0.031 A 
HETATM   26  C18 UNL     1      21.306   0.930  53.110  1.00  0.00     0.026 A 
HETATM   27  C19 UNL     1      21.260  -0.413  53.418  1.00  0.00     0.034 A 
HETATM   28 CL1  UNL     1      19.725  -1.233  53.577  1.00  0.00    -0.084 Cl
HETATM   29  C20 UNL     1      22.440  -1.105  53.601  1.00  0.00     0.026 A 
HETATM   30  C21 UNL     1      23.635  -0.428  53.468  1.00  0.00     0.031 A 
ENDBRANCH   8  24
TORSDOF 4
ENDMDL
MODEL 9
REMARK VINA RESULT:      -8.0      4.365      8.473
REMARK  4 active torsions:
REMARK  status: ('A' for Active; 'I' for Inactive)
REMARK    1  A    between atoms: N1_1  and  C1_2 
REMARK    2  A    between atoms: C9_10  and  C10_11 
REMARK    3  A    between atoms: C10_11  and  C11_12 
REMARK    4  A    between atoms: N4_19  and  C16_20 
ROOT
HETATM    1  C11 UNL     1      26.374   4.633  49.500  1.00  0.00     0.030 C 
HETATM    2  C12 UNL     1      27.043   5.281  48.568  1.00  0.00     0.048 C 
HETATM    3  C13 UNL     1      26.596   6.672  48.597  1.00  0.00     0.236 C 
HETATM    4  N2  UNL     1      25.750   6.729  49.799  1.00  0.00    -0.258 N 
HETATM    5  C14 UNL     1      25.393   8.089  50.139  1.00  0.00     0.225 C 
HETATM    6  N3  UNL     1      26.335   9.006  50.168  1.00  0.00    -0.264 NA
HETATM    7  C15 UNL     1      27.667   8.546  49.853  1.00  0.00     0.277 C 
HETATM    8  N4  UNL     1      27.612   7.691  48.694  1.00  0.00    -0.336 N 
HETATM    9  N5  UNL     1      25.537   5.472  50.308  1.00  0.00    -0.299 N 
HETATM   10  H20 UNL     1      24.884   5.302  51.099  1.00  0.00     0.187 HD
ENDROOT
BRANCH   1  11
HETATM   11  C10 UNL     1      26.541   3.185  49.776  1.00  0.00     0.097 C 
BRANCH  11  12
HETATM   12  C9  UNL     1      26.257   2.835  51.154  1.00  0.00    -0.045 C 
HETATM   13  C4  UNL     1      24.835   2.747  51.379  1.00  0.00    -0.037 C 
HETATM   14  C3  UNL     1      23.764   2.213  50.794  1.00  0.00    -0.020 C 
HETATM   15  C5  UNL     1      24.346   3.202  52.790  1.00  0.00     0.076 C 
HETATM   16  C2  UNL     1      23.295   1.164  51.634  1.00  0.00     0.025 C 
HETATM   17  C1  UNL     1      23.753   0.934  53.132  1.00  0.00     0.271 C 
HETATM   18  C6  UNL     1      24.932   1.830  53.264  1.00  0.00    -0.040 C 
HETATM   19  C7  UNL     1      26.225   1.902  53.484  1.00  0.00     0.006 C 
HETATM   20  C8  UNL     1      26.922   2.474  52.281  1.00  0.00     0.008 C 
BRANCH  17  21
HETATM   21  N1  UNL     1      23.998  -0.443  53.323  1.00  0.00     0.090 N 
HETATM   22  H1  UNL     1      23.162  -1.024  53.488  1.00  0.00     0.314 HD
HETATM   23  H2  UNL     1      24.635  -0.871  52.634  1.00  0.00     0.314 HD
ENDBRANCH  17  21
ENDBRANCH  11  12
ENDBRANCH   1  11
BRANCH   8  24
HETATM   24  C16 UNL     1      28.528   7.791  47.608  1.00  0.00     0.033 A 
HETATM   25  C17 UNL     1      29.871   7.491  47.687  1.00  0.00     0.031 A 
HETATM   26  C18 UNL     1      30.770   7.593  46.647  1.00  0.00     0.026 A 
HETATM   27  C19 UNL     1      30.313   8.028  45.421  1.00  0.00     0.034 A 
HETATM   28 CL1  UNL     1      31.411   8.176  44.070  1.00  0.00    -0.084 Cl
HETATM   29  C20 UNL     1      28.979   8.346  45.271  1.00  0.00     0.026 A 
HETATM   30  C21 UNL     1      28.138   8.219  46.357  1.00  0.00     0.031 A 
ENDBRANCH   8  24
TORSDOF 4
ENDMDL
