MODEL 1
REMARK VINA RESULT:      -7.9      0.000      0.000
REMARK  7 active torsions:
REMARK  status: ('A' for Active; 'I' for Inactive)
REMARK    1  A    between atoms: C2_2  and  N1_3 
REMARK    2  A    between atoms: N1_3  and  C4_5 
REMARK    3  A    between atoms: C4_5  and  C5_6 
REMARK    4  A    between atoms: C6_7  and  C7_8 
REMARK    5  A    between atoms: C7_8  and  C8_10 
REMARK    6  A    between atoms: C10_12  and  N2_13 
REMARK    7  A    between atoms: N2_13  and  C11_14 
ROOT
HETATM    1  C8  UNL     1      23.428   3.984  51.919  1.00  0.00     0.020 C 
HETATM    2  C9  UNL     1      24.058   3.292  52.923  1.00  0.00     0.026 C 
HETATM    3  C10 UNL     1      24.264   1.830  52.561  1.00  0.00     0.091 C 
HETATM    4  C17 UNL     1      24.650   2.148  51.072  1.00  0.00     0.081 C 
HETATM    5  C18 UNL     1      23.274   2.850  51.012  1.00  0.00    -0.029 C 
HETATM    6  C19 UNL     1      22.433   2.122  50.254  1.00  0.00    -0.005 C 
HETATM    7  C20 UNL     1      22.237   1.061  51.104  1.00  0.00     0.008 C 
HETATM    8  C21 UNL     1      22.906   1.170  52.290  1.00  0.00     0.066 C 
HETATM    9  C22 UNL     1      22.244   0.587  53.433  1.00  0.00     0.099 C 
HETATM   10  N3  UNL     1      21.716   0.096  54.351  1.00  0.00    -0.192 NA
ENDROOT
BRANCH   3  11
HETATM   11  N2  UNL     1      25.154   1.121  53.291  1.00  0.00    -0.372 N 
HETATM   12  H12 UNL     1      24.613   0.490  53.961  1.00  0.00     0.161 HD
BRANCH  11  13
HETATM   13  C11 UNL     1      26.551   0.977  53.425  1.00  0.00     0.030 A 
HETATM   14  C12 UNL     1      27.391   2.074  53.650  1.00  0.00     0.029 A 
HETATM   15  C13 UNL     1      28.754   1.980  53.777  1.00  0.00     0.004 A 
HETATM   16  C14 UNL     1      29.276   0.711  53.669  1.00  0.00     0.019 A 
HETATM   17  C15 UNL     1      28.545  -0.438  53.448  1.00  0.00     0.013 A 
HETATM   18 BR1  UNL     1      29.365  -2.153  53.313  1.00  0.00    -0.051 Br
HETATM   19  C16 UNL     1      27.186  -0.241  53.335  1.00  0.00     0.048 A 
ENDBRANCH  11  13
ENDBRANCH   3  11
BRANCH   1  20
HETATM   20  C7  UNL     1      22.912   5.279  51.564  1.00  0.00     0.182 C 
HETATM   21  O1  UNL     1      21.686   5.193  51.919  1.00  0.00    -0.288 OA
BRANCH  20  22
HETATM   22  C6  UNL     1      23.563   6.402  50.964  1.00  0.00     0.053 C 
HETATM   23  C5  UNL     1      24.623   7.201  51.095  1.00  0.00    -0.003 C 
BRANCH  23  24
HETATM   24  C4  UNL     1      24.924   8.323  50.170  1.00  0.00     0.149 C 
BRANCH  24  25
HETATM   25  N1  UNL     1      26.270   8.239  49.643  1.00  0.00    -0.392 N 
HETATM   26  C3  UNL     1      27.310   9.159  50.047  1.00  0.00     0.149 C 
BRANCH  25  27
HETATM   27  C2  UNL     1      26.504   7.198  48.704  1.00  0.00     0.075 C 
HETATM   28  C1  UNL     1      27.262   6.144  48.545  1.00  0.00     0.029 C 
ENDBRANCH  25  27
ENDBRANCH  24  25
ENDBRANCH  23  24
ENDBRANCH  20  22
ENDBRANCH   1  20
TORSDOF 7
ENDMDL
MODEL 2
REMARK VINA RESULT:      -7.7      2.915      5.065
REMARK  7 active torsions:
REMARK  status: ('A' for Active; 'I' for Inactive)
REMARK    1  A    between atoms: C2_2  and  N1_3 
REMARK    2  A    between atoms: N1_3  and  C4_5 
REMARK    3  A    between atoms: C4_5  and  C5_6 
REMARK    4  A    between atoms: C6_7  and  C7_8 
REMARK    5  A    between atoms: C7_8  and  C8_10 
REMARK    6  A    between atoms: C10_12  and  N2_13 
REMARK    7  A    between atoms: N2_13  and  C11_14 
ROOT
HETATM    1  C8  UNL     1      25.944   2.252  51.446  1.00  0.00     0.020 C 
HETATM    2  C9  UNL     1      25.118   1.236  51.857  1.00  0.00     0.026 C 
HETATM    3  C10 UNL     1      25.492   0.725  53.240  1.00  0.00     0.091 C 
HETATM    4  C17 UNL     1      25.787   2.162  53.801  1.00  0.00     0.081 C 
HETATM    5  C18 UNL     1      26.794   2.260  52.633  1.00  0.00    -0.029 C 
HETATM    6  C19 UNL     1      28.049   2.211  53.118  1.00  0.00    -0.005 C 
HETATM    7  C20 UNL     1      28.086   0.890  53.490  1.00  0.00     0.008 C 
HETATM    8  C21 UNL     1      26.935   0.205  53.223  1.00  0.00     0.066 C 
HETATM    9  C22 UNL     1      27.104  -1.187  52.882  1.00  0.00     0.099 C 
HETATM   10  N3  UNL     1      27.243  -2.318  52.626  1.00  0.00    -0.192 NA
ENDROOT
BRANCH   3  11
HETATM   11  N2  UNL     1      24.580  -0.021  53.902  1.00  0.00    -0.372 N 
HETATM   12  H12 UNL     1      25.069  -0.505  54.718  1.00  0.00     0.161 HD
BRANCH  11  13
HETATM   13  C11 UNL     1      23.208  -0.341  53.830  1.00  0.00     0.030 A 
HETATM   14  C12 UNL     1      22.601  -1.211  54.745  1.00  0.00     0.029 A 
HETATM   15  C13 UNL     1      21.273  -1.556  54.706  1.00  0.00     0.004 A 
HETATM   16  C14 UNL     1      20.540  -0.988  53.689  1.00  0.00     0.019 A 
HETATM   17  C15 UNL     1      21.032  -0.120  52.736  1.00  0.00     0.013 A 
HETATM   18 BR1  UNL     1      19.931   0.615  51.365  1.00  0.00    -0.051 Br
HETATM   19  C16 UNL     1      22.375   0.165  52.859  1.00  0.00     0.048 A 
ENDBRANCH  11  13
ENDBRANCH   3  11
BRANCH   1  20
HETATM   20  C7  UNL     1      26.212   3.142  50.349  1.00  0.00     0.182 C 
HETATM   21  O1  UNL     1      27.051   2.473  49.652  1.00  0.00    -0.288 OA
BRANCH  20  22
HETATM   22  C6  UNL     1      25.700   4.447  50.068  1.00  0.00     0.053 C 
HETATM   23  C5  UNL     1      25.222   5.202  49.078  1.00  0.00    -0.003 C 
BRANCH  23  24
HETATM   24  C4  UNL     1      24.776   6.607  49.260  1.00  0.00     0.149 C 
BRANCH  24  25
HETATM   25  N1  UNL     1      25.778   7.551  48.808  1.00  0.00    -0.392 N 
HETATM   26  C3  UNL     1      25.887   7.946  47.422  1.00  0.00     0.149 C 
BRANCH  25  27
HETATM   27  C2  UNL     1      26.645   8.063  49.812  1.00  0.00     0.075 C 
HETATM   28  C1  UNL     1      27.192   9.191  50.183  1.00  0.00     0.029 C 
ENDBRANCH  25  27
ENDBRANCH  24  25
ENDBRANCH  23  24
ENDBRANCH  20  22
ENDBRANCH   1  20
TORSDOF 7
ENDMDL
MODEL 3
REMARK VINA RESULT:      -7.7      3.035      5.344
REMARK  7 active torsions:
REMARK  status: ('A' for Active; 'I' for Inactive)
REMARK    1  A    between atoms: C2_2  and  N1_3 
REMARK    2  A    between atoms: N1_3  and  C4_5 
REMARK    3  A    between atoms: C4_5  and  C5_6 
REMARK    4  A    between atoms: C6_7  and  C7_8 
REMARK    5  A    between atoms: C7_8  and  C8_10 
REMARK    6  A    between atoms: C10_12  and  N2_13 
REMARK    7  A    between atoms: N2_13  and  C11_14 
ROOT
HETATM    1  C8  UNL     1      25.755   2.385  51.350  1.00  0.00     0.020 C 
HETATM    2  C9  UNL     1      24.895   1.378  51.714  1.00  0.00     0.026 C 
HETATM    3  C10 UNL     1      25.271   0.770  53.056  1.00  0.00     0.091 C 
HETATM    4  C17 UNL     1      25.630   2.158  53.698  1.00  0.00     0.081 C 
HETATM    5  C18 UNL     1      26.623   2.289  52.520  1.00  0.00    -0.029 C 
HETATM    6  C19 UNL     1      27.882   2.162  52.979  1.00  0.00    -0.005 C 
HETATM    7  C20 UNL     1      27.873   0.820  53.271  1.00  0.00     0.008 C 
HETATM    8  C21 UNL     1      26.692   0.198  52.983  1.00  0.00     0.066 C 
HETATM    9  C22 UNL     1      26.801  -1.177  52.556  1.00  0.00     0.099 C 
HETATM   10  N3  UNL     1      26.891  -2.295  52.230  1.00  0.00    -0.192 NA
ENDROOT
BRANCH   3  11
HETATM   11  N2  UNL     1      24.340   0.020  53.688  1.00  0.00    -0.372 N 
HETATM   12  H12 UNL     1      24.834  -0.591  54.410  1.00  0.00     0.161 HD
BRANCH  11  13
HETATM   13  C11 UNL     1      22.945  -0.187  53.671  1.00  0.00     0.030 A 
HETATM   14  C12 UNL     1      22.347  -1.262  54.341  1.00  0.00     0.029 A 
HETATM   15  C13 UNL     1      20.996  -1.505  54.342  1.00  0.00     0.004 A 
HETATM   16  C14 UNL     1      20.229  -0.612  53.630  1.00  0.00     0.019 A 
HETATM   17  C15 UNL     1      20.710   0.479  52.936  1.00  0.00     0.013 A 
HETATM   18 BR1  UNL     1      19.561   1.660  51.977  1.00  0.00    -0.051 Br
HETATM   19  C16 UNL     1      22.078   0.639  52.993  1.00  0.00     0.048 A 
ENDBRANCH  11  13
ENDBRANCH   3  11
BRANCH   1  20
HETATM   20  C7  UNL     1      26.040   3.329  50.304  1.00  0.00     0.182 C 
HETATM   21  O1  UNL     1      27.160   2.907  49.851  1.00  0.00    -0.288 OA
BRANCH  20  22
HETATM   22  C6  UNL     1      25.297   4.464  49.852  1.00  0.00     0.053 C 
HETATM   23  C5  UNL     1      24.292   4.815  49.049  1.00  0.00    -0.003 C 
BRANCH  23  24
HETATM   24  C4  UNL     1      23.828   6.215  48.878  1.00  0.00     0.149 C 
BRANCH  24  25
HETATM   25  N1  UNL     1      23.265   6.747  50.102  1.00  0.00    -0.392 N 
HETATM   26  C3  UNL     1      23.857   7.874  50.790  1.00  0.00     0.149 C 
BRANCH  25  27
HETATM   27  C2  UNL     1      22.098   6.095  50.584  1.00  0.00     0.075 C 
HETATM   28  C1  UNL     1      21.717   5.315  51.561  1.00  0.00     0.029 C 
ENDBRANCH  25  27
ENDBRANCH  24  25
ENDBRANCH  23  24
ENDBRANCH  20  22
ENDBRANCH   1  20
TORSDOF 7
ENDMDL
MODEL 4
REMARK VINA RESULT:      -7.6      3.039      4.642
REMARK  7 active torsions:
REMARK  status: ('A' for Active; 'I' for Inactive)
REMARK    1  A    between atoms: C2_2  and  N1_3 
REMARK    2  A    between atoms: N1_3  and  C4_5 
REMARK    3  A    between atoms: C4_5  and  C5_6 
REMARK    4  A    between atoms: C6_7  and  C7_8 
REMARK    5  A    between atoms: C7_8  and  C8_10 
REMARK    6  A    between atoms: C10_12  and  N2_13 
REMARK    7  A    between atoms: N2_13  and  C11_14 
ROOT
HETATM    1  C8  UNL     1      24.267   3.944  50.047  1.00  0.00     0.020 C 
HETATM    2  C9  UNL     1      24.389   2.617  50.374  1.00  0.00     0.026 C 
HETATM    3  C10 UNL     1      23.660   2.283  51.667  1.00  0.00     0.091 C 
HETATM    4  C17 UNL     1      22.428   3.194  51.325  1.00  0.00     0.081 C 
HETATM    5  C18 UNL     1      23.474   4.327  51.211  1.00  0.00    -0.029 C 
HETATM    6  C19 UNL     1      23.341   5.165  52.256  1.00  0.00    -0.005 C 
HETATM    7  C20 UNL     1      23.826   4.352  53.251  1.00  0.00     0.008 C 
HETATM    8  C21 UNL     1      24.234   3.124  52.814  1.00  0.00     0.066 C 
HETATM    9  C22 UNL     1      25.348   2.548  53.528  1.00  0.00     0.099 C 
HETATM   10  N3  UNL     1      26.237   2.075  54.121  1.00  0.00    -0.192 NA
ENDROOT
BRANCH   3  11
HETATM   11  N2  UNL     1      23.411   0.980  51.928  1.00  0.00    -0.372 N 
HETATM   12  H12 UNL     1      23.997   0.385  51.263  1.00  0.00     0.161 HD
BRANCH  11  13
HETATM   13  C11 UNL     1      22.622   0.198  52.797  1.00  0.00     0.030 A 
HETATM   14  C12 UNL     1      23.170  -0.467  53.901  1.00  0.00     0.029 A 
HETATM   15  C13 UNL     1      22.441  -1.245  54.765  1.00  0.00     0.004 A 
HETATM   16  C14 UNL     1      21.097  -1.345  54.486  1.00  0.00     0.019 A 
HETATM   17  C15 UNL     1      20.452  -0.735  53.431  1.00  0.00     0.013 A 
HETATM   18 BR1  UNL     1      18.580  -0.937  53.131  1.00  0.00    -0.051 Br
HETATM   19  C16 UNL     1      21.268   0.024  52.619  1.00  0.00     0.048 A 
ENDBRANCH  11  13
ENDBRANCH   3  11
BRANCH   1  20
HETATM   20  C7  UNL     1      24.663   4.929  49.077  1.00  0.00     0.182 C 
HETATM   21  O1  UNL     1      23.609   5.048  48.361  1.00  0.00    -0.288 OA
BRANCH  20  22
HETATM   22  C6  UNL     1      25.903   5.622  48.913  1.00  0.00     0.053 C 
HETATM   23  C5  UNL     1      26.424   6.755  48.438  1.00  0.00    -0.003 C 
BRANCH  23  24
HETATM   24  C4  UNL     1      27.873   7.074  48.484  1.00  0.00     0.149 C 
BRANCH  24  25
HETATM   25  N1  UNL     1      28.125   8.341  49.139  1.00  0.00    -0.392 N 
HETATM   26  C3  UNL     1      27.152   8.955  50.016  1.00  0.00     0.149 C 
BRANCH  25  27
HETATM   27  C2  UNL     1      29.384   8.941  48.867  1.00  0.00     0.075 C 
HETATM   28  C1  UNL     1      30.283   9.690  49.449  1.00  0.00     0.029 C 
ENDBRANCH  25  27
ENDBRANCH  24  25
ENDBRANCH  23  24
ENDBRANCH  20  22
ENDBRANCH   1  20
TORSDOF 7
ENDMDL
MODEL 5
REMARK VINA RESULT:      -7.5      3.318      5.219
REMARK  7 active torsions:
REMARK  status: ('A' for Active; 'I' for Inactive)
REMARK    1  A    between atoms: C2_2  and  N1_3 
REMARK    2  A    between atoms: N1_3  and  C4_5 
REMARK    3  A    between atoms: C4_5  and  C5_6 
REMARK    4  A    between atoms: C6_7  and  C7_8 
REMARK    5  A    between atoms: C7_8  and  C8_10 
REMARK    6  A    between atoms: C10_12  and  N2_13 
REMARK    7  A    between atoms: N2_13  and  C11_14 
ROOT
HETATM    1  C8  UNL     1      22.439   2.972  52.231  1.00  0.00     0.020 C 
HETATM    2  C9  UNL     1      23.323   2.504  53.172  1.00  0.00     0.026 C 
HETATM    3  C10 UNL     1      23.751   1.073  52.885  1.00  0.00     0.091 C 
HETATM    4  C17 UNL     1      23.860   1.310  51.337  1.00  0.00     0.081 C 
HETATM    5  C18 UNL     1      22.380   1.746  51.440  1.00  0.00    -0.029 C 
HETATM    6  C19 UNL     1      21.596   0.810  50.874  1.00  0.00    -0.005 C 
HETATM    7  C20 UNL     1      21.726  -0.181  51.816  1.00  0.00     0.008 C 
HETATM    8  C21 UNL     1      22.520   0.159  52.874  1.00  0.00     0.066 C 
HETATM    9  C22 UNL     1      22.147  -0.419  54.143  1.00  0.00     0.099 C 
HETATM   10  N3  UNL     1      21.855  -0.904  55.164  1.00  0.00    -0.192 NA
ENDROOT
BRANCH   3  11
HETATM   11  N2  UNL     1      24.853   0.609  53.517  1.00  0.00    -0.372 N 
HETATM   12  H12 UNL     1      24.548  -0.125  54.229  1.00  0.00     0.161 HD
BRANCH  11  13
HETATM   13  C11 UNL     1      26.249   0.808  53.512  1.00  0.00     0.030 A 
HETATM   14  C12 UNL     1      26.817   2.088  53.512  1.00  0.00     0.029 A 
HETATM   15  C13 UNL     1      28.168   2.326  53.498  1.00  0.00     0.004 A 
HETATM   16  C14 UNL     1      28.969   1.207  53.484  1.00  0.00     0.019 A 
HETATM   17  C15 UNL     1      28.521  -0.097  53.484  1.00  0.00     0.013 A 
HETATM   18 BR1  UNL     1      29.716  -1.582  53.464  1.00  0.00    -0.051 Br
HETATM   19  C16 UNL     1      27.150  -0.233  53.498  1.00  0.00     0.048 A 
ENDBRANCH  11  13
ENDBRANCH   3  11
BRANCH   1  20
HETATM   20  C7  UNL     1      21.642   4.113  51.871  1.00  0.00     0.182 C 
HETATM   21  O1  UNL     1      22.464   5.082  52.026  1.00  0.00    -0.288 OA
BRANCH  20  22
HETATM   22  C6  UNL     1      20.279   4.195  51.447  1.00  0.00     0.053 C 
HETATM   23  C5  UNL     1      19.107   3.565  51.537  1.00  0.00    -0.003 C 
BRANCH  23  24
HETATM   24  C4  UNL     1      17.863   4.048  50.885  1.00  0.00     0.149 C 
BRANCH  24  25
HETATM   25  N1  UNL     1      16.810   3.056  50.936  1.00  0.00    -0.392 N 
HETATM   26  C3  UNL     1      16.774   1.928  50.031  1.00  0.00     0.149 C 
BRANCH  25  27
HETATM   27  C2  UNL     1      15.814   3.259  51.930  1.00  0.00     0.075 C 
HETATM   28  C1  UNL     1      15.452   4.147  52.819  1.00  0.00     0.029 C 
ENDBRANCH  25  27
ENDBRANCH  24  25
ENDBRANCH  23  24
ENDBRANCH  20  22
ENDBRANCH   1  20
TORSDOF 7
ENDMDL
MODEL 6
REMARK VINA RESULT:      -7.4      1.312      1.727
REMARK  7 active torsions:
REMARK  status: ('A' for Active; 'I' for Inactive)
REMARK    1  A    between atoms: C2_2  and  N1_3 
REMARK    2  A    between atoms: N1_3  and  C4_5 
REMARK    3  A    between atoms: C4_5  and  C5_6 
REMARK    4  A    between atoms: C6_7  and  C7_8 
REMARK    5  A    between atoms: C7_8  and  C8_10 
REMARK    6  A    between atoms: C10_12  and  N2_13 
REMARK    7  A    between atoms: N2_13  and  C11_14 
ROOT
HETATM    1  C8  UNL     1      23.558   4.230  51.449  1.00  0.00     0.020 C 
HETATM    2  C9  UNL     1      23.779   3.230  52.363  1.00  0.00     0.026 C 
HETATM    3  C10 UNL     1      23.960   1.878  51.691  1.00  0.00     0.091 C 
HETATM    4  C17 UNL     1      24.821   2.465  50.516  1.00  0.00     0.081 C 
HETATM    5  C18 UNL     1      23.599   3.379  50.264  1.00  0.00    -0.029 C 
HETATM    6  C19 UNL     1      22.979   2.995  49.132  1.00  0.00    -0.005 C 
HETATM    7  C20 UNL     1      22.436   1.813  49.572  1.00  0.00     0.008 C 
HETATM    8  C21 UNL     1      22.705   1.532  50.881  1.00  0.00     0.066 C 
HETATM    9  C22 UNL     1      21.670   0.817  51.589  1.00  0.00     0.099 C 
HETATM   10  N3  UNL     1      20.839   0.221  52.154  1.00  0.00    -0.192 NA
ENDROOT
BRANCH   3  11
HETATM   11  N2  UNL     1      24.511   0.882  52.422  1.00  0.00    -0.372 N 
HETATM   12  H12 UNL     1      23.724   0.328  52.882  1.00  0.00     0.161 HD
BRANCH  11  13
HETATM   13  C11 UNL     1      25.787   0.377  52.747  1.00  0.00     0.030 A 
HETATM   14  C12 UNL     1      26.123  -0.969  52.557  1.00  0.00     0.029 A 
HETATM   15  C13 UNL     1      27.348  -1.503  52.868  1.00  0.00     0.004 A 
HETATM   16  C14 UNL     1      28.265  -0.622  53.394  1.00  0.00     0.019 A 
HETATM   17  C15 UNL     1      28.045   0.720  53.622  1.00  0.00     0.013 A 
HETATM   18 BR1  UNL     1      29.385   1.859  54.357  1.00  0.00    -0.051 Br
HETATM   19  C16 UNL     1      26.785   1.162  53.279  1.00  0.00     0.048 A 
ENDBRANCH  11  13
ENDBRANCH   3  11
BRANCH   1  20
HETATM   20  C7  UNL     1      23.295   5.638  51.328  1.00  0.00     0.182 C 
HETATM   21  O1  UNL     1      22.074   5.722  51.701  1.00  0.00    -0.288 OA
BRANCH  20  22
HETATM   22  C6  UNL     1      24.145   6.707  50.903  1.00  0.00     0.053 C 
HETATM   23  C5  UNL     1      25.375   6.962  50.455  1.00  0.00    -0.003 C 
BRANCH  23  24
HETATM   24  C4  UNL     1      25.858   8.324  50.116  1.00  0.00     0.149 C 
BRANCH  24  25
HETATM   25  N1  UNL     1      27.155   8.289  49.473  1.00  0.00    -0.392 N 
HETATM   26  C3  UNL     1      28.128   9.345  49.654  1.00  0.00     0.149 C 
BRANCH  25  27
HETATM   27  C2  UNL     1      27.413   7.156  48.655  1.00  0.00     0.075 C 
HETATM   28  C1  UNL     1      28.411   6.552  48.064  1.00  0.00     0.029 C 
ENDBRANCH  25  27
ENDBRANCH  24  25
ENDBRANCH  23  24
ENDBRANCH  20  22
ENDBRANCH   1  20
TORSDOF 7
ENDMDL
MODEL 7
REMARK VINA RESULT:      -7.4      3.858      7.563
REMARK  7 active torsions:
REMARK  status: ('A' for Active; 'I' for Inactive)
REMARK    1  A    between atoms: C2_2  and  N1_3 
REMARK    2  A    between atoms: N1_3  and  C4_5 
REMARK    3  A    between atoms: C4_5  and  C5_6 
REMARK    4  A    between atoms: C6_7  and  C7_8 
REMARK    5  A    between atoms: C7_8  and  C8_10 
REMARK    6  A    between atoms: C10_12  and  N2_13 
REMARK    7  A    between atoms: N2_13  and  C11_14 
ROOT
HETATM    1  C8  UNL     1      23.000   0.776  52.670  1.00  0.00     0.020 C 
HETATM    2  C9  UNL     1      24.044   0.984  51.803  1.00  0.00     0.026 C 
HETATM    3  C10 UNL     1      24.052   2.404  51.257  1.00  0.00     0.091 C 
HETATM    4  C17 UNL     1      23.661   3.044  52.636  1.00  0.00     0.081 C 
HETATM    5  C18 UNL     1      22.427   2.114  52.560  1.00  0.00    -0.029 C 
HETATM    6  C19 UNL     1      21.326   2.850  52.320  1.00  0.00    -0.005 C 
HETATM    7  C20 UNL     1      21.575   3.195  51.014  1.00  0.00     0.008 C 
HETATM    8  C21 UNL     1      22.737   2.679  50.516  1.00  0.00     0.066 C 
HETATM    9  C22 UNL     1      22.721   2.352  49.110  1.00  0.00     0.099 C 
HETATM   10  N3  UNL     1      22.711   2.107  47.968  1.00  0.00    -0.192 NA
ENDROOT
BRANCH   3  11
HETATM   11  N2  UNL     1      25.188   2.845  50.672  1.00  0.00    -0.372 N 
HETATM   12  H12 UNL     1      25.902   2.052  50.682  1.00  0.00     0.161 HD
BRANCH  11  13
HETATM   13  C11 UNL     1      25.694   4.017  50.072  1.00  0.00     0.030 A 
HETATM   14  C12 UNL     1      26.835   4.002  49.260  1.00  0.00     0.029 A 
HETATM   15  C13 UNL     1      27.365   5.119  48.665  1.00  0.00     0.004 A 
HETATM   16  C14 UNL     1      26.700   6.298  48.912  1.00  0.00     0.019 A 
HETATM   17  C15 UNL     1      25.570   6.430  49.692  1.00  0.00     0.013 A 
HETATM   18 BR1  UNL     1      24.720   8.113  49.973  1.00  0.00    -0.051 Br
HETATM   19  C16 UNL     1      25.114   5.253  50.247  1.00  0.00     0.048 A 
ENDBRANCH  11  13
ENDBRANCH   3  11
BRANCH   1  20
HETATM   20  C7  UNL     1      22.372  -0.222  53.493  1.00  0.00     0.182 C 
HETATM   21  O1  UNL     1      23.321  -0.566  54.279  1.00  0.00    -0.288 OA
BRANCH  20  22
HETATM   22  C6  UNL     1      21.037  -0.733  53.472  1.00  0.00     0.053 C 
HETATM   23  C5  UNL     1      19.761  -0.349  53.414  1.00  0.00    -0.003 C 
BRANCH  23  24
HETATM   24  C4  UNL     1      18.617  -1.296  53.419  1.00  0.00     0.149 C 
BRANCH  24  25
HETATM   25  N1  UNL     1      17.583  -0.894  52.489  1.00  0.00    -0.392 N 
HETATM   26  C3  UNL     1      16.300  -1.560  52.437  1.00  0.00     0.149 C 
BRANCH  25  27
HETATM   27  C2  UNL     1      17.906   0.193  51.632  1.00  0.00     0.075 C 
HETATM   28  C1  UNL     1      18.134   0.439  50.368  1.00  0.00     0.029 C 
ENDBRANCH  25  27
ENDBRANCH  24  25
ENDBRANCH  23  24
ENDBRANCH  20  22
ENDBRANCH   1  20
TORSDOF 7
ENDMDL
MODEL 8
REMARK VINA RESULT:      -7.4      4.067      7.322
REMARK  7 active torsions:
REMARK  status: ('A' for Active; 'I' for Inactive)
REMARK    1  A    between atoms: C2_2  and  N1_3 
REMARK    2  A    between atoms: N1_3  and  C4_5 
REMARK    3  A    between atoms: C4_5  and  C5_6 
REMARK    4  A    between atoms: C6_7  and  C7_8 
REMARK    5  A    between atoms: C7_8  and  C8_10 
REMARK    6  A    between atoms: C10_12  and  N2_13 
REMARK    7  A    between atoms: N2_13  and  C11_14 
ROOT
HETATM    1  C8  UNL     1      23.493   0.849  52.292  1.00  0.00     0.020 C 
HETATM    2  C9  UNL     1      22.662   0.993  51.209  1.00  0.00     0.026 C 
HETATM    3  C10 UNL     1      22.692   2.409  50.656  1.00  0.00     0.091 C 
HETATM    4  C17 UNL     1      24.244   2.558  50.845  1.00  0.00     0.081 C 
HETATM    5  C18 UNL     1      23.954   2.234  52.329  1.00  0.00    -0.029 C 
HETATM    6  C19 UNL     1      24.125   3.344  53.071  1.00  0.00    -0.005 C 
HETATM    7  C20 UNL     1      23.026   4.054  52.657  1.00  0.00     0.008 C 
HETATM    8  C21 UNL     1      22.251   3.396  51.745  1.00  0.00     0.066 C 
HETATM    9  C22 UNL     1      20.836   3.669  51.819  1.00  0.00     0.099 C 
HETATM   10  N3  UNL     1      19.693   3.907  51.868  1.00  0.00    -0.192 NA
ENDROOT
BRANCH   3  11
HETATM   11  N2  UNL     1      22.199   2.609  49.413  1.00  0.00    -0.372 N 
HETATM   12  H12 UNL     1      21.618   1.757  49.141  1.00  0.00     0.161 HD
BRANCH  11  13
HETATM   13  C11 UNL     1      22.231   3.587  48.397  1.00  0.00     0.030 A 
HETATM   14  C12 UNL     1      22.850   4.829  48.581  1.00  0.00     0.029 A 
HETATM   15  C13 UNL     1      22.896   5.810  47.624  1.00  0.00     0.004 A 
HETATM   16  C14 UNL     1      22.282   5.506  46.430  1.00  0.00     0.019 A 
HETATM   17  C15 UNL     1      21.645   4.319  46.138  1.00  0.00     0.013 A 
HETATM   18 BR1  UNL     1      20.823   3.994  44.449  1.00  0.00    -0.051 Br
HETATM   19  C16 UNL     1      21.651   3.396  47.163  1.00  0.00     0.048 A 
ENDBRANCH  11  13
ENDBRANCH   3  11
BRANCH   1  20
HETATM   20  C7  UNL     1      23.941  -0.096  53.279  1.00  0.00     0.182 C 
HETATM   21  O1  UNL     1      22.906  -0.829  53.447  1.00  0.00    -0.288 OA
BRANCH  20  22
HETATM   22  C6  UNL     1      25.206  -0.222  53.933  1.00  0.00     0.053 C 
HETATM   23  C5  UNL     1      26.227   0.496  54.404  1.00  0.00    -0.003 C 
BRANCH  23  24
HETATM   24  C4  UNL     1      27.420  -0.102  55.055  1.00  0.00     0.149 C 
BRANCH  24  25
HETATM   25  N1  UNL     1      28.614   0.076  54.255  1.00  0.00    -0.392 N 
HETATM   26  C3  UNL     1      29.266  -1.034  53.596  1.00  0.00     0.149 C 
BRANCH  25  27
HETATM   27  C2  UNL     1      29.104   1.407  54.158  1.00  0.00     0.075 C 
HETATM   28  C1  UNL     1      28.802   2.547  53.594  1.00  0.00     0.029 C 
ENDBRANCH  25  27
ENDBRANCH  24  25
ENDBRANCH  23  24
ENDBRANCH  20  22
ENDBRANCH   1  20
TORSDOF 7
ENDMDL
MODEL 9
REMARK VINA RESULT:      -7.3      4.269      7.780
REMARK  7 active torsions:
REMARK  status: ('A' for Active; 'I' for Inactive)
REMARK    1  A    between atoms: C2_2  and  N1_3 
REMARK    2  A    between atoms: N1_3  and  C4_5 
REMARK    3  A    between atoms: C4_5  and  C5_6 
REMARK    4  A    between atoms: C6_7  and  C7_8 
REMARK    5  A    between atoms: C7_8  and  C8_10 
REMARK    6  A    between atoms: C10_12  and  N2_13 
REMARK    7  A    between atoms: N2_13  and  C11_14 
ROOT
HETATM    1  C8  UNL     1      25.056   3.044  50.485  1.00  0.00     0.020 C 
HETATM    2  C9  UNL     1      24.267   3.391  49.416  1.00  0.00     0.026 C 
HETATM    3  C10 UNL     1      22.884   3.846  49.857  1.00  0.00     0.091 C 
HETATM    4  C17 UNL     1      23.431   4.649  51.091  1.00  0.00     0.081 C 
HETATM    5  C18 UNL     1      24.054   3.299  51.516  1.00  0.00    -0.029 C 
HETATM    6  C19 UNL     1      23.393   2.818  52.585  1.00  0.00    -0.005 C 
HETATM    7  C20 UNL     1      22.213   2.471  51.973  1.00  0.00     0.008 C 
HETATM    8  C21 UNL     1      22.192   2.716  50.630  1.00  0.00     0.066 C 
HETATM    9  C22 UNL     1      21.416   1.790  49.841  1.00  0.00     0.099 C 
HETATM   10  N3  UNL     1      20.771   1.050  49.207  1.00  0.00    -0.192 NA
ENDROOT
BRANCH   3  11
HETATM   11  N2  UNL     1      22.132   4.526  48.963  1.00  0.00    -0.372 N 
HETATM   12  H12 UNL     1      21.357   5.034  49.492  1.00  0.00     0.161 HD
BRANCH  11  13
HETATM   13  C11 UNL     1      22.072   4.752  47.571  1.00  0.00     0.030 A 
HETATM   14  C12 UNL     1      21.728   3.738  46.669  1.00  0.00     0.029 A 
HETATM   15  C13 UNL     1      21.666   3.913  45.310  1.00  0.00     0.004 A 
HETATM   16  C14 UNL     1      21.970   5.177  44.857  1.00  0.00     0.019 A 
HETATM   17  C15 UNL     1      22.321   6.248  45.653  1.00  0.00     0.013 A 
HETATM   18 BR1  UNL     1      22.724   7.963  44.927  1.00  0.00    -0.051 Br
HETATM   19  C16 UNL     1      22.355   5.973  47.003  1.00  0.00     0.048 A 
ENDBRANCH  11  13
ENDBRANCH   3  11
BRANCH   1  20
HETATM   20  C7  UNL     1      26.356   2.540  50.837  1.00  0.00     0.182 C 
HETATM   21  O1  UNL     1      27.136   3.436  50.361  1.00  0.00    -0.288 OA
BRANCH  20  22
HETATM   22  C6  UNL     1      26.729   1.349  51.535  1.00  0.00     0.053 C 
HETATM   23  C5  UNL     1      26.224   0.237  52.069  1.00  0.00    -0.003 C 
BRANCH  23  24
HETATM   24  C4  UNL     1      27.048  -0.797  52.745  1.00  0.00     0.149 C 
BRANCH  24  25
HETATM   25  N1  UNL     1      27.562  -0.329  54.015  1.00  0.00    -0.392 N 
HETATM   26  C3  UNL     1      26.695   0.211  55.040  1.00  0.00     0.149 C 
BRANCH  25  27
HETATM   27  C2  UNL     1      28.968  -0.433  54.192  1.00  0.00     0.075 C 
HETATM   28  C1  UNL     1      30.080  -0.184  53.550  1.00  0.00     0.029 C 
ENDBRANCH  25  27
ENDBRANCH  24  25
ENDBRANCH  23  24
ENDBRANCH  20  22
ENDBRANCH   1  20
TORSDOF 7
ENDMDL
