MODEL 1
REMARK VINA RESULT:      -8.4      0.000      0.000
REMARK  6 active torsions:
REMARK  status: ('A' for Active; 'I' for Inactive)
REMARK    1  A    between atoms: C2_2  and  C3_3 
REMARK    2  A    between atoms: C4_4  and  C5_5 
REMARK    3  A    between atoms: C5_5  and  C6_7 
REMARK    4  A    between atoms: C11_14  and  N3_15 
REMARK    5  A    between atoms: N3_15  and  C12_16 
REMARK    6  A    between atoms: C12_16  and  C13_17 
ROOT
HETATM    1  C6  UNL     1      23.573   0.478  53.358  1.00  0.00    -0.031 A 
HETATM    2  C7  UNL     1      24.016  -0.535  54.183  1.00  0.00     0.011 A 
HETATM    3  C8  UNL     1      25.375  -0.623  54.358  1.00  0.00     0.033 A 
HETATM    4  C9  UNL     1      26.234   0.253  53.742  1.00  0.00     0.072 A 
HETATM    5  N1  UNL     1      27.565   0.160  53.920  1.00  0.00    -0.241 NA
HETATM    6  C10 UNL     1      28.406   1.039  53.300  1.00  0.00     0.235 A 
HETATM    7  N2  UNL     1      27.922   2.006  52.507  1.00  0.00    -0.224 NA
HETATM    8  C11 UNL     1      26.616   2.172  52.274  1.00  0.00     0.137 A 
HETATM    9  C18 UNL     1      25.799   1.266  52.917  1.00  0.00     0.039 A 
HETATM   10  C19 UNL     1      24.436   1.356  52.739  1.00  0.00     0.027 A 
ENDROOT
BRANCH   8  11
HETATM   11  N3  UNL     1      26.151   3.207  51.404  1.00  0.00    -0.370 N 
HETATM   12  H10 UNL     1      25.641   4.051  51.732  1.00  0.00     0.161 HD
BRANCH  11  13
HETATM   13  C12 UNL     1      26.403   3.079  49.974  1.00  0.00     0.155 C 
BRANCH  13  14
HETATM   14  C13 UNL     1      26.727   4.378  49.323  1.00  0.00    -0.059 A 
HETATM   15  C14 UNL     1      25.847   5.399  49.328  1.00  0.00     0.004 A 
HETATM   16  C15 UNL     1      26.303   6.604  48.653  1.00  0.00    -0.003 A 
HETATM   17  C16 UNL     1      27.495   6.301  48.227  1.00  0.00    -0.022 A 
HETATM   18  C17 UNL     1      27.894   4.896  48.595  1.00  0.00     0.063 A 
ENDBRANCH  13  14
ENDBRANCH  11  13
ENDBRANCH   8  11
BRANCH   1  19
HETATM   19  C5  UNL     1      22.090   0.593  53.151  1.00  0.00     0.169 C 
HETATM   20 BR1  UNL     1      21.130  -0.923  53.828  1.00  0.00    -0.072 Br
BRANCH  19  21
HETATM   21  C4  UNL     1      21.870   0.693  51.687  1.00  0.00    -0.086 C 
HETATM   22  C3  UNL     1      21.684   0.793  50.505  1.00  0.00    -0.105 C 
BRANCH  22  23
HETATM   23  C2  UNL     1      21.433   0.920  49.058  1.00  0.00     0.089 C 
HETATM   24  C1  UNL     1      22.305   2.022  48.555  1.00  0.00     0.018 C 
ENDBRANCH  22  23
ENDBRANCH  19  21
ENDBRANCH   1  19
TORSDOF 6
ENDMDL
MODEL 2
REMARK VINA RESULT:      -8.0      3.406      5.823
REMARK  6 active torsions:
REMARK  status: ('A' for Active; 'I' for Inactive)
REMARK    1  A    between atoms: C2_2  and  C3_3 
REMARK    2  A    between atoms: C4_4  and  C5_5 
REMARK    3  A    between atoms: C5_5  and  C6_7 
REMARK    4  A    between atoms: C11_14  and  N3_15 
REMARK    5  A    between atoms: N3_15  and  C12_16 
REMARK    6  A    between atoms: C12_16  and  C13_17 
ROOT
HETATM    1  C6  UNL     1      25.297   0.634  53.667  1.00  0.00    -0.031 A 
HETATM    2  C7  UNL     1      25.620  -0.308  54.621  1.00  0.00     0.011 A 
HETATM    3  C8  UNL     1      24.591  -1.104  55.061  1.00  0.00     0.033 A 
HETATM    4  C9  UNL     1      23.316  -0.959  54.572  1.00  0.00     0.072 A 
HETATM    5  N1  UNL     1      22.313  -1.744  55.009  1.00  0.00    -0.241 NA
HETATM    6  C10 UNL     1      21.051  -1.587  54.513  1.00  0.00     0.235 A 
HETATM    7  N2  UNL     1      20.790  -0.653  53.586  1.00  0.00    -0.224 NA
HETATM    8  C11 UNL     1      21.724   0.168  53.096  1.00  0.00     0.137 A 
HETATM    9  C18 UNL     1      22.985  -0.020  53.620  1.00  0.00     0.039 A 
HETATM   10  C19 UNL     1      24.017   0.780  53.178  1.00  0.00     0.027 A 
ENDROOT
BRANCH   8  11
HETATM   11  N3  UNL     1      21.392   1.161  52.122  1.00  0.00    -0.370 N 
HETATM   12  H10 UNL     1      21.415   2.183  52.310  1.00  0.00     0.161 HD
BRANCH  11  13
HETATM   13  C12 UNL     1      20.998   0.724  50.788  1.00  0.00     0.155 C 
BRANCH  13  14
HETATM   14  C13 UNL     1      21.724   1.441  49.705  1.00  0.00    -0.059 A 
HETATM   15  C14 UNL     1      22.698   2.328  49.986  1.00  0.00     0.004 A 
HETATM   16  C15 UNL     1      23.316   2.949  48.825  1.00  0.00    -0.003 A 
HETATM   17  C16 UNL     1      22.695   2.420  47.810  1.00  0.00    -0.022 A 
HETATM   18  C17 UNL     1      21.645   1.427  48.238  1.00  0.00     0.063 A 
ENDBRANCH  13  14
ENDBRANCH  11  13
ENDBRANCH   8  11
BRANCH   1  19
HETATM   19  C5  UNL     1      26.407   1.516  53.172  1.00  0.00     0.169 C 
HETATM   20 BR1  UNL     1      26.177   2.032  51.339  1.00  0.00    -0.072 Br
BRANCH  19  21
HETATM   21  C4  UNL     1      27.662   0.736  53.304  1.00  0.00    -0.086 C 
HETATM   22  C3  UNL     1      28.668   0.089  53.407  1.00  0.00    -0.105 C 
BRANCH  22  23
HETATM   23  C2  UNL     1      29.892  -0.720  53.549  1.00  0.00     0.089 C 
HETATM   24  C1  UNL     1      29.501  -2.148  53.356  1.00  0.00     0.018 C 
ENDBRANCH  22  23
ENDBRANCH  19  21
ENDBRANCH   1  19
TORSDOF 6
ENDMDL
MODEL 3
REMARK VINA RESULT:      -8.0      1.185      1.779
REMARK  6 active torsions:
REMARK  status: ('A' for Active; 'I' for Inactive)
REMARK    1  A    between atoms: C2_2  and  C3_3 
REMARK    2  A    between atoms: C4_4  and  C5_5 
REMARK    3  A    between atoms: C5_5  and  C6_7 
REMARK    4  A    between atoms: C11_14  and  N3_15 
REMARK    5  A    between atoms: N3_15  and  C12_16 
REMARK    6  A    between atoms: C12_16  and  C13_17 
ROOT
HETATM    1  C6  UNL     1      22.565   0.913  52.495  1.00  0.00    -0.031 A 
HETATM    2  C7  UNL     1      22.340  -0.236  53.225  1.00  0.00     0.011 A 
HETATM    3  C8  UNL     1      23.428  -0.762  53.879  1.00  0.00     0.033 A 
HETATM    4  C9  UNL     1      24.664  -0.169  53.803  1.00  0.00     0.072 A 
HETATM    5  N1  UNL     1      25.723  -0.691  54.447  1.00  0.00    -0.241 NA
HETATM    6  C10 UNL     1      26.946  -0.089  54.362  1.00  0.00     0.235 A 
HETATM    7  N2  UNL     1      27.111   1.028  53.637  1.00  0.00    -0.224 NA
HETATM    8  C11 UNL     1      26.114   1.614  52.966  1.00  0.00     0.137 A 
HETATM    9  C18 UNL     1      24.896   0.978  53.076  1.00  0.00     0.039 A 
HETATM   10  C19 UNL     1      23.806   1.507  52.419  1.00  0.00     0.027 A 
ENDROOT
BRANCH   8  11
HETATM   11  N3  UNL     1      26.345   2.794  52.191  1.00  0.00    -0.370 N 
HETATM   12  H10 UNL     1      26.358   3.753  52.591  1.00  0.00     0.161 HD
BRANCH  11  13
HETATM   13  C12 UNL     1      26.576   2.652  50.759  1.00  0.00     0.155 C 
BRANCH  13  14
HETATM   14  C13 UNL     1      26.139   3.841  49.979  1.00  0.00    -0.059 A 
HETATM   15  C14 UNL     1      27.022   4.576  49.274  1.00  0.00     0.004 A 
HETATM   16  C15 UNL     1      26.448   5.707  48.562  1.00  0.00    -0.003 A 
HETATM   17  C16 UNL     1      25.179   5.654  48.846  1.00  0.00    -0.022 A 
HETATM   18  C17 UNL     1      24.844   4.495  49.748  1.00  0.00     0.063 A 
ENDBRANCH  13  14
ENDBRANCH  11  13
ENDBRANCH   8  11
BRANCH   1  19
HETATM   19  C5  UNL     1      21.391   1.505  51.771  1.00  0.00     0.169 C 
HETATM   20 BR1  UNL     1      19.845   0.370  51.817  1.00  0.00    -0.072 Br
BRANCH  19  21
HETATM   21  C4  UNL     1      21.811   1.697  50.361  1.00  0.00    -0.086 C 
HETATM   22  C3  UNL     1      22.136   1.840  49.215  1.00  0.00    -0.105 C 
BRANCH  22  23
HETATM   23  C2  UNL     1      22.538   1.993  47.804  1.00  0.00     0.089 C 
HETATM   24  C1  UNL     1      22.038   3.322  47.345  1.00  0.00     0.018 C 
ENDBRANCH  22  23
ENDBRANCH  19  21
ENDBRANCH   1  19
TORSDOF 6
ENDMDL
MODEL 4
REMARK VINA RESULT:      -8.0      2.436      5.544
REMARK  6 active torsions:
REMARK  status: ('A' for Active; 'I' for Inactive)
REMARK    1  A    between atoms: C2_2  and  C3_3 
REMARK    2  A    between atoms: C4_4  and  C5_5 
REMARK    3  A    between atoms: C5_5  and  C6_7 
REMARK    4  A    between atoms: C11_14  and  N3_15 
REMARK    5  A    between atoms: N3_15  and  C12_16 
REMARK    6  A    between atoms: C12_16  and  C13_17 
ROOT
HETATM    1  C6  UNL     1      21.869   1.493  51.429  1.00  0.00    -0.031 A 
HETATM    2  C7  UNL     1      20.621   1.302  51.985  1.00  0.00     0.011 A 
HETATM    3  C8  UNL     1      20.577   0.545  53.131  1.00  0.00     0.033 A 
HETATM    4  C9  UNL     1      21.717   0.013  53.681  1.00  0.00     0.072 A 
HETATM    5  N1  UNL     1      21.665  -0.727  54.804  1.00  0.00    -0.241 NA
HETATM    6  C10 UNL     1      22.808  -1.249  55.339  1.00  0.00     0.235 A 
HETATM    7  N2  UNL     1      23.997  -1.033  54.756  1.00  0.00    -0.224 NA
HETATM    8  C11 UNL     1      24.141  -0.310  53.641  1.00  0.00     0.137 A 
HETATM    9  C18 UNL     1      22.966   0.200  53.131  1.00  0.00     0.039 A 
HETATM   10  C19 UNL     1      23.013   0.958  51.982  1.00  0.00     0.027 A 
ENDROOT
BRANCH   8  11
HETATM   11  N3  UNL     1      25.429  -0.125  53.047  1.00  0.00    -0.370 N 
HETATM   12  H10 UNL     1      25.679  -0.460  52.096  1.00  0.00     0.161 HD
BRANCH  11  13
HETATM   13  C12 UNL     1      26.454   0.574  53.813  1.00  0.00     0.155 C 
BRANCH  13  14
HETATM   14  C13 UNL     1      27.790  -0.076  53.724  1.00  0.00    -0.059 A 
HETATM   15  C14 UNL     1      27.931  -1.312  53.206  1.00  0.00     0.004 A 
HETATM   16  C15 UNL     1      29.295  -1.817  53.185  1.00  0.00    -0.003 A 
HETATM   17  C16 UNL     1      30.000  -0.854  53.706  1.00  0.00    -0.022 A 
HETATM   18  C17 UNL     1      29.153   0.329  54.094  1.00  0.00     0.063 A 
ENDBRANCH  13  14
ENDBRANCH  11  13
ENDBRANCH   8  11
BRANCH   1  19
HETATM   19  C5  UNL     1      21.941   2.317  50.176  1.00  0.00     0.169 C 
HETATM   20 BR1  UNL     1      21.456   1.322  48.609  1.00  0.00    -0.072 Br
BRANCH  19  21
HETATM   21  C4  UNL     1      23.347   2.774  50.046  1.00  0.00    -0.086 C 
HETATM   22  C3  UNL     1      24.485   3.144  49.962  1.00  0.00    -0.105 C 
BRANCH  22  23
HETATM   23  C2  UNL     1      25.878   3.618  49.871  1.00  0.00     0.089 C 
HETATM   24  C1  UNL     1      26.686   2.794  50.818  1.00  0.00     0.018 C 
ENDBRANCH  22  23
ENDBRANCH  19  21
ENDBRANCH   1  19
TORSDOF 6
ENDMDL
MODEL 5
REMARK VINA RESULT:      -7.9      2.998      4.836
REMARK  6 active torsions:
REMARK  status: ('A' for Active; 'I' for Inactive)
REMARK    1  A    between atoms: C2_2  and  C3_3 
REMARK    2  A    between atoms: C4_4  and  C5_5 
REMARK    3  A    between atoms: C5_5  and  C6_7 
REMARK    4  A    between atoms: C11_14  and  N3_15 
REMARK    5  A    between atoms: N3_15  and  C12_16 
REMARK    6  A    between atoms: C12_16  and  C13_17 
ROOT
HETATM    1  C6  UNL     1      25.990   0.577  52.959  1.00  0.00    -0.031 A 
HETATM    2  C7  UNL     1      26.198  -0.176  54.096  1.00  0.00     0.011 A 
HETATM    3  C8  UNL     1      25.082  -0.748  54.656  1.00  0.00     0.033 A 
HETATM    4  C9  UNL     1      23.836  -0.574  54.106  1.00  0.00     0.072 A 
HETATM    5  N1  UNL     1      22.748  -1.139  54.661  1.00  0.00    -0.241 NA
HETATM    6  C10 UNL     1      21.515  -0.956  54.102  1.00  0.00     0.235 A 
HETATM    7  N2  UNL     1      21.369  -0.213  52.994  1.00  0.00    -0.224 NA
HETATM    8  C11 UNL     1      22.394   0.384  52.378  1.00  0.00     0.137 A 
HETATM    9  C18 UNL     1      23.621   0.177  52.971  1.00  0.00     0.039 A 
HETATM   10  C19 UNL     1      24.739   0.752  52.407  1.00  0.00     0.027 A 
ENDROOT
BRANCH   8  11
HETATM   11  N3  UNL     1      22.184   1.182  51.209  1.00  0.00    -0.370 N 
HETATM   12  H10 UNL     1      22.557   0.940  50.271  1.00  0.00     0.161 HD
BRANCH  11  13
HETATM   13  C12 UNL     1      21.401   2.406  51.334  1.00  0.00     0.155 C 
BRANCH  13  14
HETATM   14  C13 UNL     1      22.245   3.622  51.483  1.00  0.00    -0.059 A 
HETATM   15  C14 UNL     1      22.184   4.627  50.586  1.00  0.00     0.004 A 
HETATM   16  C15 UNL     1      23.067   5.749  50.863  1.00  0.00    -0.003 A 
HETATM   17  C16 UNL     1      23.678   5.413  51.962  1.00  0.00    -0.022 A 
HETATM   18  C17 UNL     1      23.239   4.065  52.470  1.00  0.00     0.063 A 
ENDBRANCH  13  14
ENDBRANCH  11  13
ENDBRANCH   8  11
BRANCH   1  19
HETATM   19  C5  UNL     1      27.196   1.213  52.329  1.00  0.00     0.169 C 
HETATM   20 BR1  UNL     1      28.268   2.176  53.595  1.00  0.00    -0.072 Br
BRANCH  19  21
HETATM   21  C4  UNL     1      26.693   2.156  51.300  1.00  0.00    -0.086 C 
HETATM   22  C3  UNL     1      26.297   2.909  50.454  1.00  0.00    -0.105 C 
BRANCH  22  23
HETATM   23  C2  UNL     1      25.832   3.838  49.408  1.00  0.00     0.089 C 
HETATM   24  C1  UNL     1      27.015   4.636  48.970  1.00  0.00     0.018 C 
ENDBRANCH  22  23
ENDBRANCH  19  21
ENDBRANCH   1  19
TORSDOF 6
ENDMDL
MODEL 6
REMARK VINA RESULT:      -7.6      2.111      2.811
REMARK  6 active torsions:
REMARK  status: ('A' for Active; 'I' for Inactive)
REMARK    1  A    between atoms: C2_2  and  C3_3 
REMARK    2  A    between atoms: C4_4  and  C5_5 
REMARK    3  A    between atoms: C5_5  and  C6_7 
REMARK    4  A    between atoms: C11_14  and  N3_15 
REMARK    5  A    between atoms: N3_15  and  C12_16 
REMARK    6  A    between atoms: C12_16  and  C13_17 
ROOT
HETATM    1  C6  UNL     1      22.068   0.793  52.099  1.00  0.00    -0.031 A 
HETATM    2  C7  UNL     1      21.815  -0.352  52.825  1.00  0.00     0.011 A 
HETATM    3  C8  UNL     1      22.858  -0.836  53.576  1.00  0.00     0.033 A 
HETATM    4  C9  UNL     1      24.079  -0.208  53.595  1.00  0.00     0.072 A 
HETATM    5  N1  UNL     1      25.095  -0.689  54.334  1.00  0.00    -0.241 NA
HETATM    6  C10 UNL     1      26.303  -0.053  54.342  1.00  0.00     0.235 A 
HETATM    7  N2  UNL     1      26.496   1.059  53.616  1.00  0.00    -0.224 NA
HETATM    8  C11 UNL     1      25.543   1.606  52.855  1.00  0.00     0.137 A 
HETATM    9  C18 UNL     1      24.338   0.936  52.872  1.00  0.00     0.039 A 
HETATM   10  C19 UNL     1      23.293   1.423  52.118  1.00  0.00     0.027 A 
ENDROOT
BRANCH   8  11
HETATM   11  N3  UNL     1      25.804   2.782  52.083  1.00  0.00    -0.370 N 
HETATM   12  H10 UNL     1      25.535   3.740  52.384  1.00  0.00     0.161 HD
BRANCH  11  13
HETATM   13  C12 UNL     1      26.487   2.638  50.804  1.00  0.00     0.155 C 
BRANCH  13  14
HETATM   14  C13 UNL     1      26.432   3.871  49.974  1.00  0.00    -0.059 A 
HETATM   15  C14 UNL     1      25.392   4.723  50.058  1.00  0.00     0.004 A 
HETATM   16  C15 UNL     1      25.478   5.885  49.186  1.00  0.00    -0.003 A 
HETATM   17  C16 UNL     1      26.606   5.729  48.556  1.00  0.00    -0.022 A 
HETATM   18  C17 UNL     1      27.324   4.472  48.972  1.00  0.00     0.063 A 
ENDBRANCH  13  14
ENDBRANCH  11  13
ENDBRANCH   8  11
BRANCH   1  19
HETATM   19  C5  UNL     1      20.942   1.341  51.270  1.00  0.00     0.169 C 
HETATM   20 BR1  UNL     1      20.595   3.193  51.627  1.00  0.00    -0.072 Br
BRANCH  19  21
HETATM   21  C4  UNL     1      19.736   0.546  51.609  1.00  0.00    -0.086 C 
HETATM   22  C3  UNL     1      18.762  -0.091  51.903  1.00  0.00    -0.105 C 
BRANCH  22  23
HETATM   23  C2  UNL     1      17.578  -0.884  52.281  1.00  0.00     0.089 C 
HETATM   24  C1  UNL     1      17.979  -1.756  53.424  1.00  0.00     0.018 C 
ENDBRANCH  22  23
ENDBRANCH  19  21
ENDBRANCH   1  19
TORSDOF 6
ENDMDL
MODEL 7
REMARK VINA RESULT:      -7.6      2.439      5.320
REMARK  6 active torsions:
REMARK  status: ('A' for Active; 'I' for Inactive)
REMARK    1  A    between atoms: C2_2  and  C3_3 
REMARK    2  A    between atoms: C4_4  and  C5_5 
REMARK    3  A    between atoms: C5_5  and  C6_7 
REMARK    4  A    between atoms: C11_14  and  N3_15 
REMARK    5  A    between atoms: N3_15  and  C12_16 
REMARK    6  A    between atoms: C12_16  and  C13_17 
ROOT
HETATM    1  C6  UNL     1      21.996   1.243  52.327  1.00  0.00    -0.031 A 
HETATM    2  C7  UNL     1      20.957   2.135  52.490  1.00  0.00     0.011 A 
HETATM    3  C8  UNL     1      21.228   3.445  52.180  1.00  0.00     0.033 A 
HETATM    4  C9  UNL     1      22.467   3.833  51.733  1.00  0.00     0.072 A 
HETATM    5  N1  UNL     1      22.723   5.119  51.431  1.00  0.00    -0.241 NA
HETATM    6  C10 UNL     1      23.961   5.489  50.988  1.00  0.00     0.235 A 
HETATM    7  N2  UNL     1      24.938   4.580  50.847  1.00  0.00    -0.224 NA
HETATM    8  C11 UNL     1      24.770   3.283  51.123  1.00  0.00     0.137 A 
HETATM    9  C18 UNL     1      23.509   2.948  51.568  1.00  0.00     0.039 A 
HETATM   10  C19 UNL     1      23.239   1.633  51.879  1.00  0.00     0.027 A 
ENDROOT
BRANCH   8  11
HETATM   11  N3  UNL     1      25.849   2.355  50.975  1.00  0.00    -0.370 N 
HETATM   12  H10 UNL     1      25.955   1.719  50.160  1.00  0.00     0.161 HD
BRANCH  11  13
HETATM   13  C12 UNL     1      26.863   2.295  52.021  1.00  0.00     0.155 C 
BRANCH  13  14
HETATM   14  C13 UNL     1      27.216   0.902  52.407  1.00  0.00    -0.059 A 
HETATM   15  C14 UNL     1      26.464  -0.144  52.011  1.00  0.00     0.004 A 
HETATM   16  C15 UNL     1      26.933  -1.444  52.466  1.00  0.00    -0.003 A 
HETATM   17  C16 UNL     1      28.002  -1.174  53.158  1.00  0.00    -0.022 A 
HETATM   18  C17 UNL     1      28.300   0.302  53.197  1.00  0.00     0.063 A 
ENDBRANCH  13  14
ENDBRANCH  11  13
ENDBRANCH   8  11
BRANCH   1  19
HETATM   19  C5  UNL     1      21.722  -0.195  52.661  1.00  0.00     0.169 C 
HETATM   20 BR1  UNL     1      19.963  -0.466  53.377  1.00  0.00    -0.072 Br
BRANCH  19  21
HETATM   21  C4  UNL     1      22.728  -0.596  53.676  1.00  0.00    -0.086 C 
HETATM   22  C3  UNL     1      23.530  -0.937  54.501  1.00  0.00    -0.105 C 
BRANCH  22  23
HETATM   23  C2  UNL     1      24.498  -1.358  55.530  1.00  0.00     0.089 C 
HETATM   24  C1  UNL     1      25.535  -0.288  55.623  1.00  0.00     0.018 C 
ENDBRANCH  22  23
ENDBRANCH  19  21
ENDBRANCH   1  19
TORSDOF 6
ENDMDL
MODEL 8
REMARK VINA RESULT:      -7.6      4.237      6.352
REMARK  6 active torsions:
REMARK  status: ('A' for Active; 'I' for Inactive)
REMARK    1  A    between atoms: C2_2  and  C3_3 
REMARK    2  A    between atoms: C4_4  and  C5_5 
REMARK    3  A    between atoms: C5_5  and  C6_7 
REMARK    4  A    between atoms: C11_14  and  N3_15 
REMARK    5  A    between atoms: N3_15  and  C12_16 
REMARK    6  A    between atoms: C12_16  and  C13_17 
ROOT
HETATM    1  C6  UNL     1      22.709   0.332  53.332  1.00  0.00    -0.031 A 
HETATM    2  C7  UNL     1      22.749  -0.717  54.226  1.00  0.00     0.011 A 
HETATM    3  C8  UNL     1      21.573  -1.404  54.408  1.00  0.00     0.033 A 
HETATM    4  C9  UNL     1      20.430  -1.057  53.732  1.00  0.00     0.072 A 
HETATM    5  N1  UNL     1      19.283  -1.736  53.917  1.00  0.00    -0.241 NA
HETATM    6  C10 UNL     1      18.154  -1.379  53.237  1.00  0.00     0.235 A 
HETATM    7  N2  UNL     1      18.169  -0.349  52.377  1.00  0.00    -0.224 NA
HETATM    8  C11 UNL     1      19.263   0.380  52.133  1.00  0.00     0.137 A 
HETATM    9  C18 UNL     1      20.382  -0.011  52.838  1.00  0.00     0.039 A 
HETATM   10  C19 UNL     1      21.560   0.680  52.654  1.00  0.00     0.027 A 
ENDROOT
BRANCH   8  11
HETATM   11  N3  UNL     1      19.224   1.481  51.221  1.00  0.00    -0.370 N 
HETATM   12  H10 UNL     1      19.114   2.471  51.518  1.00  0.00     0.161 HD
BRANCH  11  13
HETATM   13  C12 UNL     1      19.348   1.209  49.795  1.00  0.00     0.155 C 
BRANCH  13  14
HETATM   14  C13 UNL     1      20.500   1.910  49.167  1.00  0.00    -0.059 A 
HETATM   15  C14 UNL     1      21.474   1.224  48.536  1.00  0.00     0.004 A 
HETATM   16  C15 UNL     1      22.535   2.045  47.972  1.00  0.00    -0.003 A 
HETATM   17  C16 UNL     1      22.190   3.264  48.272  1.00  0.00    -0.022 A 
HETATM   18  C17 UNL     1      20.895   3.319  49.039  1.00  0.00     0.063 A 
ENDBRANCH  13  14
ENDBRANCH  11  13
ENDBRANCH   8  11
BRANCH   1  19
HETATM   19  C5  UNL     1      23.982   1.098  53.117  1.00  0.00     0.169 C 
HETATM   20 BR1  UNL     1      23.929   2.193  51.543  1.00  0.00    -0.072 Br
BRANCH  19  21
HETATM   21  C4  UNL     1      25.065   0.094  52.975  1.00  0.00    -0.086 C 
HETATM   22  C3  UNL     1      25.955  -0.703  52.857  1.00  0.00    -0.105 C 
BRANCH  22  23
HETATM   23  C2  UNL     1      27.053  -1.673  52.692  1.00  0.00     0.089 C 
HETATM   24  C1  UNL     1      28.291  -1.032  53.227  1.00  0.00     0.018 C 
ENDBRANCH  22  23
ENDBRANCH  19  21
ENDBRANCH   1  19
TORSDOF 6
ENDMDL
MODEL 9
REMARK VINA RESULT:      -7.5      2.687      5.791
REMARK  6 active torsions:
REMARK  status: ('A' for Active; 'I' for Inactive)
REMARK    1  A    between atoms: C2_2  and  C3_3 
REMARK    2  A    between atoms: C4_4  and  C5_5 
REMARK    3  A    between atoms: C5_5  and  C6_7 
REMARK    4  A    between atoms: C11_14  and  N3_15 
REMARK    5  A    between atoms: N3_15  and  C12_16 
REMARK    6  A    between atoms: C12_16  and  C13_17 
ROOT
HETATM    1  C6  UNL     1      25.605   1.544  52.319  1.00  0.00    -0.031 A 
HETATM    2  C7  UNL     1      26.663   1.698  51.448  1.00  0.00     0.011 A 
HETATM    3  C8  UNL     1      26.585   2.761  50.581  1.00  0.00     0.033 A 
HETATM    4  C9  UNL     1      25.510   3.615  50.590  1.00  0.00     0.072 A 
HETATM    5  N1  UNL     1      25.442   4.653  49.737  1.00  0.00    -0.241 NA
HETATM    6  C10 UNL     1      24.366   5.493  49.759  1.00  0.00     0.235 A 
HETATM    7  N2  UNL     1      23.362   5.298  50.628  1.00  0.00    -0.224 NA
HETATM    8  C11 UNL     1      23.347   4.293  51.509  1.00  0.00     0.137 A 
HETATM    9  C18 UNL     1      24.450   3.467  51.457  1.00  0.00     0.039 A 
HETATM   10  C19 UNL     1      24.525   2.401  52.327  1.00  0.00     0.027 A 
ENDROOT
BRANCH   8  11
HETATM   11  N3  UNL     1      22.244   4.115  52.402  1.00  0.00    -0.370 N 
HETATM   12  H10 UNL     1      22.341   4.063  53.435  1.00  0.00     0.161 HD
BRANCH  11  13
HETATM   13  C12 UNL     1      20.904   4.003  51.838  1.00  0.00     0.155 C 
BRANCH  13  14
HETATM   14  C13 UNL     1      20.510   2.597  51.553  1.00  0.00    -0.059 A 
HETATM   15  C14 UNL     1      21.263   1.808  50.762  1.00  0.00     0.004 A 
HETATM   16  C15 UNL     1      20.751   0.460  50.575  1.00  0.00    -0.003 A 
HETATM   17  C16 UNL     1      19.654   0.433  51.275  1.00  0.00    -0.022 A 
HETATM   18  C17 UNL     1      19.383   1.747  51.961  1.00  0.00     0.063 A 
ENDBRANCH  13  14
ENDBRANCH  11  13
ENDBRANCH   8  11
BRANCH   1  19
HETATM   19  C5  UNL     1      25.668   0.389  53.276  1.00  0.00     0.169 C 
HETATM   20 BR1  UNL     1      26.736  -1.060  52.614  1.00  0.00    -0.072 Br
BRANCH  19  21
HETATM   21  C4  UNL     1      24.274  -0.082  53.469  1.00  0.00    -0.086 C 
HETATM   22  C3  UNL     1      23.154  -0.481  53.633  1.00  0.00    -0.105 C 
BRANCH  22  23
HETATM   23  C2  UNL     1      21.784  -0.989  53.823  1.00  0.00     0.089 C 
HETATM   24  C1  UNL     1      21.073  -0.022  54.710  1.00  0.00     0.018 C 
ENDBRANCH  22  23
ENDBRANCH  19  21
ENDBRANCH   1  19
TORSDOF 6
ENDMDL
