MODEL 1
REMARK VINA RESULT:      -7.3      0.000      0.000
REMARK  6 active torsions:
REMARK  status: ('A' for Active; 'I' for Inactive)
REMARK    1  A    between atoms: C2_3  and  S1_7 
REMARK    2  A    between atoms: C7_9  and  C8_10 
REMARK    3  A    between atoms: C9_11  and  C10_12 
REMARK    4  A    between atoms: C10_12  and  C11_13 
REMARK    5  A    between atoms: C11_13  and  C12_14 
REMARK    6  A    between atoms: C15_19  and  O1_20 
ROOT
HETATM    1  C12 UNL     1      20.926   0.039  51.915  1.00  0.00     0.070 C 
HETATM    2  C13 UNL     1      19.592  -0.065  52.281  1.00  0.00     0.381 C 
HETATM    3  F1  UNL     1      18.304  -0.209  52.726  1.00  0.00    -0.433 F 
ENDROOT
BRANCH   1   4
HETATM    4  C11 UNL     1      20.680   0.650  50.631  1.00  0.00    -0.015 C 
BRANCH   4   5
HETATM    5  C10 UNL     1      20.958   1.852  50.219  1.00  0.00    -0.004 C 
BRANCH   5   6
HETATM    6  C9  UNL     1      21.665   3.062  50.468  1.00  0.00    -0.004 C 
HETATM    7  C8  UNL     1      22.439   3.201  51.483  1.00  0.00    -0.022 C 
BRANCH   7   8
HETATM    8  C7  UNL     1      23.381   3.961  52.323  1.00  0.00     0.068 C 
HETATM    9  C6  UNL     1      24.252   3.105  52.849  1.00  0.00    -0.041 A 
HETATM   10  S1  UNL     1      24.908   2.457  53.261  1.00  0.00    -0.194 SA
HETATM   11  C1  UNL     1      25.012   2.349  53.329  1.00  0.00     0.049 A 
HETATM   12  C5  UNL     1      25.902   1.508  53.906  1.00  0.00     0.129 A 
HETATM   13  C14 UNL     1      26.802   0.646  54.483  1.00  0.00     0.132 A 
HETATM   14  N1  UNL     1      25.053   2.654  51.631  1.00  0.00     0.000 N 
HETATM   15  C4  UNL     1      25.001   0.366  53.762  1.00  0.00    -0.011 C 
HETATM   16  C3  UNL     1      25.579  -0.219  52.553  1.00  0.00    -0.031 C 
HETATM   17  C2  UNL     1      25.330   1.230  52.046  1.00  0.00     0.072 A 
HETATM   18  N2  UNL     1      27.653   1.342  54.066  1.00  0.00    -0.177 NA
HETATM   19  S2  UNL     1      28.175   0.143  54.799  1.00  0.00    -0.077 SA
HETATM   20  C15 UNL     1      28.741   1.967  53.692  1.00  0.00     0.135 A 
HETATM   21  C16 UNL     1      29.597   1.071  54.238  1.00  0.00     0.103 A 
HETATM   22  H1  UNL     1      25.124   2.901  50.546  1.00  0.00     0.000 HD
HETATM   23  H2  UNL     1      25.619   3.361  50.977  1.00  0.00     0.000 HD
BRANCH  20  24
HETATM   24  O1  UNL     1      29.398   3.080  53.023  1.00  0.00    -0.349 OA
HETATM   25  H14 UNL     1      29.755   3.817  53.636  1.00  0.00     0.218 HD
ENDBRANCH  20  24
ENDBRANCH   7   8
ENDBRANCH   5   6
ENDBRANCH   4   5
ENDBRANCH   1   4
TORSDOF 6
ENDMDL
MODEL 2
REMARK VINA RESULT:      -7.1      3.799      6.916
REMARK  6 active torsions:
REMARK  status: ('A' for Active; 'I' for Inactive)
REMARK    1  A    between atoms: C2_3  and  S1_7 
REMARK    2  A    between atoms: C7_9  and  C8_10 
REMARK    3  A    between atoms: C9_11  and  C10_12 
REMARK    4  A    between atoms: C10_12  and  C11_13 
REMARK    5  A    between atoms: C11_13  and  C12_14 
REMARK    6  A    between atoms: C15_19  and  O1_20 
ROOT
HETATM    1  C12 UNL     1      28.918   0.139  54.554  1.00  0.00     0.070 C 
HETATM    2  C13 UNL     1      28.985   1.475  54.182  1.00  0.00     0.381 C 
HETATM    3  F1  UNL     1      29.147   2.791  53.834  1.00  0.00    -0.433 F 
ENDROOT
BRANCH   1   4
HETATM    4  C11 UNL     1      27.503  -0.010  54.312  1.00  0.00    -0.015 C 
BRANCH   4   5
HETATM    5  C10 UNL     1      26.873  -0.217  53.194  1.00  0.00    -0.004 C 
BRANCH   5   6
HETATM    6  C9  UNL     1      26.348   0.352  51.999  1.00  0.00    -0.004 C 
HETATM    7  C8  UNL     1      26.685   1.525  51.601  1.00  0.00    -0.022 C 
BRANCH   7   8
HETATM    8  C7  UNL     1      26.643   2.655  50.655  1.00  0.00     0.068 C 
HETATM    9  C6  UNL     1      25.385   3.077  50.569  1.00  0.00    -0.041 A 
HETATM   10  S1  UNL     1      24.429   3.392  50.489  1.00  0.00    -0.194 SA
HETATM   11  C1  UNL     1      24.271   3.440  50.477  1.00  0.00     0.049 A 
HETATM   12  C5  UNL     1      23.000   3.882  50.339  1.00  0.00     0.129 A 
HETATM   13  C14 UNL     1      21.706   4.326  50.210  1.00  0.00     0.132 A 
HETATM   14  N1  UNL     1      25.140   3.681  51.948  1.00  0.00     0.000 N 
HETATM   15  C4  UNL     1      22.447   2.603  50.779  1.00  0.00    -0.011 C 
HETATM   16  C3  UNL     1      22.174   2.950  52.173  1.00  0.00    -0.031 C 
HETATM   17  C2  UNL     1      23.680   3.335  52.100  1.00  0.00     0.072 A 
HETATM   18  N2  UNL     1      22.111   5.406  50.444  1.00  0.00    -0.177 NA
HETATM   19  S2  UNL     1      20.626   5.360  50.249  1.00  0.00    -0.077 SA
HETATM   20  C15 UNL     1      22.347   6.670  50.689  1.00  0.00     0.135 A 
HETATM   21  C16 UNL     1      21.053   7.061  50.596  1.00  0.00     0.103 A 
HETATM   22  H1  UNL     1      25.722   3.898  52.874  1.00  0.00     0.000 HD
HETATM   23  H2  UNL     1      25.755   4.515  52.365  1.00  0.00     0.000 HD
BRANCH  20  24
HETATM   24  O1  UNL     1      23.272   7.753  50.986  1.00  0.00    -0.349 OA
HETATM   25  H14 UNL     1      24.220   7.467  51.242  1.00  0.00     0.218 HD
ENDBRANCH  20  24
ENDBRANCH   7   8
ENDBRANCH   5   6
ENDBRANCH   4   5
ENDBRANCH   1   4
TORSDOF 6
ENDMDL
MODEL 3
REMARK VINA RESULT:      -7.0      3.000      5.207
REMARK  6 active torsions:
REMARK  status: ('A' for Active; 'I' for Inactive)
REMARK    1  A    between atoms: C2_3  and  S1_7 
REMARK    2  A    between atoms: C7_9  and  C8_10 
REMARK    3  A    between atoms: C9_11  and  C10_12 
REMARK    4  A    between atoms: C10_12  and  C11_13 
REMARK    5  A    between atoms: C11_13  and  C12_14 
REMARK    6  A    between atoms: C15_19  and  O1_20 
ROOT
HETATM    1  C12 UNL     1      20.476  -0.691  53.841  1.00  0.00     0.070 C 
HETATM    2  C13 UNL     1      20.817   0.590  53.431  1.00  0.00     0.381 C 
HETATM    3  F1  UNL     1      21.060   1.877  53.025  1.00  0.00    -0.433 F 
ENDROOT
BRANCH   1   4
HETATM    4  C11 UNL     1      21.828  -1.192  53.899  1.00  0.00    -0.015 C 
BRANCH   4   5
HETATM    5  C10 UNL     1      22.954  -0.544  53.843  1.00  0.00    -0.004 C 
BRANCH   5   6
HETATM    6  C9  UNL     1      24.278  -0.499  53.322  1.00  0.00    -0.004 C 
HETATM    7  C8  UNL     1      24.830   0.604  52.966  1.00  0.00    -0.022 C 
BRANCH   7   8
HETATM    8  C7  UNL     1      25.952   1.403  52.442  1.00  0.00     0.068 C 
HETATM    9  C6  UNL     1      25.467   2.274  51.563  1.00  0.00    -0.041 A 
HETATM   10  S1  UNL     1      25.105   2.928  50.884  1.00  0.00    -0.194 SA
HETATM   11  C1  UNL     1      25.043   3.033  50.772  1.00  0.00     0.049 A 
HETATM   12  C5  UNL     1      24.594   3.916  49.850  1.00  0.00     0.129 A 
HETATM   13  C14 UNL     1      24.127   4.811  48.919  1.00  0.00     0.132 A 
HETATM   14  N1  UNL     1      24.658   3.222  52.443  1.00  0.00     0.000 N 
HETATM   15  C4  UNL     1      23.401   3.115  49.581  1.00  0.00    -0.011 C 
HETATM   16  C3  UNL     1      22.451   3.850  50.415  1.00  0.00    -0.031 C 
HETATM   17  C2  UNL     1      23.550   3.554  51.475  1.00  0.00     0.072 A 
HETATM   18  N2  UNL     1      24.687   5.650  49.525  1.00  0.00    -0.177 NA
HETATM   19  S2  UNL     1      23.933   6.177  48.341  1.00  0.00    -0.077 SA
HETATM   20  C15 UNL     1      25.223   6.724  50.047  1.00  0.00     0.135 A 
HETATM   21  C16 UNL     1      24.707   7.581  49.134  1.00  0.00     0.103 A 
HETATM   22  H1  UNL     1      24.465   3.384  53.529  1.00  0.00     0.000 HD
HETATM   23  H2  UNL     1      25.106   3.800  53.288  1.00  0.00     0.000 HD
BRANCH  20  24
HETATM   24  O1  UNL     1      26.044   7.366  51.063  1.00  0.00    -0.349 OA
HETATM   25  H14 UNL     1      27.022   7.068  51.095  1.00  0.00     0.218 HD
ENDBRANCH  20  24
ENDBRANCH   7   8
ENDBRANCH   5   6
ENDBRANCH   4   5
ENDBRANCH   1   4
TORSDOF 6
ENDMDL
MODEL 4
REMARK VINA RESULT:      -6.6      2.962      5.043
REMARK  6 active torsions:
REMARK  status: ('A' for Active; 'I' for Inactive)
REMARK    1  A    between atoms: C2_3  and  S1_7 
REMARK    2  A    between atoms: C7_9  and  C8_10 
REMARK    3  A    between atoms: C9_11  and  C10_12 
REMARK    4  A    between atoms: C10_12  and  C11_13 
REMARK    5  A    between atoms: C11_13  and  C12_14 
REMARK    6  A    between atoms: C15_19  and  O1_20 
ROOT
HETATM    1  C12 UNL     1      18.608  -1.346  53.458  1.00  0.00     0.070 C 
HETATM    2  C13 UNL     1      18.183  -0.697  52.307  1.00  0.00     0.381 C 
HETATM    3  F1  UNL     1      17.679  -0.101  51.181  1.00  0.00    -0.433 F 
ENDROOT
BRANCH   1   4
HETATM    4  C11 UNL     1      19.939  -0.787  53.460  1.00  0.00    -0.015 C 
BRANCH   4   5
HETATM    5  C10 UNL     1      21.025  -1.240  54.012  1.00  0.00    -0.004 C 
BRANCH   5   6
HETATM    6  C9  UNL     1      22.435  -1.102  54.158  1.00  0.00    -0.004 C 
HETATM    7  C8  UNL     1      23.090  -0.169  53.568  1.00  0.00    -0.022 C 
BRANCH   7   8
HETATM    8  C7  UNL     1      24.324   0.568  53.246  1.00  0.00     0.068 C 
HETATM    9  C6  UNL     1      24.065   1.393  52.237  1.00  0.00    -0.041 A 
HETATM   10  S1  UNL     1      23.876   2.011  51.461  1.00  0.00    -0.194 SA
HETATM   11  C1  UNL     1      23.842   2.110  51.333  1.00  0.00     0.049 A 
HETATM   12  C5  UNL     1      23.626   2.943  50.289  1.00  0.00     0.129 A 
HETATM   13  C14 UNL     1      23.395   3.789  49.231  1.00  0.00     0.132 A 
HETATM   14  N1  UNL     1      23.125   2.413  52.873  1.00  0.00     0.000 N 
HETATM   15  C4  UNL     1      22.487   2.155  49.822  1.00  0.00    -0.011 C 
HETATM   16  C3  UNL     1      21.412   2.964  50.394  1.00  0.00    -0.031 C 
HETATM   17  C2  UNL     1      22.255   2.709  51.677  1.00  0.00     0.072 A 
HETATM   18  N2  UNL     1      23.847   4.651  49.892  1.00  0.00    -0.177 NA
HETATM   19  S2  UNL     1      23.376   5.120  48.549  1.00  0.00    -0.077 SA
HETATM   20  C15 UNL     1      24.302   5.743  50.453  1.00  0.00     0.135 A 
HETATM   21  C16 UNL     1      24.018   6.552  49.405  1.00  0.00     0.103 A 
HETATM   22  H1  UNL     1      22.717   2.648  53.883  1.00  0.00     0.000 HD
HETATM   23  H2  UNL     1      23.408   3.033  53.759  1.00  0.00     0.000 HD
BRANCH  20  24
HETATM   24  O1  UNL     1      24.916   6.428  51.580  1.00  0.00    -0.349 OA
HETATM   25  H14 UNL     1      24.417   7.254  51.921  1.00  0.00     0.218 HD
ENDBRANCH  20  24
ENDBRANCH   7   8
ENDBRANCH   5   6
ENDBRANCH   4   5
ENDBRANCH   1   4
TORSDOF 6
ENDMDL
MODEL 5
REMARK VINA RESULT:      -6.5      6.762      7.798
REMARK  6 active torsions:
REMARK  status: ('A' for Active; 'I' for Inactive)
REMARK    1  A    between atoms: C2_3  and  S1_7 
REMARK    2  A    between atoms: C7_9  and  C8_10 
REMARK    3  A    between atoms: C9_11  and  C10_12 
REMARK    4  A    between atoms: C10_12  and  C11_13 
REMARK    5  A    between atoms: C11_13  and  C12_14 
REMARK    6  A    between atoms: C15_19  and  O1_20 
ROOT
HETATM    1  C12 UNL     1      21.161   8.719  49.405  1.00  0.00     0.070 C 
HETATM    2  C13 UNL     1      21.248   7.660  50.297  1.00  0.00     0.381 C 
HETATM    3  F1  UNL     1      21.238   6.612  51.180  1.00  0.00    -0.433 F 
ENDROOT
BRANCH   1   4
HETATM    4  C11 UNL     1      22.585   8.901  49.252  1.00  0.00    -0.015 C 
BRANCH   4   5
HETATM    5  C10 UNL     1      23.375   8.487  48.307  1.00  0.00    -0.004 C 
BRANCH   5   6
HETATM    6  C9  UNL     1      24.525   7.720  47.965  1.00  0.00    -0.004 C 
HETATM    7  C8  UNL     1      24.876   6.686  48.640  1.00  0.00    -0.022 C 
BRANCH   7   8
HETATM    8  C7  UNL     1      25.748   5.531  48.915  1.00  0.00     0.068 C 
HETATM    9  C6  UNL     1      26.983   5.842  48.532  1.00  0.00    -0.041 A 
HETATM   10  S1  UNL     1      27.919   6.068  48.229  1.00  0.00    -0.194 SA
HETATM   11  C1  UNL     1      28.071   6.107  48.177  1.00  0.00     0.049 A 
HETATM   12  C5  UNL     1      29.335   6.374  47.775  1.00  0.00     0.129 A 
HETATM   13  C14 UNL     1      30.616   6.657  47.366  1.00  0.00     0.132 A 
HETATM   14  N1  UNL     1      27.385   6.915  49.539  1.00  0.00     0.000 N 
HETATM   15  C4  UNL     1      28.881   7.397  46.835  1.00  0.00    -0.011 C 
HETATM   16  C3  UNL     1      29.137   8.579  47.657  1.00  0.00    -0.031 C 
HETATM   17  C2  UNL     1      28.252   7.764  48.644  1.00  0.00     0.072 A 
HETATM   18  N2  UNL     1      30.971   6.331  48.440  1.00  0.00    -0.177 NA
HETATM   19  S2  UNL     1      32.092   6.799  47.561  1.00  0.00    -0.077 SA
HETATM   20  C15 UNL     1      31.572   6.026  49.562  1.00  0.00     0.135 A 
HETATM   21  C16 UNL     1      32.815   6.357  49.135  1.00  0.00     0.103 A 
HETATM   22  H1  UNL     1      26.968   7.387  50.459  1.00  0.00     0.000 HD
HETATM   23  H2  UNL     1      27.402   6.739  50.642  1.00  0.00     0.000 HD
BRANCH  20  24
HETATM   24  O1  UNL     1      31.528   5.538  50.932  1.00  0.00    -0.349 OA
HETATM   25  H14 UNL     1      30.900   6.045  51.561  1.00  0.00     0.218 HD
ENDBRANCH  20  24
ENDBRANCH   7   8
ENDBRANCH   5   6
ENDBRANCH   4   5
ENDBRANCH   1   4
TORSDOF 6
ENDMDL
MODEL 6
REMARK VINA RESULT:      -6.5      9.014     10.856
REMARK  6 active torsions:
REMARK  status: ('A' for Active; 'I' for Inactive)
REMARK    1  A    between atoms: C2_3  and  S1_7 
REMARK    2  A    between atoms: C7_9  and  C8_10 
REMARK    3  A    between atoms: C9_11  and  C10_12 
REMARK    4  A    between atoms: C10_12  and  C11_13 
REMARK    5  A    between atoms: C11_13  and  C12_14 
REMARK    6  A    between atoms: C15_19  and  O1_20 
ROOT
HETATM    1  C12 UNL     1      31.704   2.625  46.583  1.00  0.00     0.070 C 
HETATM    2  C13 UNL     1      31.950   1.259  46.572  1.00  0.00     0.381 C 
HETATM    3  F1  UNL     1      32.097  -0.103  46.568  1.00  0.00    -0.433 F 
ENDROOT
BRANCH   1   4
HETATM    4  C11 UNL     1      33.088   3.025  46.489  1.00  0.00    -0.015 C 
BRANCH   4   5
HETATM    5  C10 UNL     1      33.635   4.177  46.742  1.00  0.00    -0.004 C 
BRANCH   5   6
HETATM    6  C9  UNL     1      33.538   5.415  47.438  1.00  0.00    -0.004 C 
HETATM    7  C8  UNL     1      32.859   5.533  48.521  1.00  0.00    -0.022 C 
BRANCH   7   8
HETATM    8  C7  UNL     1      32.341   6.296  49.671  1.00  0.00     0.068 C 
HETATM    9  C6  UNL     1      31.406   7.131  49.229  1.00  0.00    -0.041 A 
HETATM   10  S1  UNL     1      30.705   7.777  48.896  1.00  0.00    -0.194 SA
HETATM   11  C1  UNL     1      30.592   7.883  48.838  1.00  0.00     0.049 A 
HETATM   12  C5  UNL     1      29.654   8.766  48.425  1.00  0.00     0.129 A 
HETATM   13  C14 UNL     1      28.701   9.657  47.995  1.00  0.00     0.132 A 
HETATM   14  N1  UNL     1      30.282   6.186  48.819  1.00  0.00     0.000 N 
HETATM   15  C4  UNL     1      30.177   8.770  47.060  1.00  0.00    -0.011 C 
HETATM   16  C3  UNL     1      29.229   7.832  46.460  1.00  0.00    -0.031 C 
HETATM   17  C2  UNL     1      29.736   6.963  47.647  1.00  0.00     0.072 A 
HETATM   18  N2  UNL     1      27.992   9.214  48.824  1.00  0.00    -0.177 NA
HETATM   19  S2  UNL     1      27.340  10.279  47.995  1.00  0.00    -0.077 SA
HETATM   20  C15 UNL     1      27.051   8.864  49.664  1.00  0.00     0.135 A 
HETATM   21  C16 UNL     1      26.124   9.726  49.183  1.00  0.00     0.103 A 
HETATM   22  H1  UNL     1      30.054   5.095  48.869  1.00  0.00     0.000 HD
HETATM   23  H2  UNL     1      29.797   5.471  49.528  1.00  0.00     0.000 HD
BRANCH  20  24
HETATM   24  O1  UNL     1      26.582   8.051  50.776  1.00  0.00    -0.349 OA
HETATM   25  H14 UNL     1      26.858   8.375  51.707  1.00  0.00     0.218 HD
ENDBRANCH  20  24
ENDBRANCH   7   8
ENDBRANCH   5   6
ENDBRANCH   4   5
ENDBRANCH   1   4
TORSDOF 6
ENDMDL
MODEL 7
REMARK VINA RESULT:      -6.5      4.563      7.662
REMARK  6 active torsions:
REMARK  status: ('A' for Active; 'I' for Inactive)
REMARK    1  A    between atoms: C2_3  and  S1_7 
REMARK    2  A    between atoms: C7_9  and  C8_10 
REMARK    3  A    between atoms: C9_11  and  C10_12 
REMARK    4  A    between atoms: C10_12  and  C11_13 
REMARK    5  A    between atoms: C11_13  and  C12_14 
REMARK    6  A    between atoms: C15_19  and  O1_20 
ROOT
HETATM    1  C12 UNL     1      27.798   0.831  52.854  1.00  0.00     0.070 C 
HETATM    2  C13 UNL     1      28.281   0.320  54.050  1.00  0.00     0.381 C 
HETATM    3  F1  UNL     1      28.816  -0.107  55.238  1.00  0.00    -0.433 F 
ENDROOT
BRANCH   1   4
HETATM    4  C11 UNL     1      26.885  -0.255  52.587  1.00  0.00    -0.015 C 
BRANCH   4   5
HETATM    5  C10 UNL     1      25.853  -0.653  53.270  1.00  0.00    -0.004 C 
BRANCH   5   6
HETATM    6  C9  UNL     1      24.795  -0.292  54.152  1.00  0.00    -0.004 C 
HETATM    7  C8  UNL     1      23.578  -0.633  53.928  1.00  0.00    -0.022 C 
BRANCH   7   8
HETATM    8  C7  UNL     1      22.145  -0.685  54.266  1.00  0.00     0.068 C 
HETATM    9  C6  UNL     1      21.530   0.302  53.620  1.00  0.00    -0.041 A 
HETATM   10  S1  UNL     1      21.062   1.058  53.143  1.00  0.00    -0.194 SA
HETATM   11  C1  UNL     1      20.988   1.184  53.065  1.00  0.00     0.049 A 
HETATM   12  C5  UNL     1      20.330   2.192  52.447  1.00  0.00     0.129 A 
HETATM   13  C14 UNL     1      19.670   3.216  51.812  1.00  0.00     0.132 A 
HETATM   14  N1  UNL     1      21.630  -0.140  52.163  1.00  0.00     0.000 N 
HETATM   15  C4  UNL     1      21.551   2.983  52.312  1.00  0.00    -0.011 C 
HETATM   16  C3  UNL     1      21.875   2.651  50.925  1.00  0.00    -0.031 C 
HETATM   17  C2  UNL     1      21.758   1.216  51.515  1.00  0.00     0.072 A 
HETATM   18  N2  UNL     1      18.919   2.407  51.405  1.00  0.00    -0.177 NA
HETATM   19  S2  UNL     1      18.618   3.793  50.919  1.00  0.00    -0.077 SA
HETATM   20  C15 UNL     1      17.986   1.679  50.846  1.00  0.00     0.135 A 
HETATM   21  C16 UNL     1      17.389   2.710  50.201  1.00  0.00     0.103 A 
HETATM   22  H1  UNL     1      21.984  -1.027  51.587  1.00  0.00     0.000 HD
HETATM   23  H2  UNL     1      21.213  -1.107  51.790  1.00  0.00     0.000 HD
BRANCH  20  24
HETATM   24  O1  UNL     1      17.349   0.391  50.617  1.00  0.00    -0.349 OA
HETATM   25  H14 UNL     1      17.844  -0.420  50.997  1.00  0.00     0.218 HD
ENDBRANCH  20  24
ENDBRANCH   7   8
ENDBRANCH   5   6
ENDBRANCH   4   5
ENDBRANCH   1   4
TORSDOF 6
ENDMDL
MODEL 8
REMARK VINA RESULT:      -6.5      2.413      2.917
REMARK  6 active torsions:
REMARK  status: ('A' for Active; 'I' for Inactive)
REMARK    1  A    between atoms: C2_3  and  S1_7 
REMARK    2  A    between atoms: C7_9  and  C8_10 
REMARK    3  A    between atoms: C9_11  and  C10_12 
REMARK    4  A    between atoms: C10_12  and  C11_13 
REMARK    5  A    between atoms: C11_13  and  C12_14 
REMARK    6  A    between atoms: C15_19  and  O1_20 
ROOT
HETATM    1  C12 UNL     1      20.448   4.541  47.715  1.00  0.00     0.070 C 
HETATM    2  C13 UNL     1      21.249   3.894  46.784  1.00  0.00     0.381 C 
HETATM    3  F1  UNL     1      22.017   3.325  45.802  1.00  0.00    -0.433 F 
ENDROOT
BRANCH   1   4
HETATM    4  C11 UNL     1      20.654   3.585  48.777  1.00  0.00    -0.015 C 
BRANCH   4   5
HETATM    5  C10 UNL     1      20.682   3.772  50.063  1.00  0.00    -0.004 C 
BRANCH   5   6
HETATM    6  C9  UNL     1      21.393   3.575  51.281  1.00  0.00    -0.004 C 
HETATM    7  C8  UNL     1      22.303   4.390  51.675  1.00  0.00    -0.022 C 
BRANCH   7   8
HETATM    8  C7  UNL     1      23.322   4.860  52.630  1.00  0.00     0.068 C 
HETATM    9  C6  UNL     1      24.083   3.824  52.968  1.00  0.00    -0.041 A 
HETATM   10  S1  UNL     1      24.655   3.037  53.239  1.00  0.00    -0.194 SA
HETATM   11  C1  UNL     1      24.746   2.906  53.282  1.00  0.00     0.049 A 
HETATM   12  C5  UNL     1      25.527   1.873  53.673  1.00  0.00     0.129 A 
HETATM   13  C14 UNL     1      26.316   0.817  54.061  1.00  0.00     0.132 A 
HETATM   14  N1  UNL     1      24.833   3.525  51.674  1.00  0.00     0.000 N 
HETATM   15  C4  UNL     1      24.499   0.892  53.329  1.00  0.00    -0.011 C 
HETATM   16  C3  UNL     1      25.013   0.487  52.021  1.00  0.00    -0.031 C 
HETATM   17  C2  UNL     1      24.939   2.026  51.804  1.00  0.00     0.072 A 
HETATM   18  N2  UNL     1      27.246   1.477  53.771  1.00  0.00    -0.177 NA
HETATM   19  S2  UNL     1      27.618   0.107  54.252  1.00  0.00    -0.077 SA
HETATM   20  C15 UNL     1      28.402   2.031  53.507  1.00  0.00     0.135 A 
HETATM   21  C16 UNL     1      29.143   0.953  53.857  1.00  0.00     0.103 A 
HETATM   22  H1  UNL     1      24.940   3.966  50.656  1.00  0.00     0.000 HD
HETATM   23  H2  UNL     1      25.482   4.274  51.159  1.00  0.00     0.000 HD
BRANCH  20  24
HETATM   24  O1  UNL     1      29.189   3.167  53.052  1.00  0.00    -0.349 OA
HETATM   25  H14 UNL     1      29.326   3.234  52.040  1.00  0.00     0.218 HD
ENDBRANCH  20  24
ENDBRANCH   7   8
ENDBRANCH   5   6
ENDBRANCH   4   5
ENDBRANCH   1   4
TORSDOF 6
ENDMDL
MODEL 9
REMARK VINA RESULT:      -6.5      4.319      6.018
REMARK  6 active torsions:
REMARK  status: ('A' for Active; 'I' for Inactive)
REMARK    1  A    between atoms: C2_3  and  S1_7 
REMARK    2  A    between atoms: C7_9  and  C8_10 
REMARK    3  A    between atoms: C9_11  and  C10_12 
REMARK    4  A    between atoms: C10_12  and  C11_13 
REMARK    5  A    between atoms: C11_13  and  C12_14 
REMARK    6  A    between atoms: C15_19  and  O1_20 
ROOT
HETATM    1  C12 UNL     1      26.299   8.653  49.403  1.00  0.00     0.070 C 
HETATM    2  C13 UNL     1      25.026   8.502  49.934  1.00  0.00     0.381 C 
HETATM    3  F1  UNL     1      23.765   8.448  50.468  1.00  0.00    -0.433 F 
ENDROOT
BRANCH   1   4
HETATM    4  C11 UNL     1      26.549   7.244  49.213  1.00  0.00    -0.015 C 
BRANCH   4   5
HETATM    5  C10 UNL     1      25.831   6.221  49.572  1.00  0.00    -0.004 C 
BRANCH   5   6
HETATM    6  C9  UNL     1      25.492   4.859  49.332  1.00  0.00    -0.004 C 
HETATM    7  C8  UNL     1      24.285   4.433  49.424  1.00  0.00    -0.022 C 
BRANCH   7   8
HETATM    8  C7  UNL     1      23.251   3.387  49.343  1.00  0.00     0.068 C 
HETATM    9  C6  UNL     1      23.453   2.525  50.335  1.00  0.00    -0.041 A 
HETATM   10  S1  UNL     1      23.611   1.861  51.079  1.00  0.00    -0.194 SA
HETATM   11  C1  UNL     1      23.640   1.753  51.200  1.00  0.00     0.049 A 
HETATM   12  C5  UNL     1      23.827   0.838  52.180  1.00  0.00     0.129 A 
HETATM   13  C14 UNL     1      24.024  -0.082  53.180  1.00  0.00     0.132 A 
HETATM   14  N1  UNL     1      23.109   3.352  51.570  1.00  0.00     0.000 N 
HETATM   15  C4  UNL     1      25.240   1.187  52.314  1.00  0.00    -0.011 C 
HETATM   16  C3  UNL     1      25.138   2.072  53.474  1.00  0.00    -0.031 C 
HETATM   17  C2  UNL     1      24.098   2.751  52.538  1.00  0.00     0.072 A 
HETATM   18  N2  UNL     1      22.895   0.073  53.471  1.00  0.00    -0.177 NA
HETATM   19  S2  UNL     1      23.610  -0.890  54.369  1.00  0.00    -0.077 SA
HETATM   20  C15 UNL     1      21.681   0.101  53.960  1.00  0.00     0.135 A 
HETATM   21  C16 UNL     1      21.926  -0.778  54.961  1.00  0.00     0.103 A 
HETATM   22  H1  UNL     1      22.702   4.363  51.805  1.00  0.00     0.000 HD
HETATM   23  H2  UNL     1      22.111   3.828  51.726  1.00  0.00     0.000 HD
BRANCH  20  24
HETATM   24  O1  UNL     1      20.312   0.594  53.928  1.00  0.00    -0.349 OA
HETATM   25  H14 UNL     1      19.586  -0.104  54.113  1.00  0.00     0.218 HD
ENDBRANCH  20  24
ENDBRANCH   7   8
ENDBRANCH   5   6
ENDBRANCH   4   5
ENDBRANCH   1   4
TORSDOF 6
ENDMDL
