MODEL 1
REMARK VINA RESULT:      -8.2      0.000      0.000
REMARK  0 active torsions:
REMARK  status: ('A' for Active; 'I' for Inactive)
ROOT
HETATM    1  F1  UNL     1      21.918  -2.276  53.970  1.00  0.00    -0.206 F 
HETATM    2  C1  UNL     1      22.279  -1.044  53.553  1.00  0.00     0.117 A 
HETATM    3  C2  UNL     1      21.355  -0.129  53.153  1.00  0.00     0.043 A 
HETATM    4  C3  UNL     1      21.674   1.121  52.728  1.00  0.00     0.012 A 
HETATM    5  C4  UNL     1      22.972   1.512  52.685  1.00  0.00    -0.038 A 
HETATM    6  C5  UNL     1      24.025   0.622  53.086  1.00  0.00    -0.030 A 
HETATM    7  C6  UNL     1      23.594  -0.656  53.513  1.00  0.00     0.051 A 
HETATM    8  C7  UNL     1      25.496   0.616  53.196  1.00  0.00     0.160 C 
HETATM    9  N1  UNL     1      26.206   1.581  52.370  1.00  0.00    -0.372 N 
HETATM   10  C8  UNL     1      25.748   2.572  51.495  1.00  0.00     0.094 C 
HETATM   11  C9  UNL     1      24.468   2.528  51.283  1.00  0.00     0.035 C 
HETATM   12  C10 UNL     1      23.269   2.803  52.262  1.00  0.00     0.079 C 
HETATM   13  C11 UNL     1      22.637   3.822  51.497  1.00  0.00    -0.039 C 
HETATM   14  C12 UNL     1      22.738   5.127  51.953  1.00  0.00     0.058 C 
HETATM   15  S1  UNL     1      24.220   5.868  51.149  1.00  0.00    -0.104 SA
HETATM   16  C13 UNL     1      24.667   4.850  49.696  1.00  0.00     0.000 C 
HETATM   17  C14 UNL     1      23.793   4.565  48.679  1.00  0.00     0.016 C 
HETATM   18  C15 UNL     1      22.379   4.085  48.979  1.00  0.00     0.002 C 
HETATM   19  C16 UNL     1      21.986   3.530  50.184  1.00  0.00     0.009 C 
HETATM   20  C17 UNL     1      26.016   4.173  49.526  1.00  0.00     0.167 C 
HETATM   21  N2  UNL     1      26.416   3.607  50.833  1.00  0.00    -0.372 N 
HETATM   22  H6  UNL     1      27.242   1.676  52.322  1.00  0.00     0.161 HD
HETATM   23  H15 UNL     1      27.176   3.796  51.497  1.00  0.00     0.161 HD
ENDROOT
TORSDOF 0
ENDMDL
MODEL 2
REMARK VINA RESULT:      -8.2      2.901      4.445
REMARK  0 active torsions:
REMARK  status: ('A' for Active; 'I' for Inactive)
ROOT
HETATM    1  F1  UNL     1      29.157   0.752  54.655  1.00  0.00    -0.206 F 
HETATM    2  C1  UNL     1      28.008   0.940  53.970  1.00  0.00     0.117 A 
HETATM    3  C2  UNL     1      27.877   1.949  53.066  1.00  0.00     0.043 A 
HETATM    4  C3  UNL     1      26.741   2.173  52.355  1.00  0.00     0.012 A 
HETATM    5  C4  UNL     1      25.661   1.371  52.532  1.00  0.00    -0.038 A 
HETATM    6  C5  UNL     1      25.697   0.279  53.461  1.00  0.00    -0.030 A 
HETATM    7  C6  UNL     1      26.921   0.125  54.153  1.00  0.00     0.051 A 
HETATM    8  C7  UNL     1      24.810  -0.793  53.955  1.00  0.00     0.160 C 
HETATM    9  N1  UNL     1      23.381  -0.567  53.799  1.00  0.00    -0.372 N 
HETATM   10  C8  UNL     1      22.663   0.484  53.217  1.00  0.00     0.094 C 
HETATM   11  C9  UNL     1      23.403   1.496  52.880  1.00  0.00     0.035 C 
HETATM   12  C10 UNL     1      24.518   1.614  51.777  1.00  0.00     0.079 C 
HETATM   13  C11 UNL     1      23.952   2.704  51.060  1.00  0.00    -0.039 C 
HETATM   14  C12 UNL     1      23.375   2.435  49.829  1.00  0.00     0.058 C 
HETATM   15  S1  UNL     1      21.589   2.103  50.129  1.00  0.00    -0.104 SA
HETATM   16  C13 UNL     1      21.140   2.763  51.774  1.00  0.00     0.000 C 
HETATM   17  C14 UNL     1      21.345   4.067  52.144  1.00  0.00     0.016 C 
HETATM   18  C15 UNL     1      22.682   4.749  51.883  1.00  0.00     0.002 C 
HETATM   19  C16 UNL     1      23.866   4.074  51.650  1.00  0.00     0.009 C 
HETATM   20  C17 UNL     1      20.572   1.910  52.896  1.00  0.00     0.167 C 
HETATM   21  N2  UNL     1      21.305   0.626  52.916  1.00  0.00    -0.372 N 
HETATM   22  H6  UNL     1      22.637  -1.219  54.122  1.00  0.00     0.161 HD
HETATM   23  H15 UNL     1      21.047  -0.353  52.741  1.00  0.00     0.161 HD
ENDROOT
TORSDOF 0
ENDMDL
MODEL 3
REMARK VINA RESULT:      -8.1      2.227      3.387
REMARK  0 active torsions:
REMARK  status: ('A' for Active; 'I' for Inactive)
ROOT
HETATM    1  F1  UNL     1      27.783  -1.176  53.346  1.00  0.00    -0.206 F 
HETATM    2  C1  UNL     1      26.758  -0.384  52.968  1.00  0.00     0.117 A 
HETATM    3  C2  UNL     1      25.470  -0.684  53.293  1.00  0.00     0.043 A 
HETATM    4  C3  UNL     1      24.409   0.085  52.933  1.00  0.00     0.012 A 
HETATM    5  C4  UNL     1      24.606   1.217  52.212  1.00  0.00    -0.038 A 
HETATM    6  C5  UNL     1      25.924   1.622  51.818  1.00  0.00    -0.030 A 
HETATM    7  C6  UNL     1      26.963   0.759  52.238  1.00  0.00     0.051 A 
HETATM    8  C7  UNL     1      26.577   2.713  51.068  1.00  0.00     0.160 C 
HETATM    9  N1  UNL     1      25.737   3.435  50.124  1.00  0.00    -0.372 N 
HETATM   10  C8  UNL     1      24.379   3.319  49.808  1.00  0.00     0.094 C 
HETATM   11  C9  UNL     1      23.803   2.294  50.359  1.00  0.00     0.035 C 
HETATM   12  C10 UNL     1      23.502   1.994  51.874  1.00  0.00     0.079 C 
HETATM   13  C11 UNL     1      22.097   1.813  51.749  1.00  0.00    -0.039 C 
HETATM   14  C12 UNL     1      21.273   2.816  52.236  1.00  0.00     0.058 C 
HETATM   15  S1  UNL     1      20.940   3.969  50.840  1.00  0.00    -0.104 SA
HETATM   16  C13 UNL     1      21.335   3.117  49.271  1.00  0.00     0.000 C 
HETATM   17  C14 UNL     1      20.781   1.917  48.906  1.00  0.00     0.016 C 
HETATM   18  C15 UNL     1      20.719   0.756  49.890  1.00  0.00     0.002 C 
HETATM   19  C16 UNL     1      21.515   0.649  51.016  1.00  0.00     0.009 C 
HETATM   20  C17 UNL     1      22.363   3.623  48.274  1.00  0.00     0.167 C 
HETATM   21  N2  UNL     1      23.535   4.116  49.030  1.00  0.00    -0.372 N 
HETATM   22  H6  UNL     1      26.064   4.208  49.508  1.00  0.00     0.161 HD
HETATM   23  H15 UNL     1      23.972   5.037  49.161  1.00  0.00     0.161 HD
ENDROOT
TORSDOF 0
ENDMDL
MODEL 4
REMARK VINA RESULT:      -7.5      2.353      3.409
REMARK  0 active torsions:
REMARK  status: ('A' for Active; 'I' for Inactive)
ROOT
HETATM    1  F1  UNL     1      17.018  -2.151  52.760  1.00  0.00    -0.206 F 
HETATM    2  C1  UNL     1      18.007  -1.231  52.736  1.00  0.00     0.117 A 
HETATM    3  C2  UNL     1      17.905  -0.098  51.989  1.00  0.00     0.043 A 
HETATM    4  C3  UNL     1      18.874   0.854  51.936  1.00  0.00     0.012 A 
HETATM    5  C4  UNL     1      20.016   0.698  52.651  1.00  0.00    -0.038 A 
HETATM    6  C5  UNL     1      20.222  -0.461  53.471  1.00  0.00    -0.030 A 
HETATM    7  C6  UNL     1      19.158  -1.394  53.461  1.00  0.00     0.051 A 
HETATM    8  C7  UNL     1      21.251  -1.022  54.368  1.00  0.00     0.160 C 
HETATM    9  N1  UNL     1      22.609  -0.540  54.168  1.00  0.00    -0.372 N 
HETATM   10  C8  UNL     1      23.139   0.411  53.290  1.00  0.00     0.094 C 
HETATM   11  C9  UNL     1      22.287   0.837  52.408  1.00  0.00     0.035 C 
HETATM   12  C10 UNL     1      20.983   1.697  52.592  1.00  0.00     0.079 C 
HETATM   13  C11 UNL     1      21.336   2.757  51.712  1.00  0.00    -0.039 C 
HETATM   14  C12 UNL     1      21.692   3.971  52.277  1.00  0.00     0.058 C 
HETATM   15  S1  UNL     1      23.520   3.952  52.496  1.00  0.00    -0.104 SA
HETATM   16  C13 UNL     1      24.222   2.641  51.432  1.00  0.00     0.000 C 
HETATM   17  C14 UNL     1      24.006   2.572  50.080  1.00  0.00     0.016 C 
HETATM   18  C15 UNL     1      22.604   2.728  49.506  1.00  0.00     0.002 C 
HETATM   19  C16 UNL     1      21.442   2.552  50.236  1.00  0.00     0.009 C 
HETATM   20  C17 UNL     1      25.041   1.475  51.962  1.00  0.00     0.167 C 
HETATM   21  N2  UNL     1      24.407   0.997  53.209  1.00  0.00    -0.372 N 
HETATM   22  H6  UNL     1      23.440  -0.863  54.705  1.00  0.00     0.161 HD
HETATM   23  H15 UNL     1      24.689   0.971  54.197  1.00  0.00     0.161 HD
ENDROOT
TORSDOF 0
ENDMDL
MODEL 5
REMARK VINA RESULT:      -7.3      4.298      6.672
REMARK  0 active torsions:
REMARK  status: ('A' for Active; 'I' for Inactive)
ROOT
HETATM    1  F1  UNL     1      29.183   7.313  47.478  1.00  0.00    -0.206 F 
HETATM    2  C1  UNL     1      28.159   6.798  48.192  1.00  0.00     0.117 A 
HETATM    3  C2  UNL     1      27.924   5.458  48.231  1.00  0.00     0.043 A 
HETATM    4  C3  UNL     1      26.906   4.898  48.936  1.00  0.00     0.012 A 
HETATM    5  C4  UNL     1      26.061   5.684  49.648  1.00  0.00    -0.038 A 
HETATM    6  C5  UNL     1      26.223   7.110  49.673  1.00  0.00    -0.030 A 
HETATM    7  C6  UNL     1      27.309   7.599  48.910  1.00  0.00     0.051 A 
HETATM    8  C7  UNL     1      25.577   8.293  50.273  1.00  0.00     0.160 C 
HETATM    9  N1  UNL     1      24.187   8.134  50.671  1.00  0.00    -0.372 N 
HETATM   10  C8  UNL     1      23.328   7.029  50.632  1.00  0.00     0.094 C 
HETATM   11  C9  UNL     1      23.824   6.007  50.004  1.00  0.00     0.035 C 
HETATM   12  C10 UNL     1      25.039   5.081  50.375  1.00  0.00     0.079 C 
HETATM   13  C11 UNL     1      24.338   3.843  50.361  1.00  0.00    -0.039 C 
HETATM   14  C12 UNL     1      24.070   3.242  51.580  1.00  0.00     0.058 C 
HETATM   15  S1  UNL     1      22.409   3.827  52.119  1.00  0.00    -0.104 SA
HETATM   16  C13 UNL     1      21.530   4.508  50.667  1.00  0.00     0.000 C 
HETATM   17  C14 UNL     1      21.321   3.799  49.512  1.00  0.00     0.016 C 
HETATM   18  C15 UNL     1      22.456   3.022  48.859  1.00  0.00     0.002 C 
HETATM   19  C16 UNL     1      23.798   3.259  49.096  1.00  0.00     0.009 C 
HETATM   20  C17 UNL     1      21.023   5.938  50.585  1.00  0.00     0.167 C 
HETATM   21  N2  UNL     1      22.052   6.826  51.167  1.00  0.00    -0.372 N 
HETATM   22  H6  UNL     1      23.595   8.886  51.082  1.00  0.00     0.161 HD
HETATM   23  H15 UNL     1      22.093   7.437  51.991  1.00  0.00     0.161 HD
ENDROOT
TORSDOF 0
ENDMDL
MODEL 6
REMARK VINA RESULT:      -7.3      2.732      3.945
REMARK  0 active torsions:
REMARK  status: ('A' for Active; 'I' for Inactive)
ROOT
HETATM    1  F1  UNL     1      26.112  -0.884  55.140  1.00  0.00    -0.206 F 
HETATM    2  C1  UNL     1      25.336  -0.260  54.229  1.00  0.00     0.117 A 
HETATM    3  C2  UNL     1      25.848   0.670  53.377  1.00  0.00     0.043 A 
HETATM    4  C3  UNL     1      25.105   1.322  52.445  1.00  0.00     0.012 A 
HETATM    5  C4  UNL     1      23.779   1.058  52.330  1.00  0.00    -0.038 A 
HETATM    6  C5  UNL     1      23.142   0.094  53.181  1.00  0.00    -0.030 A 
HETATM    7  C6  UNL     1      23.997  -0.532  54.118  1.00  0.00     0.051 A 
HETATM    8  C7  UNL     1      21.801  -0.482  53.402  1.00  0.00     0.160 C 
HETATM    9  N1  UNL     1      20.675   0.319  52.945  1.00  0.00    -0.372 N 
HETATM   10  C8  UNL     1      20.617   1.548  52.279  1.00  0.00     0.094 C 
HETATM   11  C9  UNL     1      21.768   2.138  52.174  1.00  0.00     0.035 C 
HETATM   12  C10 UNL     1      23.047   1.727  51.355  1.00  0.00     0.079 C 
HETATM   13  C11 UNL     1      23.169   2.922  50.593  1.00  0.00    -0.039 C 
HETATM   14  C12 UNL     1      22.827   2.867  49.251  1.00  0.00     0.058 C 
HETATM   15  S1  UNL     1      21.050   3.333  49.126  1.00  0.00    -0.104 SA
HETATM   16  C13 UNL     1      20.561   4.191  50.665  1.00  0.00     0.000 C 
HETATM   17  C14 UNL     1      21.205   5.302  51.145  1.00  0.00     0.016 C 
HETATM   18  C15 UNL     1      22.725   5.345  51.228  1.00  0.00     0.002 C 
HETATM   19  C16 UNL     1      23.536   4.224  51.226  1.00  0.00     0.009 C 
HETATM   20  C17 UNL     1      19.450   3.707  51.582  1.00  0.00     0.167 C 
HETATM   21  N2  UNL     1      19.551   2.236  51.691  1.00  0.00    -0.372 N 
HETATM   22  H6  UNL     1      19.674   0.056  53.057  1.00  0.00     0.161 HD
HETATM   23  H15 UNL     1      18.952   1.450  51.408  1.00  0.00     0.161 HD
ENDROOT
TORSDOF 0
ENDMDL
MODEL 7
REMARK VINA RESULT:      -7.3      3.197      5.477
REMARK  0 active torsions:
REMARK  status: ('A' for Active; 'I' for Inactive)
ROOT
HETATM    1  F1  UNL     1      27.144   6.632  48.597  1.00  0.00    -0.206 F 
HETATM    2  C1  UNL     1      26.239   5.681  48.917  1.00  0.00     0.117 A 
HETATM    3  C2  UNL     1      24.925   5.811  48.587  1.00  0.00     0.043 A 
HETATM    4  C3  UNL     1      23.982   4.880  48.888  1.00  0.00     0.012 A 
HETATM    5  C4  UNL     1      24.333   3.752  49.554  1.00  0.00    -0.038 A 
HETATM    6  C5  UNL     1      25.692   3.519  49.948  1.00  0.00    -0.030 A 
HETATM    7  C6  UNL     1      26.600   4.543  49.590  1.00  0.00     0.051 A 
HETATM    8  C7  UNL     1      26.488   2.493  50.651  1.00  0.00     0.160 C 
HETATM    9  N1  UNL     1      25.753   1.610  51.543  1.00  0.00    -0.372 N 
HETATM   10  C8  UNL     1      24.389   1.514  51.842  1.00  0.00     0.094 C 
HETATM   11  C9  UNL     1      23.676   2.474  51.335  1.00  0.00     0.035 C 
HETATM   12  C10 UNL     1      23.349   2.808  49.834  1.00  0.00     0.079 C 
HETATM   13  C11 UNL     1      21.931   2.779  49.944  1.00  0.00    -0.039 C 
HETATM   14  C12 UNL     1      21.265   1.696  49.393  1.00  0.00     0.058 C 
HETATM   15  S1  UNL     1      21.089   0.434  50.722  1.00  0.00    -0.104 SA
HETATM   16  C13 UNL     1      21.343   1.250  52.339  1.00  0.00     0.000 C 
HETATM   17  C14 UNL     1      20.619   2.337  52.757  1.00  0.00     0.016 C 
HETATM   18  C15 UNL     1      20.400   3.528  51.833  1.00  0.00     0.002 C 
HETATM   19  C16 UNL     1      21.182   3.808  50.726  1.00  0.00     0.009 C 
HETATM   20  C17 UNL     1      22.425   0.843  53.326  1.00  0.00     0.167 C 
HETATM   21  N2  UNL     1      23.661   0.563  52.565  1.00  0.00    -0.372 N 
HETATM   22  H6  UNL     1      26.181   0.859  52.123  1.00  0.00     0.161 HD
HETATM   23  H15 UNL     1      24.227  -0.277  52.394  1.00  0.00     0.161 HD
ENDROOT
TORSDOF 0
ENDMDL
MODEL 8
REMARK VINA RESULT:      -7.0      9.536     11.630
REMARK  0 active torsions:
REMARK  status: ('A' for Active; 'I' for Inactive)
ROOT
HETATM    1  F1  UNL     1      36.563   6.635  48.905  1.00  0.00    -0.206 F 
HETATM    2  C1  UNL     1      35.370   7.165  48.560  1.00  0.00     0.117 A 
HETATM    3  C2  UNL     1      35.284   8.349  47.894  1.00  0.00     0.043 A 
HETATM    4  C3  UNL     1      34.105   8.917  47.527  1.00  0.00     0.012 A 
HETATM    5  C4  UNL     1      32.934   8.301  47.825  1.00  0.00    -0.038 A 
HETATM    6  C5  UNL     1      32.915   7.049  48.525  1.00  0.00    -0.030 A 
HETATM    7  C6  UNL     1      34.190   6.537  48.864  1.00  0.00     0.051 A 
HETATM    8  C7  UNL     1      31.933   6.073  49.035  1.00  0.00     0.160 C 
HETATM    9  N1  UNL     1      30.589   6.578  49.270  1.00  0.00    -0.372 N 
HETATM   10  C8  UNL     1      30.018   7.838  49.062  1.00  0.00     0.094 C 
HETATM   11  C9  UNL     1      30.880   8.751  48.727  1.00  0.00     0.035 C 
HETATM   12  C10 UNL     1      31.744   8.898  47.422  1.00  0.00     0.079 C 
HETATM   13  C11 UNL     1      31.300  10.198  47.053  1.00  0.00    -0.039 C 
HETATM   14  C12 UNL     1      30.439  10.302  45.972  1.00  0.00     0.058 C 
HETATM   15  S1  UNL     1      28.723  10.238  46.638  1.00  0.00    -0.104 SA
HETATM   16  C13 UNL     1      28.777  10.604  48.428  1.00  0.00     0.000 C 
HETATM   17  C14 UNL     1      29.337  11.743  48.948  1.00  0.00     0.016 C 
HETATM   18  C15 UNL     1      30.709  12.215  48.487  1.00  0.00     0.002 C 
HETATM   19  C16 UNL     1      31.642  11.405  47.865  1.00  0.00     0.009 C 
HETATM   20  C17 UNL     1      28.275   9.649  49.498  1.00  0.00     0.167 C 
HETATM   21  N2  UNL     1      28.693   8.281  49.127  1.00  0.00    -0.372 N 
HETATM   22  H6  UNL     1      29.800   6.015  49.652  1.00  0.00     0.161 HD
HETATM   23  H15 UNL     1      28.195   7.422  48.861  1.00  0.00     0.161 HD
ENDROOT
TORSDOF 0
ENDMDL
MODEL 9
REMARK VINA RESULT:      -6.8      9.848     11.449
REMARK  0 active torsions:
REMARK  status: ('A' for Active; 'I' for Inactive)
ROOT
HETATM    1  F1  UNL     1      35.257   3.251  46.847  1.00  0.00    -0.206 F 
HETATM    2  C1  UNL     1      34.385   4.282  46.853  1.00  0.00     0.117 A 
HETATM    3  C2  UNL     1      34.281   5.131  45.794  1.00  0.00     0.043 A 
HETATM    4  C3  UNL     1      33.418   6.180  45.758  1.00  0.00     0.012 A 
HETATM    5  C4  UNL     1      32.603   6.424  46.815  1.00  0.00    -0.038 A 
HETATM    6  C5  UNL     1      32.634   5.587  47.980  1.00  0.00    -0.030 A 
HETATM    7  C6  UNL     1      33.564   4.522  47.924  1.00  0.00     0.051 A 
HETATM    8  C7  UNL     1      31.969   5.481  49.293  1.00  0.00     0.160 C 
HETATM    9  N1  UNL     1      31.360   6.700  49.804  1.00  0.00    -0.372 N 
HETATM   10  C8  UNL     1      31.244   7.983  49.258  1.00  0.00     0.094 C 
HETATM   11  C9  UNL     1      31.919   8.144  48.160  1.00  0.00     0.035 C 
HETATM   12  C10 UNL     1      31.717   7.494  46.742  1.00  0.00     0.079 C 
HETATM   13  C11 UNL     1      31.597   8.702  46.002  1.00  0.00    -0.039 C 
HETATM   14  C12 UNL     1      30.338   9.052  45.539  1.00  0.00     0.058 C 
HETATM   15  S1  UNL     1      29.566  10.121  46.824  1.00  0.00    -0.104 SA
HETATM   16  C13 UNL     1      30.882  10.755  47.924  1.00  0.00     0.000 C 
HETATM   17  C14 UNL     1      31.976  11.446  47.470  1.00  0.00     0.016 C 
HETATM   18  C15 UNL     1      32.777  10.939  46.278  1.00  0.00     0.002 C 
HETATM   19  C16 UNL     1      32.752   9.633  45.823  1.00  0.00     0.009 C 
HETATM   20  C17 UNL     1      30.917  10.508  49.423  1.00  0.00     0.167 C 
HETATM   21  N2  UNL     1      30.518   9.106  49.668  1.00  0.00    -0.372 N 
HETATM   22  H6  UNL     1      30.881   6.785  50.725  1.00  0.00     0.161 HD
HETATM   23  H15 UNL     1      29.723   8.654  50.136  1.00  0.00     0.161 HD
ENDROOT
TORSDOF 0
ENDMDL
