MODEL 1
REMARK VINA RESULT:      -7.1      0.000      0.000
REMARK  6 active torsions:
REMARK  status: ('A' for Active; 'I' for Inactive)
REMARK    1  A    between atoms: O1_2  and  C2_3 
REMARK       I    between atoms: C2_3  and  N1_5 
REMARK    2  A    between atoms: C6_9  and  C7_10 
REMARK    3  A    between atoms: C8_11  and  C9_12 
REMARK    4  A    between atoms: C13_18  and  N4_19 
REMARK    5  A    between atoms: N4_19  and  C14_20 
REMARK    6  A    between atoms: C14_20  and  C15_21 
ROOT
HETATM    1  C9  UNL     1      26.968   5.080  48.892  1.00  0.00     0.061 A 
HETATM    2  C10 UNL     1      25.778   5.730  48.881  1.00  0.00     0.061 A 
HETATM    3  C11 UNL     1      24.669   5.138  49.416  1.00  0.00     0.081 A 
HETATM    4  N2  UNL     1      23.417   5.620  49.497  1.00  0.00    -0.241 NA
HETATM    5  C12 UNL     1      22.439   4.920  50.050  1.00  0.00     0.236 A 
HETATM    6  N3  UNL     1      22.548   3.676  50.589  1.00  0.00    -0.223 NA
HETATM    7  C13 UNL     1      23.775   3.138  50.540  1.00  0.00     0.144 A 
HETATM    8  C17 UNL     1      24.830   3.892  49.944  1.00  0.00     0.080 A 
HETATM    9  S1  UNL     1      26.556   3.471  49.721  1.00  0.00    -0.075 SA
ENDROOT
BRANCH   1  10
HETATM   10  C8  UNL     1      28.254   5.414  48.430  1.00  0.00    -0.057 C 
HETATM   11  C7  UNL     1      29.346   5.720  48.040  1.00  0.00    -0.075 C 
BRANCH  11  12
HETATM   12  C6  UNL     1      30.673   6.087  47.540  1.00  0.00     0.169 C 
HETATM   13  N1  UNL     1      31.623   5.212  48.206  1.00  0.00    -0.313 N 
HETATM   14  C2  UNL     1      32.215   4.100  47.536  1.00  0.00     0.363 C 
HETATM   15  C3  UNL     1      31.762   5.745  49.568  1.00  0.00     0.129 C 
HETATM   16  O2  UNL     1      31.996   3.757  46.344  1.00  0.00    -0.238 OA
HETATM   17  C4  UNL     1      31.995   7.195  49.260  1.00  0.00     0.023 C 
HETATM   18  C5  UNL     1      31.049   7.436  48.099  1.00  0.00     0.040 C 
BRANCH  14  19
HETATM   19  O1  UNL     1      33.114   3.241  48.107  1.00  0.00    -0.309 OA
HETATM   20  C1  UNL     1      34.486   3.374  47.779  1.00  0.00     0.215 C 
ENDBRANCH  14  19
ENDBRANCH  11  12
ENDBRANCH   1  10
BRANCH   7  21
HETATM   21  N4  UNL     1      24.108   1.852  51.044  1.00  0.00    -0.370 N 
HETATM   22  H13 UNL     1      24.341   1.065  50.404  1.00  0.00     0.161 HD
BRANCH  21  23
HETATM   23  C14 UNL     1      24.099   1.726  52.487  1.00  0.00     0.149 C 
BRANCH  23  24
HETATM   24  C15 UNL     1      25.189   0.839  52.991  1.00  0.00     0.004 C 
HETATM   25  C16 UNL     1      26.164   0.257  52.287  1.00  0.00     0.082 C 
HETATM   26 CL1  UNL     1      27.489  -0.800  52.801  1.00  0.00    -0.097 Cl
ENDBRANCH  23  24
ENDBRANCH  21  23
ENDBRANCH   7  21
TORSDOF 6
ENDMDL
MODEL 2
REMARK VINA RESULT:      -7.1      8.080     12.638
REMARK  6 active torsions:
REMARK  status: ('A' for Active; 'I' for Inactive)
REMARK    1  A    between atoms: O1_2  and  C2_3 
REMARK       I    between atoms: C2_3  and  N1_5 
REMARK    2  A    between atoms: C6_9  and  C7_10 
REMARK    3  A    between atoms: C8_11  and  C9_12 
REMARK    4  A    between atoms: C13_18  and  N4_19 
REMARK    5  A    between atoms: N4_19  and  C14_20 
REMARK    6  A    between atoms: C14_20  and  C15_21 
ROOT
HETATM    1  C9  UNL     1      20.137  -0.193  52.838  1.00  0.00     0.061 A 
HETATM    2  C10 UNL     1      20.521  -0.825  53.975  1.00  0.00     0.061 A 
HETATM    3  C11 UNL     1      21.844  -0.896  54.307  1.00  0.00     0.081 A 
HETATM    4  N2  UNL     1      22.410  -1.473  55.381  1.00  0.00    -0.241 NA
HETATM    5  C12 UNL     1      23.721  -1.460  55.565  1.00  0.00     0.236 A 
HETATM    6  N3  UNL     1      24.641  -0.891  54.741  1.00  0.00    -0.223 NA
HETATM    7  C13 UNL     1      24.139  -0.297  53.648  1.00  0.00     0.144 A 
HETATM    8  C17 UNL     1      22.726  -0.311  53.449  1.00  0.00     0.080 A 
HETATM    9  S1  UNL     1      21.750   0.379  52.116  1.00  0.00    -0.075 SA
ENDROOT
BRANCH   1  10
HETATM   10  C8  UNL     1      18.886   0.041  52.239  1.00  0.00    -0.057 C 
HETATM   11  C7  UNL     1      17.829   0.246  51.711  1.00  0.00    -0.075 C 
BRANCH  11  12
HETATM   12  C6  UNL     1      16.536   0.517  51.080  1.00  0.00     0.169 C 
HETATM   13  N1  UNL     1      15.518   0.024  51.993  1.00  0.00    -0.313 N 
HETATM   14  C2  UNL     1      14.754   0.909  52.813  1.00  0.00     0.363 C 
HETATM   15  C3  UNL     1      15.521  -1.436  51.836  1.00  0.00     0.129 C 
HETATM   16  O2  UNL     1      14.864   2.164  52.843  1.00  0.00    -0.238 OA
HETATM   17  C4  UNL     1      15.459  -1.539  50.340  1.00  0.00     0.023 C 
HETATM   18  C5  UNL     1      16.365  -0.405  49.900  1.00  0.00     0.040 C 
BRANCH  14  19
HETATM   19  O1  UNL     1      13.785   0.508  53.691  1.00  0.00    -0.309 OA
HETATM   20  C1  UNL     1      12.631   1.316  53.848  1.00  0.00     0.215 C 
ENDBRANCH  14  19
ENDBRANCH  11  12
ENDBRANCH   1  10
BRANCH   7  21
HETATM   21  N4  UNL     1      24.922   0.356  52.659  1.00  0.00    -0.370 N 
HETATM   22  H13 UNL     1      24.655   0.326  51.653  1.00  0.00     0.161 HD
BRANCH  21  23
HETATM   23  C14 UNL     1      26.094   1.052  53.149  1.00  0.00     0.149 C 
BRANCH  23  24
HETATM   24  C15 UNL     1      27.365   0.347  52.804  1.00  0.00     0.004 C 
HETATM   25  C16 UNL     1      28.218  -0.258  53.635  1.00  0.00     0.082 C 
HETATM   26 CL1  UNL     1      29.736  -1.113  53.313  1.00  0.00    -0.097 Cl
ENDBRANCH  23  24
ENDBRANCH  21  23
ENDBRANCH   7  21
TORSDOF 6
ENDMDL
MODEL 3
REMARK VINA RESULT:      -7.0      3.641      5.466
REMARK  6 active torsions:
REMARK  status: ('A' for Active; 'I' for Inactive)
REMARK    1  A    between atoms: O1_2  and  C2_3 
REMARK       I    between atoms: C2_3  and  N1_5 
REMARK    2  A    between atoms: C6_9  and  C7_10 
REMARK    3  A    between atoms: C8_11  and  C9_12 
REMARK    4  A    between atoms: C13_18  and  N4_19 
REMARK    5  A    between atoms: N4_19  and  C14_20 
REMARK    6  A    between atoms: C14_20  and  C15_21 
ROOT
HETATM    1  C9  UNL     1      25.832   3.060  50.795  1.00  0.00     0.061 A 
HETATM    2  C10 UNL     1      26.773   2.223  51.298  1.00  0.00     0.061 A 
HETATM    3  C11 UNL     1      26.405   1.182  52.104  1.00  0.00     0.081 A 
HETATM    4  N2  UNL     1      27.185   0.258  52.689  1.00  0.00    -0.241 NA
HETATM    5  C12 UNL     1      26.675  -0.698  53.450  1.00  0.00     0.236 A 
HETATM    6  N3  UNL     1      25.359  -0.879  53.737  1.00  0.00    -0.223 NA
HETATM    7  C13 UNL     1      24.525   0.013  53.181  1.00  0.00     0.144 A 
HETATM    8  C17 UNL     1      25.074   1.044  52.361  1.00  0.00     0.080 A 
HETATM    9  S1  UNL     1      24.251   2.372  51.485  1.00  0.00    -0.075 SA
ENDROOT
BRANCH   1  10
HETATM   10  C8  UNL     1      25.893   4.191  49.960  1.00  0.00    -0.057 C 
HETATM   11  C7  UNL     1      25.939   5.166  49.264  1.00  0.00    -0.075 C 
BRANCH  11  12
HETATM   12  C6  UNL     1      25.974   6.350  48.403  1.00  0.00     0.169 C 
HETATM   13  N1  UNL     1      26.889   7.290  49.028  1.00  0.00    -0.313 N 
HETATM   14  C2  UNL     1      28.213   7.490  48.532  1.00  0.00     0.363 C 
HETATM   15  C3  UNL     1      26.146   7.876  50.152  1.00  0.00     0.129 C 
HETATM   16  O2  UNL     1      28.724   6.905  47.541  1.00  0.00    -0.238 OA
HETATM   17  C4  UNL     1      24.870   8.249  49.456  1.00  0.00     0.023 C 
HETATM   18  C5  UNL     1      24.658   7.076  48.517  1.00  0.00     0.040 C 
BRANCH  14  19
HETATM   19  O1  UNL     1      29.120   8.358  49.076  1.00  0.00    -0.309 OA
HETATM   20  C1  UNL     1      30.496   8.171  48.794  1.00  0.00     0.215 C 
ENDBRANCH  14  19
ENDBRANCH  11  12
ENDBRANCH   1  10
BRANCH   7  21
HETATM   21  N4  UNL     1      23.115   0.008  53.350  1.00  0.00    -0.370 N 
HETATM   22  H13 UNL     1      22.497   0.589  52.747  1.00  0.00     0.161 HD
BRANCH  21  23
HETATM   23  C14 UNL     1      22.616  -0.850  54.405  1.00  0.00     0.149 C 
BRANCH  23  24
HETATM   24  C15 UNL     1      21.242  -1.364  54.124  1.00  0.00     0.004 C 
HETATM   25  C16 UNL     1      20.188  -0.679  53.672  1.00  0.00     0.082 C 
HETATM   26 CL1  UNL     1      18.535  -1.206  53.312  1.00  0.00    -0.097 Cl
ENDBRANCH  23  24
ENDBRANCH  21  23
ENDBRANCH   7  21
TORSDOF 6
ENDMDL
MODEL 4
REMARK VINA RESULT:      -6.8      8.145     12.848
REMARK  6 active torsions:
REMARK  status: ('A' for Active; 'I' for Inactive)
REMARK    1  A    between atoms: O1_2  and  C2_3 
REMARK       I    between atoms: C2_3  and  N1_5 
REMARK    2  A    between atoms: C6_9  and  C7_10 
REMARK    3  A    between atoms: C8_11  and  C9_12 
REMARK    4  A    between atoms: C13_18  and  N4_19 
REMARK    5  A    between atoms: N4_19  and  C14_20 
REMARK    6  A    between atoms: C14_20  and  C15_21 
ROOT
HETATM    1  C9  UNL     1      19.988  -0.221  52.846  1.00  0.00     0.061 A 
HETATM    2  C10 UNL     1      20.388  -0.865  53.971  1.00  0.00     0.061 A 
HETATM    3  C11 UNL     1      21.715  -0.930  54.288  1.00  0.00     0.081 A 
HETATM    4  N2  UNL     1      22.296  -1.518  55.349  1.00  0.00    -0.241 NA
HETATM    5  C12 UNL     1      23.608  -1.496  55.520  1.00  0.00     0.236 A 
HETATM    6  N3  UNL     1      24.516  -0.910  54.694  1.00  0.00    -0.223 NA
HETATM    7  C13 UNL     1      23.999  -0.304  53.615  1.00  0.00     0.144 A 
HETATM    8  C17 UNL     1      22.583  -0.327  53.430  1.00  0.00     0.080 A 
HETATM    9  S1  UNL     1      21.588   0.373  52.116  1.00  0.00    -0.075 SA
ENDROOT
BRANCH   1  10
HETATM   10  C8  UNL     1      18.729   0.012  52.263  1.00  0.00    -0.057 C 
HETATM   11  C7  UNL     1      17.648   0.194  51.777  1.00  0.00    -0.075 C 
BRANCH  11  12
HETATM   12  C6  UNL     1      16.337   0.406  51.161  1.00  0.00     0.169 C 
HETATM   13  N1  UNL     1      15.351  -0.096  52.103  1.00  0.00    -0.313 N 
HETATM   14  C2  UNL     1      14.571   0.784  52.913  1.00  0.00     0.363 C 
HETATM   15  C3  UNL     1      15.400  -1.559  51.982  1.00  0.00     0.129 C 
HETATM   16  O2  UNL     1      14.639   2.042  52.909  1.00  0.00    -0.238 OA
HETATM   17  C4  UNL     1      15.317  -1.702  50.491  1.00  0.00     0.023 C 
HETATM   18  C5  UNL     1      16.178  -0.551  50.007  1.00  0.00     0.040 C 
BRANCH  14  19
HETATM   19  O1  UNL     1      13.630   0.374  53.816  1.00  0.00    -0.309 OA
HETATM   20  C1  UNL     1      12.575   1.259  54.152  1.00  0.00     0.215 C 
ENDBRANCH  14  19
ENDBRANCH  11  12
ENDBRANCH   1  10
BRANCH   7  21
HETATM   21  N4  UNL     1      24.766   0.368  52.627  1.00  0.00    -0.370 N 
HETATM   22  H13 UNL     1      24.694   0.112  51.621  1.00  0.00     0.161 HD
BRANCH  21  23
HETATM   23  C14 UNL     1      25.638   1.414  53.118  1.00  0.00     0.149 C 
BRANCH  23  24
HETATM   24  C15 UNL     1      24.920   2.705  53.334  1.00  0.00     0.004 C 
HETATM   25  C16 UNL     1      24.033   3.294  52.526  1.00  0.00     0.082 C 
HETATM   26 CL1  UNL     1      23.139   4.813  52.703  1.00  0.00    -0.097 Cl
ENDBRANCH  23  24
ENDBRANCH  21  23
ENDBRANCH   7  21
TORSDOF 6
ENDMDL
MODEL 5
REMARK VINA RESULT:      -6.7      2.941      3.842
REMARK  6 active torsions:
REMARK  status: ('A' for Active; 'I' for Inactive)
REMARK    1  A    between atoms: O1_2  and  C2_3 
REMARK       I    between atoms: C2_3  and  N1_5 
REMARK    2  A    between atoms: C6_9  and  C7_10 
REMARK    3  A    between atoms: C8_11  and  C9_12 
REMARK    4  A    between atoms: C13_18  and  N4_19 
REMARK    5  A    between atoms: N4_19  and  C14_20 
REMARK    6  A    between atoms: C14_20  and  C15_21 
ROOT
HETATM    1  C9  UNL     1      25.903   4.993  49.673  1.00  0.00     0.061 A 
HETATM    2  C10 UNL     1      24.655   5.100  50.192  1.00  0.00     0.061 A 
HETATM    3  C11 UNL     1      24.130   4.080  50.934  1.00  0.00     0.081 A 
HETATM    4  N2  UNL     1      22.924   4.005  51.523  1.00  0.00    -0.241 NA
HETATM    5  C12 UNL     1      22.557   2.939  52.216  1.00  0.00     0.236 A 
HETATM    6  N3  UNL     1      23.303   1.821  52.424  1.00  0.00    -0.223 NA
HETATM    7  C13 UNL     1      24.521   1.834  51.862  1.00  0.00     0.144 A 
HETATM    8  C17 UNL     1      24.917   2.983  51.114  1.00  0.00     0.080 A 
HETATM    9  S1  UNL     1      26.450   3.314  50.249  1.00  0.00    -0.075 SA
ENDROOT
BRANCH   1  10
HETATM   10  C8  UNL     1      26.699   5.847  48.888  1.00  0.00    -0.057 C 
HETATM   11  C7  UNL     1      27.394   6.564  48.224  1.00  0.00    -0.075 C 
BRANCH  11  12
HETATM   12  C6  UNL     1      28.240   7.458  47.430  1.00  0.00     0.169 C 
HETATM   13  N1  UNL     1      28.595   8.569  48.297  1.00  0.00    -0.313 N 
HETATM   14  C2  UNL     1      29.888   8.671  48.894  1.00  0.00     0.363 C 
HETATM   15  C3  UNL     1      27.399   9.419  48.359  1.00  0.00     0.129 C 
HETATM   16  O2  UNL     1      30.832   7.849  48.750  1.00  0.00    -0.238 OA
HETATM   17  C4  UNL     1      27.083   9.534  46.896  1.00  0.00     0.023 C 
HETATM   18  C5  UNL     1      27.389   8.139  46.388  1.00  0.00     0.040 C 
BRANCH  14  19
HETATM   19  O1  UNL     1      30.282   9.689  49.718  1.00  0.00    -0.309 OA
HETATM   20  C1  UNL     1      30.655  10.928  49.139  1.00  0.00     0.215 C 
ENDBRANCH  14  19
ENDBRANCH  11  12
ENDBRANCH   1  10
BRANCH   7  21
HETATM   21  N4  UNL     1      25.459   0.771  51.955  1.00  0.00    -0.370 N 
HETATM   22  H13 UNL     1      25.580   0.089  51.179  1.00  0.00     0.161 HD
BRANCH  21  23
HETATM   23  C14 UNL     1      26.217   0.714  53.188  1.00  0.00     0.149 C 
BRANCH  23  24
HETATM   24  C15 UNL     1      27.426  -0.155  53.078  1.00  0.00     0.004 C 
HETATM   25  C16 UNL     1      28.554  -0.083  53.789  1.00  0.00     0.082 C 
HETATM   26 CL1  UNL     1      30.026  -1.067  53.725  1.00  0.00    -0.097 Cl
ENDBRANCH  23  24
ENDBRANCH  21  23
ENDBRANCH   7  21
TORSDOF 6
ENDMDL
MODEL 6
REMARK VINA RESULT:      -6.6      2.223      2.726
REMARK  6 active torsions:
REMARK  status: ('A' for Active; 'I' for Inactive)
REMARK    1  A    between atoms: O1_2  and  C2_3 
REMARK       I    between atoms: C2_3  and  N1_5 
REMARK    2  A    between atoms: C6_9  and  C7_10 
REMARK    3  A    between atoms: C8_11  and  C9_12 
REMARK    4  A    between atoms: C13_18  and  N4_19 
REMARK    5  A    between atoms: N4_19  and  C14_20 
REMARK    6  A    between atoms: C14_20  and  C15_21 
ROOT
HETATM    1  C9  UNL     1      25.938   5.255  49.641  1.00  0.00     0.061 A 
HETATM    2  C10 UNL     1      24.858   5.794  50.260  1.00  0.00     0.061 A 
HETATM    3  C11 UNL     1      23.997   4.994  50.956  1.00  0.00     0.081 A 
HETATM    4  N2  UNL     1      22.885   5.342  51.628  1.00  0.00    -0.241 NA
HETATM    5  C12 UNL     1      22.148   4.443  52.259  1.00  0.00     0.236 A 
HETATM    6  N3  UNL     1      22.389   3.106  52.320  1.00  0.00    -0.223 NA
HETATM    7  C13 UNL     1      23.487   2.694  51.669  1.00  0.00     0.144 A 
HETATM    8  C17 UNL     1      24.283   3.663  50.988  1.00  0.00     0.080 A 
HETATM    9  S1  UNL     1      25.786   3.448  50.038  1.00  0.00    -0.075 SA
ENDROOT
BRANCH   1  10
HETATM   10  C8  UNL     1      26.979   5.801  48.868  1.00  0.00    -0.057 C 
HETATM   11  C7  UNL     1      27.853   6.274  48.196  1.00  0.00    -0.075 C 
BRANCH  11  12
HETATM   12  C6  UNL     1      28.925   6.828  47.367  1.00  0.00     0.169 C 
HETATM   13  N1  UNL     1      29.966   7.270  48.279  1.00  0.00    -0.313 N 
HETATM   14  C2  UNL     1      31.165   6.519  48.469  1.00  0.00     0.363 C 
HETATM   15  C3  UNL     1      29.479   8.531  48.853  1.00  0.00     0.129 C 
HETATM   16  O2  UNL     1      31.452   5.434  47.898  1.00  0.00    -0.238 OA
HETATM   17  C4  UNL     1      29.068   9.249  47.601  1.00  0.00     0.023 C 
HETATM   18  C5  UNL     1      28.458   8.133  46.774  1.00  0.00     0.040 C 
BRANCH  14  19
HETATM   19  O1  UNL     1      32.180   6.881  49.311  1.00  0.00    -0.309 OA
HETATM   20  C1  UNL     1      33.139   7.821  48.858  1.00  0.00     0.215 C 
ENDBRANCH  14  19
ENDBRANCH  11  12
ENDBRANCH   1  10
BRANCH   7  21
HETATM   21  N4  UNL     1      23.923   1.343  51.606  1.00  0.00    -0.370 N 
HETATM   22  H13 UNL     1      23.723   0.750  50.774  1.00  0.00     0.161 HD
BRANCH  21  23
HETATM   23  C14 UNL     1      24.650   0.866  52.764  1.00  0.00     0.149 C 
BRANCH  23  24
HETATM   24  C15 UNL     1      23.927  -0.222  53.486  1.00  0.00     0.004 C 
HETATM   25  C16 UNL     1      22.607  -0.411  53.575  1.00  0.00     0.082 C 
HETATM   26 CL1  UNL     1      21.672  -1.666  54.404  1.00  0.00    -0.097 Cl
ENDBRANCH  23  24
ENDBRANCH  21  23
ENDBRANCH   7  21
TORSDOF 6
ENDMDL
MODEL 7
REMARK VINA RESULT:      -6.4      4.477      6.266
REMARK  6 active torsions:
REMARK  status: ('A' for Active; 'I' for Inactive)
REMARK    1  A    between atoms: O1_2  and  C2_3 
REMARK       I    between atoms: C2_3  and  N1_5 
REMARK    2  A    between atoms: C6_9  and  C7_10 
REMARK    3  A    between atoms: C8_11  and  C9_12 
REMARK    4  A    between atoms: C13_18  and  N4_19 
REMARK    5  A    between atoms: N4_19  and  C14_20 
REMARK    6  A    between atoms: C14_20  and  C15_21 
ROOT
HETATM    1  C9  UNL     1      23.573   2.812  51.178  1.00  0.00     0.061 A 
HETATM    2  C10 UNL     1      22.471   2.314  51.792  1.00  0.00     0.061 A 
HETATM    3  C11 UNL     1      22.590   1.292  52.691  1.00  0.00     0.081 A 
HETATM    4  N2  UNL     1      21.624   0.674  53.392  1.00  0.00    -0.241 NA
HETATM    5  C12 UNL     1      21.899  -0.310  54.233  1.00  0.00     0.236 A 
HETATM    6  N3  UNL     1      23.133  -0.816  54.499  1.00  0.00    -0.223 NA
HETATM    7  C13 UNL     1      24.143  -0.241  53.830  1.00  0.00     0.144 A 
HETATM    8  C17 UNL     1      23.847   0.820  52.923  1.00  0.00     0.080 A 
HETATM    9  S1  UNL     1      24.946   1.785  51.890  1.00  0.00    -0.075 SA
ENDROOT
BRANCH   1  10
HETATM   10  C8  UNL     1      23.771   3.833  50.230  1.00  0.00    -0.057 C 
HETATM   11  C7  UNL     1      23.960   4.699  49.423  1.00  0.00    -0.075 C 
BRANCH  11  12
HETATM   12  C6  UNL     1      24.188   5.775  48.456  1.00  0.00     0.169 C 
HETATM   13  N1  UNL     1      24.451   6.978  49.228  1.00  0.00    -0.313 N 
HETATM   14  C2  UNL     1      25.772   7.497  49.381  1.00  0.00     0.363 C 
HETATM   15  C3  UNL     1      23.142   7.422  49.725  1.00  0.00     0.129 C 
HETATM   16  O2  UNL     1      26.819   6.999  48.888  1.00  0.00    -0.238 OA
HETATM   17  C4  UNL     1      22.347   7.371  48.453  1.00  0.00     0.023 C 
HETATM   18  C5  UNL     1      22.879   6.116  47.788  1.00  0.00     0.040 C 
BRANCH  14  19
HETATM   19  O1  UNL     1      26.084   8.621  50.094  1.00  0.00    -0.309 OA
HETATM   20  C1  UNL     1      27.420   9.095  50.071  1.00  0.00     0.215 C 
ENDBRANCH  14  19
ENDBRANCH  11  12
ENDBRANCH   1  10
BRANCH   7  21
HETATM   21  N4  UNL     1      25.507  -0.616  53.959  1.00  0.00    -0.370 N 
HETATM   22  H13 UNL     1      25.926  -1.346  53.347  1.00  0.00     0.161 HD
BRANCH  21  23
HETATM   23  C14 UNL     1      26.252   0.082  54.986  1.00  0.00     0.149 C 
BRANCH  23  24
HETATM   24  C15 UNL     1      27.723  -0.158  54.890  1.00  0.00     0.004 C 
HETATM   25  C16 UNL     1      28.434  -0.460  53.801  1.00  0.00     0.082 C 
HETATM   26 CL1  UNL     1      30.169  -0.758  53.598  1.00  0.00    -0.097 Cl
ENDBRANCH  23  24
ENDBRANCH  21  23
ENDBRANCH   7  21
TORSDOF 6
ENDMDL
MODEL 8
REMARK VINA RESULT:      -6.3      4.839      9.259
REMARK  6 active torsions:
REMARK  status: ('A' for Active; 'I' for Inactive)
REMARK    1  A    between atoms: O1_2  and  C2_3 
REMARK       I    between atoms: C2_3  and  N1_5 
REMARK    2  A    between atoms: C6_9  and  C7_10 
REMARK    3  A    between atoms: C8_11  and  C9_12 
REMARK    4  A    between atoms: C13_18  and  N4_19 
REMARK    5  A    between atoms: N4_19  and  C14_20 
REMARK    6  A    between atoms: C14_20  and  C15_21 
ROOT
HETATM    1  C9  UNL     1      27.117   6.015  48.544  1.00  0.00     0.061 A 
HETATM    2  C10 UNL     1      28.209   5.213  48.485  1.00  0.00     0.061 A 
HETATM    3  C11 UNL     1      29.447   5.753  48.284  1.00  0.00     0.081 A 
HETATM    4  N2  UNL     1      30.633   5.126  48.198  1.00  0.00    -0.241 NA
HETATM    5  C12 UNL     1      31.757   5.794  47.998  1.00  0.00     0.236 A 
HETATM    6  N3  UNL     1      31.876   7.142  47.858  1.00  0.00    -0.223 NA
HETATM    7  C13 UNL     1      30.726   7.828  47.934  1.00  0.00     0.144 A 
HETATM    8  C17 UNL     1      29.513   7.107  48.150  1.00  0.00     0.080 A 
HETATM    9  S1  UNL     1      27.834   7.710  48.297  1.00  0.00    -0.075 SA
ENDROOT
BRANCH   1  10
HETATM   10  C8  UNL     1      25.745   5.766  48.733  1.00  0.00    -0.057 C 
HETATM   11  C7  UNL     1      24.576   5.568  48.911  1.00  0.00    -0.075 C 
BRANCH  11  12
HETATM   12  C6  UNL     1      23.154   5.302  49.138  1.00  0.00     0.169 C 
HETATM   13  N1  UNL     1      23.084   4.128  49.992  1.00  0.00    -0.313 N 
HETATM   14  C2  UNL     1      22.786   4.231  51.384  1.00  0.00     0.363 C 
HETATM   15  C3  UNL     1      23.368   2.985  49.115  1.00  0.00     0.129 C 
HETATM   16  O2  UNL     1      22.561   5.300  52.012  1.00  0.00    -0.238 OA
HETATM   17  C4  UNL     1      22.431   3.284  47.981  1.00  0.00     0.023 C 
HETATM   18  C5  UNL     1      22.542   4.791  47.858  1.00  0.00     0.040 C 
BRANCH  14  19
HETATM   19  O1  UNL     1      22.706   3.166  52.239  1.00  0.00    -0.309 OA
HETATM   20  C1  UNL     1      21.500   2.425  52.293  1.00  0.00     0.215 C 
ENDBRANCH  14  19
ENDBRANCH  11  12
ENDBRANCH   1  10
BRANCH   7  21
HETATM   21  N4  UNL     1      30.624   9.240  47.815  1.00  0.00    -0.370 N 
HETATM   22  H13 UNL     1      30.513   9.696  46.886  1.00  0.00     0.161 HD
BRANCH  21  23
HETATM   23  C14 UNL     1      30.686   9.977  49.060  1.00  0.00     0.149 C 
BRANCH  23  24
HETATM   24  C15 UNL     1      30.144  11.363  48.932  1.00  0.00     0.004 C 
HETATM   25  C16 UNL     1      28.869  11.753  49.007  1.00  0.00     0.082 C 
HETATM   26 CL1  UNL     1      28.143  13.364  48.869  1.00  0.00    -0.097 Cl
ENDBRANCH  23  24
ENDBRANCH  21  23
ENDBRANCH   7  21
TORSDOF 6
ENDMDL
MODEL 9
REMARK VINA RESULT:      -6.1      8.938     13.561
REMARK  6 active torsions:
REMARK  status: ('A' for Active; 'I' for Inactive)
REMARK    1  A    between atoms: O1_2  and  C2_3 
REMARK       I    between atoms: C2_3  and  N1_5 
REMARK    2  A    between atoms: C6_9  and  C7_10 
REMARK    3  A    between atoms: C8_11  and  C9_12 
REMARK    4  A    between atoms: C13_18  and  N4_19 
REMARK    5  A    between atoms: N4_19  and  C14_20 
REMARK    6  A    between atoms: C14_20  and  C15_21 
ROOT
HETATM    1  C9  UNL     1      18.930  -0.541  52.613  1.00  0.00     0.061 A 
HETATM    2  C10 UNL     1      19.467  -1.203  53.668  1.00  0.00     0.061 A 
HETATM    3  C11 UNL     1      20.795  -1.068  53.957  1.00  0.00     0.081 A 
HETATM    4  N2  UNL     1      21.499  -1.638  54.951  1.00  0.00    -0.241 NA
HETATM    5  C12 UNL     1      22.794  -1.408  55.103  1.00  0.00     0.236 A 
HETATM    6  N3  UNL     1      23.563  -0.605  54.321  1.00  0.00    -0.223 NA
HETATM    7  C13 UNL     1      22.919  -0.005  53.309  1.00  0.00     0.144 A 
HETATM    8  C17 UNL     1      21.523  -0.253  53.145  1.00  0.00     0.080 A 
HETATM    9  S1  UNL     1      20.384   0.380  51.916  1.00  0.00    -0.075 SA
ENDROOT
BRANCH   1  10
HETATM   10  C8  UNL     1      17.633  -0.477  52.072  1.00  0.00    -0.057 C 
HETATM   11  C7  UNL     1      16.525  -0.442  51.615  1.00  0.00    -0.075 C 
BRANCH  11  12
HETATM   12  C6  UNL     1      15.182  -0.397  51.032  1.00  0.00     0.169 C 
HETATM   13  N1  UNL     1      14.366  -1.320  51.804  1.00  0.00    -0.313 N 
HETATM   14  C2  UNL     1      13.429  -0.858  52.777  1.00  0.00     0.363 C 
HETATM   15  C3  UNL     1      14.745  -2.662  51.343  1.00  0.00     0.129 C 
HETATM   16  O2  UNL     1      13.208   0.346  53.072  1.00  0.00    -0.238 OA
HETATM   17  C4  UNL     1      14.653  -2.465  49.858  1.00  0.00     0.023 C 
HETATM   18  C5  UNL     1      15.213  -1.067  49.681  1.00  0.00     0.040 C 
BRANCH  14  19
HETATM   19  O1  UNL     1      12.634  -1.675  53.534  1.00  0.00    -0.309 OA
HETATM   20  C1  UNL     1      11.372  -2.065  53.020  1.00  0.00     0.215 C 
ENDBRANCH  14  19
ENDBRANCH  11  12
ENDBRANCH   1  10
BRANCH   7  21
HETATM   21  N4  UNL     1      23.532   0.873  52.375  1.00  0.00    -0.370 N 
HETATM   22  H13 UNL     1      23.631   0.610  51.373  1.00  0.00     0.161 HD
BRANCH  21  23
HETATM   23  C14 UNL     1      23.997   2.133  52.915  1.00  0.00     0.149 C 
BRANCH  23  24
HETATM   24  C15 UNL     1      25.470   2.318  52.751  1.00  0.00     0.004 C 
HETATM   25  C16 UNL     1      26.427   2.119  53.661  1.00  0.00     0.082 C 
HETATM   26 CL1  UNL     1      28.185   2.311  53.551  1.00  0.00    -0.097 Cl
ENDBRANCH  23  24
ENDBRANCH  21  23
ENDBRANCH   7  21
TORSDOF 6
ENDMDL
