MODEL 1
REMARK VINA RESULT:      -8.5      0.000      0.000
REMARK  7 active torsions:
REMARK  status: ('A' for Active; 'I' for Inactive)
REMARK    1  A    between atoms: C5_5  and  N1_6 
REMARK    2  A    between atoms: C8_10  and  N2_11 
REMARK    3  A    between atoms: C9_12  and  S1_13 
REMARK    4  A    between atoms: S1_13  and  C10_14 
REMARK    5  A    between atoms: C10_14  and  C11_15 
REMARK    6  A    between atoms: C11_15  and  N3_16 
REMARK    7  A    between atoms: C11_15  and  C12_17 
ROOT
HETATM    1  N1  UNL     1      24.120  -0.078  53.486  1.00  0.00    -0.295 N 
HETATM    2  C6  UNL     1      23.623  -0.832  54.631  1.00  0.00     0.251 C 
HETATM    3  O1  UNL     1      23.990  -1.414  55.708  1.00  0.00    -0.268 OA
HETATM    4  C7  UNL     1      22.146  -0.996  54.529  1.00  0.00     0.102 C 
HETATM    5  C8  UNL     1      21.802  -0.366  53.424  1.00  0.00     0.042 C 
HETATM    6  C9  UNL     1      22.963   0.531  53.051  1.00  0.00     0.204 C 
ENDROOT
BRANCH   6   7
HETATM    7  S1  UNL     1      22.779   1.356  51.495  1.00  0.00    -0.135 SA
BRANCH   7   8
HETATM    8  C10 UNL     1      22.954   3.128  51.702  1.00  0.00     0.116 C 
BRANCH   8   9
HETATM    9  C11 UNL     1      24.242   3.724  52.056  1.00  0.00     0.261 C 
BRANCH   9  10
HETATM   10  N3  UNL     1      23.826   5.004  52.787  1.00  0.00     0.088 N 
HETATM   11  H13 UNL     1      23.013   5.362  52.176  1.00  0.00     0.313 HD
HETATM   12  H14 UNL     1      23.366   4.720  53.662  1.00  0.00     0.313 HD
ENDBRANCH   9  10
BRANCH   9  13
HETATM   13  C12 UNL     1      24.928   4.360  50.873  1.00  0.00    -0.003 A 
HETATM   14  C13 UNL     1      24.627   5.593  50.275  1.00  0.00     0.011 A 
HETATM   15  C14 UNL     1      25.434   6.038  49.239  1.00  0.00     0.001 A 
HETATM   16  C15 UNL     1      26.520   5.334  48.764  1.00  0.00     0.002 A 
HETATM   17  C16 UNL     1      26.831   4.101  49.349  1.00  0.00     0.024 A 
HETATM   18  C17 UNL     1      26.030   3.654  50.382  1.00  0.00     0.042 A 
HETATM   19 CL1  UNL     1      26.480   2.089  51.063  1.00  0.00    -0.084 Cl
ENDBRANCH   9  13
ENDBRANCH   8   9
ENDBRANCH   7   8
ENDBRANCH   6   7
BRANCH   1  20
HETATM   20  C5  UNL     1      25.515  -0.396  53.404  1.00  0.00     0.039 A 
HETATM   21  C4  UNL     1      26.264   0.469  54.239  1.00  0.00     0.030 A 
HETATM   22  C3  UNL     1      27.629   0.438  54.396  1.00  0.00     0.009 A 
HETATM   23  C2  UNL     1      28.317  -0.505  53.686  1.00  0.00    -0.062 A 
HETATM   24  C1  UNL     1      29.780  -0.610  53.821  1.00  0.00     0.048 C 
HETATM   25  C19 UNL     1      27.617  -1.361  52.863  1.00  0.00     0.009 A 
HETATM   26  C18 UNL     1      26.238  -1.330  52.705  1.00  0.00     0.030 A 
ENDBRANCH   1  20
BRANCH   5  27
HETATM   27  N2  UNL     1      20.706  -0.032  52.571  1.00  0.00    -0.400 N 
HETATM   28  H7  UNL     1      20.341   0.867  52.227  1.00  0.00     0.156 HD
HETATM   29  H8  UNL     1      20.279  -0.937  52.303  1.00  0.00     0.156 HD
ENDBRANCH   5  27
TORSDOF 7
ENDMDL
MODEL 2
REMARK VINA RESULT:      -8.3      1.507      2.042
REMARK  7 active torsions:
REMARK  status: ('A' for Active; 'I' for Inactive)
REMARK    1  A    between atoms: C5_5  and  N1_6 
REMARK    2  A    between atoms: C8_10  and  N2_11 
REMARK    3  A    between atoms: C9_12  and  S1_13 
REMARK    4  A    between atoms: S1_13  and  C10_14 
REMARK    5  A    between atoms: C10_14  and  C11_15 
REMARK    6  A    between atoms: C11_15  and  N3_16 
REMARK    7  A    between atoms: C11_15  and  C12_17 
ROOT
HETATM    1  N1  UNL     1      24.280   0.307  53.408  1.00  0.00    -0.295 N 
HETATM    2  C6  UNL     1      23.591  -0.658  54.256  1.00  0.00     0.251 C 
HETATM    3  O1  UNL     1      23.722  -1.366  55.312  1.00  0.00    -0.268 OA
HETATM    4  C7  UNL     1      22.233  -0.935  53.713  1.00  0.00     0.102 C 
HETATM    5  C8  UNL     1      22.125  -0.173  52.643  1.00  0.00     0.042 C 
HETATM    6  C9  UNL     1      23.216   0.871  52.736  1.00  0.00     0.204 C 
ENDROOT
BRANCH   6   7
HETATM    7  S1  UNL     1      23.359   1.910  51.309  1.00  0.00    -0.135 SA
BRANCH   7   8
HETATM    8  C10 UNL     1      24.122   3.472  51.746  1.00  0.00     0.116 C 
BRANCH   8   9
HETATM    9  C11 UNL     1      24.013   4.637  50.869  1.00  0.00     0.261 C 
BRANCH   9  10
HETATM   10  N3  UNL     1      23.157   4.108  49.715  1.00  0.00     0.088 N 
HETATM   11  H13 UNL     1      22.429   4.895  49.592  1.00  0.00     0.313 HD
HETATM   12  H14 UNL     1      23.725   4.167  48.860  1.00  0.00     0.313 HD
ENDBRANCH   9  10
BRANCH   9  13
HETATM   13  C12 UNL     1      25.283   4.900  50.097  1.00  0.00    -0.003 A 
HETATM   14  C13 UNL     1      26.211   3.954  49.638  1.00  0.00     0.011 A 
HETATM   15  C14 UNL     1      27.280   4.397  48.874  1.00  0.00     0.001 A 
HETATM   16  C15 UNL     1      27.480   5.719  48.539  1.00  0.00     0.002 A 
HETATM   17  C16 UNL     1      26.563   6.674  48.993  1.00  0.00     0.024 A 
HETATM   18  C17 UNL     1      25.497   6.238  49.754  1.00  0.00     0.042 A 
HETATM   19 CL1  UNL     1      24.389   7.501  50.296  1.00  0.00    -0.084 Cl
ENDBRANCH   9  13
ENDBRANCH   8   9
ENDBRANCH   7   8
ENDBRANCH   6   7
BRANCH   1  20
HETATM   20  C5  UNL     1      25.673   0.131  53.693  1.00  0.00     0.039 A 
HETATM   21  C4  UNL     1      26.254  -0.763  52.759  1.00  0.00     0.030 A 
HETATM   22  C3  UNL     1      27.572  -1.151  52.744  1.00  0.00     0.009 A 
HETATM   23  C2  UNL     1      28.387  -0.632  53.711  1.00  0.00    -0.062 A 
HETATM   24  C1  UNL     1      29.815  -0.989  53.743  1.00  0.00     0.048 C 
HETATM   25  C19 UNL     1      27.851   0.239  54.635  1.00  0.00     0.009 A 
HETATM   26  C18 UNL     1      26.519   0.633  54.650  1.00  0.00     0.030 A 
ENDBRANCH   1  20
BRANCH   5  27
HETATM   27  N2  UNL     1      21.269   0.192  51.558  1.00  0.00    -0.400 N 
HETATM   28  H7  UNL     1      20.455  -0.271  51.129  1.00  0.00     0.156 HD
HETATM   29  H8  UNL     1      21.619   1.108  51.226  1.00  0.00     0.156 HD
ENDBRANCH   5  27
TORSDOF 7
ENDMDL
MODEL 3
REMARK VINA RESULT:      -8.2      2.721      5.033
REMARK  7 active torsions:
REMARK  status: ('A' for Active; 'I' for Inactive)
REMARK    1  A    between atoms: C5_5  and  N1_6 
REMARK    2  A    between atoms: C8_10  and  N2_11 
REMARK    3  A    between atoms: C9_12  and  S1_13 
REMARK    4  A    between atoms: S1_13  and  C10_14 
REMARK    5  A    between atoms: C10_14  and  C11_15 
REMARK    6  A    between atoms: C11_15  and  N3_16 
REMARK    7  A    between atoms: C11_15  and  C12_17 
ROOT
HETATM    1  N1  UNL     1      23.001  -0.238  53.392  1.00  0.00    -0.295 N 
HETATM    2  C6  UNL     1      22.413  -0.999  54.488  1.00  0.00     0.251 C 
HETATM    3  O1  UNL     1      21.311  -1.479  54.922  1.00  0.00    -0.268 OA
HETATM    4  C7  UNL     1      23.465  -1.365  55.476  1.00  0.00     0.102 C 
HETATM    5  C8  UNL     1      24.586  -0.876  54.985  1.00  0.00     0.042 C 
HETATM    6  C9  UNL     1      24.331  -0.574  53.525  1.00  0.00     0.204 C 
ENDROOT
BRANCH   6   7
HETATM    7  S1  UNL     1      25.667   0.249  52.704  1.00  0.00    -0.135 SA
BRANCH   7   8
HETATM    8  C10 UNL     1      25.323   2.001  52.550  1.00  0.00     0.116 C 
BRANCH   8   9
HETATM    9  C11 UNL     1      24.926   2.584  51.269  1.00  0.00     0.261 C 
BRANCH   9  10
HETATM   10  N3  UNL     1      25.969   3.687  51.067  1.00  0.00     0.088 N 
HETATM   11  H13 UNL     1      26.020   3.758  49.992  1.00  0.00     0.313 HD
HETATM   12  H14 UNL     1      25.534   4.575  51.348  1.00  0.00     0.313 HD
ENDBRANCH   9  10
BRANCH   9  13
HETATM   13  C12 UNL     1      23.702   3.459  51.387  1.00  0.00    -0.003 A 
HETATM   14  C13 UNL     1      23.265   4.164  52.518  1.00  0.00     0.011 A 
HETATM   15  C14 UNL     1      22.151   4.980  52.396  1.00  0.00     0.001 A 
HETATM   16  C15 UNL     1      21.447   5.137  51.221  1.00  0.00     0.002 A 
HETATM   17  C16 UNL     1      21.870   4.437  50.085  1.00  0.00     0.024 A 
HETATM   18  C17 UNL     1      22.980   3.624  50.201  1.00  0.00     0.042 A 
HETATM   19 CL1  UNL     1      23.447   2.769  48.730  1.00  0.00    -0.084 Cl
ENDBRANCH   9  13
ENDBRANCH   8   9
ENDBRANCH   7   8
ENDBRANCH   6   7
BRANCH   1  20
HETATM   20  C5  UNL     1      21.906   0.470  52.797  1.00  0.00     0.039 A 
HETATM   21  C4  UNL     1      21.806   0.148  51.420  1.00  0.00     0.030 A 
HETATM   22  C3  UNL     1      20.868   0.651  50.552  1.00  0.00     0.009 A 
HETATM   23  C2  UNL     1      19.958   1.535  51.060  1.00  0.00    -0.062 A 
HETATM   24  C1  UNL     1      18.910   2.098  50.192  1.00  0.00     0.048 C 
HETATM   25  C19 UNL     1      20.029   1.869  52.396  1.00  0.00     0.009 A 
HETATM   26  C18 UNL     1      20.978   1.361  53.273  1.00  0.00     0.030 A 
ENDBRANCH   1  20
BRANCH   5  27
HETATM   27  N2  UNL     1      25.988  -0.724  55.220  1.00  0.00    -0.400 N 
HETATM   28  H7  UNL     1      26.786  -1.365  55.106  1.00  0.00     0.156 HD
HETATM   29  H8  UNL     1      26.107   0.249  55.554  1.00  0.00     0.156 HD
ENDBRANCH   5  27
TORSDOF 7
ENDMDL
MODEL 4
REMARK VINA RESULT:      -7.9      2.460      5.105
REMARK  7 active torsions:
REMARK  status: ('A' for Active; 'I' for Inactive)
REMARK    1  A    between atoms: C5_5  and  N1_6 
REMARK    2  A    between atoms: C8_10  and  N2_11 
REMARK    3  A    between atoms: C9_12  and  S1_13 
REMARK    4  A    between atoms: S1_13  and  C10_14 
REMARK    5  A    between atoms: C10_14  and  C11_15 
REMARK    6  A    between atoms: C11_15  and  N3_16 
REMARK    7  A    between atoms: C11_15  and  C12_17 
ROOT
HETATM    1  N1  UNL     1      24.612   0.258  53.624  1.00  0.00    -0.295 N 
HETATM    2  C6  UNL     1      25.344  -0.455  54.664  1.00  0.00     0.251 C 
HETATM    3  O1  UNL     1      25.294  -1.476  55.430  1.00  0.00    -0.268 OA
HETATM    4  C7  UNL     1      26.625   0.245  54.955  1.00  0.00     0.102 C 
HETATM    5  C8  UNL     1      26.653   1.275  54.133  1.00  0.00     0.042 C 
HETATM    6  C9  UNL     1      25.623   1.005  53.058  1.00  0.00     0.204 C 
ENDROOT
BRANCH   6   7
HETATM    7  S1  UNL     1      25.376   2.347  51.929  1.00  0.00    -0.135 SA
BRANCH   7   8
HETATM    8  C10 UNL     1      24.090   3.442  52.529  1.00  0.00     0.116 C 
BRANCH   8   9
HETATM    9  C11 UNL     1      23.279   4.234  51.604  1.00  0.00     0.261 C 
BRANCH   9  10
HETATM   10  N3  UNL     1      22.858   5.426  52.468  1.00  0.00     0.088 N 
HETATM   11  H13 UNL     1      22.470   6.114  51.733  1.00  0.00     0.313 HD
HETATM   12  H14 UNL     1      22.024   5.141  52.997  1.00  0.00     0.313 HD
ENDBRANCH   9  10
BRANCH   9  13
HETATM   13  C12 UNL     1      21.914   3.635  51.375  1.00  0.00    -0.003 A 
HETATM   14  C13 UNL     1      20.801   3.703  52.225  1.00  0.00     0.011 A 
HETATM   15  C14 UNL     1      19.605   3.150  51.792  1.00  0.00     0.001 A 
HETATM   16  C15 UNL     1      19.450   2.535  50.568  1.00  0.00     0.002 A 
HETATM   17  C16 UNL     1      20.554   2.457  49.710  1.00  0.00     0.024 A 
HETATM   18  C17 UNL     1      21.746   3.007  50.137  1.00  0.00     0.042 A 
HETATM   19 CL1  UNL     1      23.093   2.862  49.005  1.00  0.00    -0.084 Cl
ENDBRANCH   9  13
ENDBRANCH   8   9
ENDBRANCH   7   8
ENDBRANCH   6   7
BRANCH   1  20
HETATM   20  C5  UNL     1      23.250  -0.164  53.766  1.00  0.00     0.039 A 
HETATM   21  C4  UNL     1      22.506   0.189  52.613  1.00  0.00     0.030 A 
HETATM   22  C3  UNL     1      21.169  -0.067  52.421  1.00  0.00     0.009 A 
HETATM   23  C2  UNL     1      20.506  -0.713  53.426  1.00  0.00    -0.062 A 
HETATM   24  C1  UNL     1      19.077  -1.038  53.279  1.00  0.00     0.048 C 
HETATM   25  C19 UNL     1      21.203  -1.068  54.562  1.00  0.00     0.009 A 
HETATM   26  C18 UNL     1      22.553  -0.810  54.756  1.00  0.00     0.030 A 
ENDBRANCH   1  20
BRANCH   5  27
HETATM   27  N2  UNL     1      27.406   2.422  53.734  1.00  0.00    -0.400 N 
HETATM   28  H7  UNL     1      28.402   2.667  53.826  1.00  0.00     0.156 HD
HETATM   29  H8  UNL     1      26.726   3.051  53.270  1.00  0.00     0.156 HD
ENDBRANCH   5  27
TORSDOF 7
ENDMDL
MODEL 5
REMARK VINA RESULT:      -7.8      2.967      5.933
REMARK  7 active torsions:
REMARK  status: ('A' for Active; 'I' for Inactive)
REMARK    1  A    between atoms: C5_5  and  N1_6 
REMARK    2  A    between atoms: C8_10  and  N2_11 
REMARK    3  A    between atoms: C9_12  and  S1_13 
REMARK    4  A    between atoms: S1_13  and  C10_14 
REMARK    5  A    between atoms: C10_14  and  C11_15 
REMARK    6  A    between atoms: C11_15  and  N3_16 
REMARK    7  A    between atoms: C11_15  and  C12_17 
ROOT
HETATM    1  N1  UNL     1      24.927   2.901  50.527  1.00  0.00    -0.295 N 
HETATM    2  C6  UNL     1      25.978   3.686  49.889  1.00  0.00     0.251 C 
HETATM    3  O1  UNL     1      27.234   3.711  49.654  1.00  0.00    -0.268 OA
HETATM    4  C7  UNL     1      25.396   4.913  49.278  1.00  0.00     0.102 C 
HETATM    5  C8  UNL     1      24.102   4.840  49.518  1.00  0.00     0.042 C 
HETATM    6  C9  UNL     1      23.807   3.407  49.903  1.00  0.00     0.204 C 
ENDROOT
BRANCH   6   7
HETATM    7  S1  UNL     1      22.141   3.119  50.430  1.00  0.00    -0.135 SA
BRANCH   7   8
HETATM    8  C10 UNL     1      21.826   1.361  50.576  1.00  0.00     0.116 C 
BRANCH   8   9
HETATM    9  C11 UNL     1      20.890   0.841  51.574  1.00  0.00     0.261 C 
BRANCH   9  10
HETATM   10  N3  UNL     1      20.538   2.092  52.383  1.00  0.00     0.088 N 
HETATM   11  H13 UNL     1      20.525   1.714  53.394  1.00  0.00     0.313 HD
HETATM   12  H14 UNL     1      21.360   2.710  52.366  1.00  0.00     0.313 HD
ENDBRANCH   9  10
BRANCH   9  13
HETATM   13  C12 UNL     1      21.583   0.062  52.664  1.00  0.00    -0.003 A 
HETATM   14  C13 UNL     1      22.949   0.071  52.980  1.00  0.00     0.011 A 
HETATM   15  C14 UNL     1      23.377  -0.661  54.078  1.00  0.00     0.001 A 
HETATM   16  C15 UNL     1      22.530  -1.398  54.878  1.00  0.00     0.002 A 
HETATM   17  C16 UNL     1      21.164  -1.418  54.572  1.00  0.00     0.024 A 
HETATM   18  C17 UNL     1      20.733  -0.690  53.481  1.00  0.00     0.042 A 
HETATM   19 CL1  UNL     1      19.001  -0.771  53.154  1.00  0.00    -0.084 Cl
ENDBRANCH   9  13
ENDBRANCH   8   9
ENDBRANCH   7   8
ENDBRANCH   6   7
BRANCH   1  20
HETATM   20  C5  UNL     1      25.605   2.064  51.472  1.00  0.00     0.039 A 
HETATM   21  C4  UNL     1      25.485   2.603  52.777  1.00  0.00     0.030 A 
HETATM   22  C3  UNL     1      26.018   2.052  53.917  1.00  0.00     0.009 A 
HETATM   23  C2  UNL     1      26.721   0.888  53.778  1.00  0.00    -0.062 A 
HETATM   24  C1  UNL     1      27.302   0.230  54.961  1.00  0.00     0.048 C 
HETATM   25  C19 UNL     1      26.856   0.339  52.521  1.00  0.00     0.009 A 
HETATM   26  C18 UNL     1      26.318   0.896  51.369  1.00  0.00     0.030 A 
ENDBRANCH   1  20
BRANCH   5  27
HETATM   27  N2  UNL     1      22.851   5.511  49.353  1.00  0.00    -0.400 N 
HETATM   28  H7  UNL     1      21.938   5.200  48.990  1.00  0.00     0.156 HD
HETATM   29  H8  UNL     1      23.005   6.473  49.703  1.00  0.00     0.156 HD
ENDBRANCH   5  27
TORSDOF 7
ENDMDL
MODEL 6
REMARK VINA RESULT:      -7.6      2.800      6.671
REMARK  7 active torsions:
REMARK  status: ('A' for Active; 'I' for Inactive)
REMARK    1  A    between atoms: C5_5  and  N1_6 
REMARK    2  A    between atoms: C8_10  and  N2_11 
REMARK    3  A    between atoms: C9_12  and  S1_13 
REMARK    4  A    between atoms: S1_13  and  C10_14 
REMARK    5  A    between atoms: C10_14  and  C11_15 
REMARK    6  A    between atoms: C11_15  and  N3_16 
REMARK    7  A    between atoms: C11_15  and  C12_17 
ROOT
HETATM    1  N1  UNL     1      23.978   2.842  51.048  1.00  0.00    -0.295 N 
HETATM    2  C6  UNL     1      23.411   4.111  50.608  1.00  0.00     0.251 C 
HETATM    3  O1  UNL     1      22.331   4.795  50.590  1.00  0.00    -0.268 OA
HETATM    4  C7  UNL     1      24.455   4.928  49.931  1.00  0.00     0.102 C 
HETATM    5  C8  UNL     1      25.554   4.204  49.990  1.00  0.00     0.042 C 
HETATM    6  C9  UNL     1      25.323   3.141  51.042  1.00  0.00     0.204 C 
ENDROOT
BRANCH   6   7
HETATM    7  S1  UNL     1      26.624   1.946  51.173  1.00  0.00    -0.135 SA
BRANCH   7   8
HETATM    8  C10 UNL     1      27.590   2.233  52.654  1.00  0.00     0.116 C 
BRANCH   8   9
HETATM    9  C11 UNL     1      27.518   1.318  53.793  1.00  0.00     0.261 C 
BRANCH   9  10
HETATM   10  N3  UNL     1      28.679   1.790  54.674  1.00  0.00     0.088 N 
HETATM   11  H13 UNL     1      29.495   1.836  53.969  1.00  0.00     0.313 HD
HETATM   12  H14 UNL     1      28.505   2.776  54.908  1.00  0.00     0.313 HD
ENDBRANCH   9  10
BRANCH   9  13
HETATM   13  C12 UNL     1      28.039  -0.058  53.462  1.00  0.00    -0.003 A 
HETATM   14  C13 UNL     1      29.372  -0.492  53.484  1.00  0.00     0.011 A 
HETATM   15  C14 UNL     1      29.636  -1.828  53.221  1.00  0.00     0.001 A 
HETATM   16  C15 UNL     1      28.655  -2.756  52.940  1.00  0.00     0.002 A 
HETATM   17  C16 UNL     1      27.320  -2.336  52.913  1.00  0.00     0.024 A 
HETATM   18  C17 UNL     1      27.053  -1.008  53.175  1.00  0.00     0.042 A 
HETATM   19 CL1  UNL     1      25.349  -0.553  53.114  1.00  0.00    -0.084 Cl
ENDBRANCH   9  13
ENDBRANCH   8   9
ENDBRANCH   7   8
ENDBRANCH   6   7
BRANCH   1  20
HETATM   20  C5  UNL     1      22.856   1.966  51.213  1.00  0.00     0.039 A 
HETATM   21  C4  UNL     1      22.592   1.762  52.590  1.00  0.00     0.030 A 
HETATM   22  C3  UNL     1      21.586   0.977  53.099  1.00  0.00     0.009 A 
HETATM   23  C2  UNL     1      20.776   0.340  52.201  1.00  0.00    -0.062 A 
HETATM   24  C1  UNL     1      19.664  -0.501  52.676  1.00  0.00     0.048 C 
HETATM   25  C19 UNL     1      21.007   0.518  50.854  1.00  0.00     0.009 A 
HETATM   26  C18 UNL     1      22.024   1.312  50.339  1.00  0.00     0.030 A 
ENDBRANCH   1  20
BRANCH   5  27
HETATM   27  N2  UNL     1      26.934   4.154  49.621  1.00  0.00    -0.400 N 
HETATM   28  H7  UNL     1      27.481   3.482  49.065  1.00  0.00     0.156 HD
HETATM   29  H8  UNL     1      27.361   5.003  50.033  1.00  0.00     0.156 HD
ENDBRANCH   5  27
TORSDOF 7
ENDMDL
MODEL 7
REMARK VINA RESULT:      -7.4      3.015      7.133
REMARK  7 active torsions:
REMARK  status: ('A' for Active; 'I' for Inactive)
REMARK    1  A    between atoms: C5_5  and  N1_6 
REMARK    2  A    between atoms: C8_10  and  N2_11 
REMARK    3  A    between atoms: C9_12  and  S1_13 
REMARK    4  A    between atoms: S1_13  and  C10_14 
REMARK    5  A    between atoms: C10_14  and  C11_15 
REMARK    6  A    between atoms: C11_15  and  N3_16 
REMARK    7  A    between atoms: C11_15  and  C12_17 
ROOT
HETATM    1  N1  UNL     1      23.513   3.344  51.218  1.00  0.00    -0.295 N 
HETATM    2  C6  UNL     1      23.211   4.635  50.613  1.00  0.00     0.251 C 
HETATM    3  O1  UNL     1      22.271   5.481  50.427  1.00  0.00    -0.268 OA
HETATM    4  C7  UNL     1      24.431   5.193  49.969  1.00  0.00     0.102 C 
HETATM    5  C8  UNL     1      25.381   4.309  50.200  1.00  0.00     0.042 C 
HETATM    6  C9  UNL     1      24.886   3.415  51.316  1.00  0.00     0.204 C 
ENDROOT
BRANCH   6   7
HETATM    7  S1  UNL     1      25.946   2.045  51.681  1.00  0.00    -0.135 SA
BRANCH   7   8
HETATM    8  C10 UNL     1      25.826   1.604  53.413  1.00  0.00     0.116 C 
BRANCH   8   9
HETATM    9  C11 UNL     1      25.779   0.205  53.836  1.00  0.00     0.261 C 
BRANCH   9  10
HETATM   10  N3  UNL     1      26.187  -0.542  52.563  1.00  0.00     0.088 N 
HETATM   11  H13 UNL     1      26.680   0.231  51.994  1.00  0.00     0.313 HD
HETATM   12  H14 UNL     1      26.951  -1.182  52.815  1.00  0.00     0.313 HD
ENDBRANCH   9  10
BRANCH   9  13
HETATM   13  C12 UNL     1      24.368  -0.316  53.954  1.00  0.00    -0.003 A 
HETATM   14  C13 UNL     1      23.372  -0.304  52.967  1.00  0.00     0.011 A 
HETATM   15  C14 UNL     1      22.156  -0.908  53.251  1.00  0.00     0.001 A 
HETATM   16  C15 UNL     1      21.873  -1.521  54.453  1.00  0.00     0.002 A 
HETATM   17  C16 UNL     1      22.857  -1.538  55.448  1.00  0.00     0.024 A 
HETATM   18  C17 UNL     1      24.069  -0.939  55.169  1.00  0.00     0.042 A 
HETATM   19 CL1  UNL     1      25.256  -0.993  56.475  1.00  0.00    -0.084 Cl
ENDBRANCH   9  13
ENDBRANCH   8   9
ENDBRANCH   7   8
ENDBRANCH   6   7
BRANCH   1  20
HETATM   20  C5  UNL     1      22.247   2.685  51.351  1.00  0.00     0.039 A 
HETATM   21  C4  UNL     1      22.048   1.786  50.274  1.00  0.00     0.030 A 
HETATM   22  C3  UNL     1      20.940   0.994  50.094  1.00  0.00     0.009 A 
HETATM   23  C2  UNL     1      19.949   1.085  51.031  1.00  0.00    -0.062 A 
HETATM   24  C1  UNL     1      18.741   0.250  50.912  1.00  0.00     0.048 C 
HETATM   25  C19 UNL     1      20.112   1.952  52.090  1.00  0.00     0.009 A 
HETATM   26  C18 UNL     1      21.233   2.751  52.273  1.00  0.00     0.030 A 
ENDBRANCH   1  20
BRANCH   5  27
HETATM   27  N2  UNL     1      26.757   3.996  49.973  1.00  0.00    -0.400 N 
HETATM   28  H7  UNL     1      27.587   4.031  50.581  1.00  0.00     0.156 HD
HETATM   29  H8  UNL     1      26.809   3.679  48.989  1.00  0.00     0.156 HD
ENDBRANCH   5  27
TORSDOF 7
ENDMDL
MODEL 8
REMARK VINA RESULT:      -7.4      3.209      6.129
REMARK  7 active torsions:
REMARK  status: ('A' for Active; 'I' for Inactive)
REMARK    1  A    between atoms: C5_5  and  N1_6 
REMARK    2  A    between atoms: C8_10  and  N2_11 
REMARK    3  A    between atoms: C9_12  and  S1_13 
REMARK    4  A    between atoms: S1_13  and  C10_14 
REMARK    5  A    between atoms: C10_14  and  C11_15 
REMARK    6  A    between atoms: C11_15  and  N3_16 
REMARK    7  A    between atoms: C11_15  and  C12_17 
ROOT
HETATM    1  N1  UNL     1      23.213   3.951  50.849  1.00  0.00    -0.295 N 
HETATM    2  C6  UNL     1      23.321   5.378  51.129  1.00  0.00     0.251 C 
HETATM    3  O1  UNL     1      24.102   6.269  51.608  1.00  0.00    -0.268 OA
HETATM    4  C7  UNL     1      22.074   6.074  50.708  1.00  0.00     0.102 C 
HETATM    5  C8  UNL     1      21.305   5.133  50.199  1.00  0.00     0.042 C 
HETATM    6  C9  UNL     1      22.197   3.943  49.918  1.00  0.00     0.204 C 
ENDROOT
BRANCH   6   7
HETATM    7  S1  UNL     1      21.334   2.494  49.377  1.00  0.00    -0.135 SA
BRANCH   7   8
HETATM    8  C10 UNL     1      21.746   1.095  50.419  1.00  0.00     0.116 C 
BRANCH   8   9
HETATM    9  C11 UNL     1      20.851   0.662  51.492  1.00  0.00     0.261 C 
BRANCH   9  10
HETATM   10  N3  UNL     1      20.544   1.975  52.219  1.00  0.00     0.088 N 
HETATM   11  H13 UNL     1      19.527   1.822  52.546  1.00  0.00     0.313 HD
HETATM   12  H14 UNL     1      21.083   1.974  53.094  1.00  0.00     0.313 HD
ENDBRANCH   9  10
BRANCH   9  13
HETATM   13  C12 UNL     1      21.585  -0.039  52.608  1.00  0.00    -0.003 A 
HETATM   14  C13 UNL     1      22.965  -0.027  52.860  1.00  0.00     0.011 A 
HETATM   15  C14 UNL     1      23.434  -0.677  53.991  1.00  0.00     0.001 A 
HETATM   16  C15 UNL     1      22.617  -1.335  54.885  1.00  0.00     0.002 A 
HETATM   17  C16 UNL     1      21.238  -1.358  54.645  1.00  0.00     0.024 A 
HETATM   18  C17 UNL     1      20.766  -0.712  53.520  1.00  0.00     0.042 A 
HETATM   19 CL1  UNL     1      19.019  -0.791  53.281  1.00  0.00    -0.084 Cl
ENDBRANCH   9  13
ENDBRANCH   8   9
ENDBRANCH   7   8
ENDBRANCH   6   7
BRANCH   1  20
HETATM   20  C5  UNL     1      24.179   3.327  51.705  1.00  0.00     0.039 A 
HETATM   21  C4  UNL     1      25.170   2.676  50.930  1.00  0.00     0.030 A 
HETATM   22  C3  UNL     1      26.242   1.979  51.433  1.00  0.00     0.009 A 
HETATM   23  C2  UNL     1      26.359   1.910  52.793  1.00  0.00    -0.062 A 
HETATM   24  C1  UNL     1      27.495   1.197  53.402  1.00  0.00     0.048 C 
HETATM   25  C19 UNL     1      25.409   2.532  53.575  1.00  0.00     0.009 A 
HETATM   26  C18 UNL     1      24.325   3.236  53.066  1.00  0.00     0.030 A 
ENDBRANCH   1  20
BRANCH   5  27
HETATM   27  N2  UNL     1      20.030   4.865  49.613  1.00  0.00    -0.400 N 
HETATM   28  H7  UNL     1      19.163   5.419  49.551  1.00  0.00     0.156 HD
HETATM   29  H8  UNL     1      20.109   3.920  49.198  1.00  0.00     0.156 HD
ENDBRANCH   5  27
TORSDOF 7
ENDMDL
MODEL 9
REMARK VINA RESULT:      -7.3      3.025      5.119
REMARK  7 active torsions:
REMARK  status: ('A' for Active; 'I' for Inactive)
REMARK    1  A    between atoms: C5_5  and  N1_6 
REMARK    2  A    between atoms: C8_10  and  N2_11 
REMARK    3  A    between atoms: C9_12  and  S1_13 
REMARK    4  A    between atoms: S1_13  and  C10_14 
REMARK    5  A    between atoms: C10_14  and  C11_15 
REMARK    6  A    between atoms: C11_15  and  N3_16 
REMARK    7  A    between atoms: C11_15  and  C12_17 
ROOT
HETATM    1  N1  UNL     1      23.172   1.340  52.793  1.00  0.00    -0.295 N 
HETATM    2  C6  UNL     1      24.402   0.774  53.336  1.00  0.00     0.251 C 
HETATM    3  O1  UNL     1      25.646   1.010  53.505  1.00  0.00    -0.268 OA
HETATM    4  C7  UNL     1      24.132  -0.572  53.911  1.00  0.00     0.102 C 
HETATM    5  C8  UNL     1      22.840  -0.770  53.741  1.00  0.00     0.042 C 
HETATM    6  C9  UNL     1      22.225   0.581  53.445  1.00  0.00     0.204 C 
ENDROOT
BRANCH   6   7
HETATM    7  S1  UNL     1      20.507   0.524  53.019  1.00  0.00    -0.135 SA
BRANCH   7   8
HETATM    8  C10 UNL     1      20.305   0.473  51.239  1.00  0.00     0.116 C 
BRANCH   8   9
HETATM    9  C11 UNL     1      19.784   1.626  50.504  1.00  0.00     0.261 C 
BRANCH   9  10
HETATM   10  N3  UNL     1      18.707   0.995  49.616  1.00  0.00     0.088 N 
HETATM   11  H13 UNL     1      19.273   0.271  49.051  1.00  0.00     0.313 HD
HETATM   12  H14 UNL     1      18.111   0.418  50.223  1.00  0.00     0.313 HD
ENDBRANCH   9  10
BRANCH   9  13
HETATM   13  C12 UNL     1      20.722   2.088  49.416  1.00  0.00    -0.003 A 
HETATM   14  C13 UNL     1      21.593   1.300  48.651  1.00  0.00     0.011 A 
HETATM   15  C14 UNL     1      22.319   1.911  47.639  1.00  0.00     0.001 A 
HETATM   16  C15 UNL     1      22.229   3.254  47.343  1.00  0.00     0.002 A 
HETATM   17  C16 UNL     1      21.364   4.054  48.100  1.00  0.00     0.024 A 
HETATM   18  C17 UNL     1      20.640   3.450  49.108  1.00  0.00     0.042 A 
HETATM   19 CL1  UNL     1      19.579   4.523  50.023  1.00  0.00    -0.084 Cl
ENDBRANCH   9  13
ENDBRANCH   8   9
ENDBRANCH   7   8
ENDBRANCH   6   7
BRANCH   1  20
HETATM   20  C5  UNL     1      23.599   2.340  51.859  1.00  0.00     0.039 A 
HETATM   21  C4  UNL     1      22.974   3.578  52.149  1.00  0.00     0.030 A 
HETATM   22  C3  UNL     1      23.161   4.746  51.449  1.00  0.00     0.009 A 
HETATM   23  C2  UNL     1      24.018   4.706  50.386  1.00  0.00    -0.062 A 
HETATM   24  C1  UNL     1      24.282   5.926  49.603  1.00  0.00     0.048 C 
HETATM   25  C19 UNL     1      24.641   3.515  50.077  1.00  0.00     0.009 A 
HETATM   26  C18 UNL     1      24.453   2.335  50.784  1.00  0.00     0.030 A 
ENDBRANCH   1  20
BRANCH   5  27
HETATM   27  N2  UNL     1      21.772  -1.699  53.934  1.00  0.00    -0.400 N 
HETATM   28  H7  UNL     1      21.514  -2.307  54.724  1.00  0.00     0.156 HD
HETATM   29  H8  UNL     1      21.215  -1.665  53.062  1.00  0.00     0.156 HD
ENDBRANCH   5  27
TORSDOF 7
ENDMDL
