MODEL 1
REMARK VINA RESULT:      -9.2      0.000      0.000
REMARK  4 active torsions:
REMARK  status: ('A' for Active; 'I' for Inactive)
REMARK    1  A    between atoms: N1_1  and  C1_2 
REMARK    2  A    between atoms: C3_4  and  C4_5 
REMARK    3  A    between atoms: C4_5  and  O2_7 
REMARK    4  A    between atoms: C8_11  and  C9_12 
ROOT
HETATM    1  C1  UNL     1      28.666   1.942  54.189  1.00  0.00     0.317 C 
HETATM    2  C2  UNL     1      29.160   0.532  53.868  1.00  0.00     0.031 C 
HETATM    3  C3  UNL     1      28.476  -0.589  53.478  1.00  0.00     0.021 C 
HETATM    4  C5  UNL     1      27.069  -0.487  53.105  1.00  0.00     0.053 C 
HETATM    5  C6  UNL     1      26.193  -1.611  52.875  1.00  0.00     0.041 C 
HETATM    6  C7  UNL     1      24.797  -1.089  52.947  1.00  0.00     0.007 C 
HETATM    7  C8  UNL     1      24.051   0.009  53.186  1.00  0.00     0.064 C 
HETATM    8  N2  UNL     1      24.836   1.101  53.502  1.00  0.00    -0.242 NA
HETATM    9  C15 UNL     1      24.875   2.332  53.247  1.00  0.00     0.236 C 
HETATM   10  N3  UNL     1      26.050   2.322  54.095  1.00  0.00    -0.220 NA
HETATM   11  C16 UNL     1      27.244   2.064  53.703  1.00  0.00     0.178 C 
HETATM   12  O3  UNL     1      27.193   1.797  52.301  1.00  0.00    -0.335 OA
HETATM   13  C17 UNL     1      27.025   0.424  51.902  1.00  0.00     0.186 C 
ENDROOT
BRANCH   7  14
HETATM   14  C9  UNL     1      22.594  -0.004  53.122  1.00  0.00    -0.006 A 
HETATM   15  C10 UNL     1      21.721  -0.340  54.124  1.00  0.00     0.017 A 
HETATM   16  C11 UNL     1      20.352  -0.322  53.997  1.00  0.00     0.045 A 
HETATM   17  C12 UNL     1      19.851   0.064  52.771  1.00  0.00     0.138 A 
HETATM   18  F1  UNL     1      18.505   0.105  52.574  1.00  0.00    -0.204 F 
HETATM   19  C13 UNL     1      20.725   0.403  51.761  1.00  0.00     0.073 A 
HETATM   20 CL1  UNL     1      20.026   0.884  50.231  1.00  0.00    -0.081 Cl
HETATM   21  C14 UNL     1      22.090   0.371  51.930  1.00  0.00     0.040 A 
ENDBRANCH   7  14
BRANCH   3  22
HETATM   22  C4  UNL     1      29.228  -1.807  53.468  1.00  0.00     0.172 C 
HETATM   23  O1  UNL     1      30.428  -1.727  53.840  1.00  0.00    -0.646 OA
BRANCH  22  24
HETATM   24  O2  UNL     1      28.631  -2.969  53.067  1.00  0.00    -0.773 OA
HETATM   25  H5  UNL     1      28.963  -3.434  52.207  1.00  0.00     0.167 HD
ENDBRANCH  22  24
ENDBRANCH   3  22
BRANCH   1  26
HETATM   26  N1  UNL     1      29.475   2.841  53.414  1.00  0.00     0.094 N 
HETATM   27  H1  UNL     1      29.882   3.628  53.971  1.00  0.00     0.314 HD
HETATM   28  H2  UNL     1      30.204   2.282  52.917  1.00  0.00     0.314 HD
ENDBRANCH   1  26
TORSDOF 4
ENDMDL
MODEL 2
REMARK VINA RESULT:      -9.2      4.632      7.116
REMARK  4 active torsions:
REMARK  status: ('A' for Active; 'I' for Inactive)
REMARK    1  A    between atoms: N1_1  and  C1_2 
REMARK    2  A    between atoms: C3_4  and  C4_5 
REMARK    3  A    between atoms: C4_5  and  O2_7 
REMARK    4  A    between atoms: C8_11  and  C9_12 
ROOT
HETATM    1  C1  UNL     1      22.408   4.787  52.028  1.00  0.00     0.317 C 
HETATM    2  C2  UNL     1      23.355   5.589  51.136  1.00  0.00     0.031 C 
HETATM    3  C3  UNL     1      24.588   5.276  50.628  1.00  0.00     0.021 C 
HETATM    4  C5  UNL     1      25.096   3.913  50.749  1.00  0.00     0.053 C 
HETATM    5  C6  UNL     1      26.447   3.507  50.442  1.00  0.00     0.041 C 
HETATM    6  C7  UNL     1      26.656   2.182  51.093  1.00  0.00     0.007 C 
HETATM    7  C8  UNL     1      26.086   1.252  51.887  1.00  0.00     0.064 C 
HETATM    8  N2  UNL     1      24.819   1.629  52.289  1.00  0.00    -0.242 NA
HETATM    9  C15 UNL     1      23.689   1.099  52.446  1.00  0.00     0.236 C 
HETATM   10  N3  UNL     1      23.283   2.431  52.852  1.00  0.00    -0.220 NA
HETATM   11  C16 UNL     1      22.889   3.358  52.058  1.00  0.00     0.178 C 
HETATM   12  O3  UNL     1      22.924   2.837  50.729  1.00  0.00    -0.335 OA
HETATM   13  C17 UNL     1      24.134   3.043  49.976  1.00  0.00     0.186 C 
ENDROOT
BRANCH   7  14
HETATM   14  C9  UNL     1      26.767   0.018  52.263  1.00  0.00    -0.006 A 
HETATM   15  C10 UNL     1      26.316  -1.265  52.095  1.00  0.00     0.017 A 
HETATM   16  C11 UNL     1      27.017  -2.388  52.467  1.00  0.00     0.045 A 
HETATM   17  C12 UNL     1      28.252  -2.181  53.045  1.00  0.00     0.138 A 
HETATM   18  F1  UNL     1      29.001  -3.247  53.438  1.00  0.00    -0.204 F 
HETATM   19  C13 UNL     1      28.710  -0.892  53.217  1.00  0.00     0.073 A 
HETATM   20 CL1  UNL     1      30.283  -0.699  53.956  1.00  0.00    -0.081 Cl
HETATM   21  C14 UNL     1      27.976   0.205  52.830  1.00  0.00     0.040 A 
ENDBRANCH   7  14
BRANCH   3  22
HETATM   22  C4  UNL     1      25.295   6.350  49.999  1.00  0.00     0.172 C 
HETATM   23  O1  UNL     1      25.166   6.449  48.751  1.00  0.00    -0.646 OA
BRANCH  22  24
HETATM   24  O2  UNL     1      26.055   7.196  50.756  1.00  0.00    -0.773 OA
HETATM   25  H5  UNL     1      26.995   6.894  51.056  1.00  0.00     0.167 HD
ENDBRANCH  22  24
ENDBRANCH   3  22
BRANCH   1  26
HETATM   26  N1  UNL     1      21.126   4.806  51.381  1.00  0.00     0.094 N 
HETATM   27  H1  UNL     1      20.634   3.883  51.392  1.00  0.00     0.314 HD
HETATM   28  H2  UNL     1      20.555   5.570  51.807  1.00  0.00     0.314 HD
ENDBRANCH   1  26
TORSDOF 4
ENDMDL
MODEL 3
REMARK VINA RESULT:      -9.1      4.963      6.751
REMARK  4 active torsions:
REMARK  status: ('A' for Active; 'I' for Inactive)
REMARK    1  A    between atoms: N1_1  and  C1_2 
REMARK    2  A    between atoms: C3_4  and  C4_5 
REMARK    3  A    between atoms: C4_5  and  O2_7 
REMARK    4  A    between atoms: C8_11  and  C9_12 
ROOT
HETATM    1  C1  UNL     1      22.527   0.337  52.547  1.00  0.00     0.317 C 
HETATM    2  C2  UNL     1      23.805  -0.329  53.055  1.00  0.00     0.031 C 
HETATM    3  C3  UNL     1      25.121   0.015  52.889  1.00  0.00     0.021 C 
HETATM    4  C5  UNL     1      25.464   1.306  52.301  1.00  0.00     0.053 C 
HETATM    5  C6  UNL     1      26.791   1.698  51.889  1.00  0.00     0.041 C 
HETATM    6  C7  UNL     1      26.630   2.866  50.977  1.00  0.00     0.007 C 
HETATM    7  C8  UNL     1      25.727   3.657  50.362  1.00  0.00     0.064 C 
HETATM    8  N2  UNL     1      24.431   3.272  50.648  1.00  0.00    -0.242 NA
HETATM    9  C15 UNL     1      23.329   3.816  50.915  1.00  0.00     0.236 C 
HETATM   10  N3  UNL     1      22.841   2.453  50.992  1.00  0.00    -0.220 NA
HETATM   11  C16 UNL     1      22.883   1.710  52.037  1.00  0.00     0.178 C 
HETATM   12  O3  UNL     1      23.487   2.469  53.086  1.00  0.00    -0.335 OA
HETATM   13  C17 UNL     1      24.914   2.349  53.242  1.00  0.00     0.186 C 
ENDROOT
BRANCH   7  14
HETATM   14  C9  UNL     1      26.115   4.765  49.497  1.00  0.00    -0.006 A 
HETATM   15  C10 UNL     1      25.319   5.785  49.043  1.00  0.00     0.017 A 
HETATM   16  C11 UNL     1      25.754   6.806  48.233  1.00  0.00     0.045 A 
HETATM   17  C12 UNL     1      27.084   6.780  47.867  1.00  0.00     0.138 A 
HETATM   18  F1  UNL     1      27.584   7.760  47.066  1.00  0.00    -0.204 F 
HETATM   19  C13 UNL     1      27.889   5.756  48.321  1.00  0.00     0.073 A 
HETATM   20 CL1  UNL     1      29.565   5.781  47.820  1.00  0.00    -0.081 Cl
HETATM   21  C14 UNL     1      27.412   4.752  49.131  1.00  0.00     0.040 A 
ENDBRANCH   7  14
BRANCH   3  22
HETATM   22  C4  UNL     1      26.079  -0.954  53.326  1.00  0.00     0.172 C 
HETATM   23  O1  UNL     1      26.401  -0.915  54.542  1.00  0.00    -0.646 OA
BRANCH  22  24
HETATM   24  O2  UNL     1      26.588  -1.854  52.432  1.00  0.00    -0.773 OA
HETATM   25  H5  UNL     1      27.386  -1.577  51.839  1.00  0.00     0.167 HD
ENDBRANCH  22  24
ENDBRANCH   3  22
BRANCH   1  26
HETATM   26  N1  UNL     1      21.672   0.499  53.689  1.00  0.00     0.094 N 
HETATM   27  H1  UNL     1      21.645   1.477  54.060  1.00  0.00     0.314 HD
HETATM   28  H2  UNL     1      20.723   0.137  53.444  1.00  0.00     0.314 HD
ENDBRANCH   1  26
TORSDOF 4
ENDMDL
MODEL 4
REMARK VINA RESULT:      -9.0      4.559      7.294
REMARK  4 active torsions:
REMARK  status: ('A' for Active; 'I' for Inactive)
REMARK    1  A    between atoms: N1_1  and  C1_2 
REMARK    2  A    between atoms: C3_4  and  C4_5 
REMARK    3  A    between atoms: C4_5  and  O2_7 
REMARK    4  A    between atoms: C8_11  and  C9_12 
ROOT
HETATM    1  C1  UNL     1      22.886   3.970  49.260  1.00  0.00     0.317 C 
HETATM    2  C2  UNL     1      21.786   3.531  50.227  1.00  0.00     0.031 C 
HETATM    3  C3  UNL     1      21.849   2.797  51.382  1.00  0.00     0.021 C 
HETATM    4  C5  UNL     1      23.147   2.484  51.972  1.00  0.00     0.053 C 
HETATM    5  C6  UNL     1      23.356   1.559  53.059  1.00  0.00     0.041 C 
HETATM    6  C7  UNL     1      24.808   1.217  53.059  1.00  0.00     0.007 C 
HETATM    7  C8  UNL     1      25.975   1.405  52.410  1.00  0.00     0.064 C 
HETATM    8  N2  UNL     1      25.819   2.215  51.301  1.00  0.00    -0.242 NA
HETATM    9  C15 UNL     1      26.432   3.155  50.734  1.00  0.00     0.236 C 
HETATM   10  N3  UNL     1      25.330   3.111  49.793  1.00  0.00    -0.220 NA
HETATM   11  C16 UNL     1      24.218   3.736  49.927  1.00  0.00     0.178 C 
HETATM   12  O3  UNL     1      24.275   4.468  51.153  1.00  0.00    -0.335 OA
HETATM   13  C17 UNL     1      23.769   3.812  52.331  1.00  0.00     0.186 C 
ENDROOT
BRANCH   7  14
HETATM   14  C9  UNL     1      27.225   0.797  52.851  1.00  0.00    -0.006 A 
HETATM   15  C10 UNL     1      28.321   1.433  53.373  1.00  0.00     0.017 A 
HETATM   16  C11 UNL     1      29.468   0.793  53.778  1.00  0.00     0.045 A 
HETATM   17  C12 UNL     1      29.492  -0.579  53.640  1.00  0.00     0.138 A 
HETATM   18  F1  UNL     1      30.596  -1.278  54.021  1.00  0.00    -0.204 F 
HETATM   19  C13 UNL     1      28.392  -1.223  53.115  1.00  0.00     0.073 A 
HETATM   20 CL1  UNL     1      28.487  -2.964  52.966  1.00  0.00    -0.081 Cl
HETATM   21  C14 UNL     1      27.262  -0.545  52.721  1.00  0.00     0.040 A 
ENDBRANCH   7  14
BRANCH   3  22
HETATM   22  C4  UNL     1      20.592   2.388  51.931  1.00  0.00     0.172 C 
HETATM   23  O1  UNL     1      20.038   3.195  52.723  1.00  0.00    -0.646 OA
BRANCH  22  24
HETATM   24  O2  UNL     1      20.062   1.178  51.582  1.00  0.00    -0.773 OA
HETATM   25  H5  UNL     1      20.695   0.420  51.283  1.00  0.00     0.167 HD
ENDBRANCH  22  24
ENDBRANCH   3  22
BRANCH   1  26
HETATM   26  N1  UNL     1      22.727   5.385  49.080  1.00  0.00     0.094 N 
HETATM   27  H1  UNL     1      23.612   5.879  48.818  1.00  0.00     0.314 HD
HETATM   28  H2  UNL     1      21.959   5.545  48.389  1.00  0.00     0.314 HD
ENDBRANCH   1  26
TORSDOF 4
ENDMDL
MODEL 5
REMARK VINA RESULT:      -8.9      4.700      7.753
REMARK  4 active torsions:
REMARK  status: ('A' for Active; 'I' for Inactive)
REMARK    1  A    between atoms: N1_1  and  C1_2 
REMARK    2  A    between atoms: C3_4  and  C4_5 
REMARK    3  A    between atoms: C4_5  and  O2_7 
REMARK    4  A    between atoms: C8_11  and  C9_12 
ROOT
HETATM    1  C1  UNL     1      19.166   0.686  50.294  1.00  0.00     0.317 C 
HETATM    2  C2  UNL     1      18.540  -0.047  51.480  1.00  0.00     0.031 C 
HETATM    3  C3  UNL     1      19.096  -0.498  52.648  1.00  0.00     0.021 C 
HETATM    4  C5  UNL     1      20.459  -0.113  52.999  1.00  0.00     0.053 C 
HETATM    5  C6  UNL     1      21.222  -0.679  54.085  1.00  0.00     0.041 C 
HETATM    6  C7  UNL     1      22.651  -0.339  53.829  1.00  0.00     0.007 C 
HETATM    7  C8  UNL     1      23.496   0.249  52.958  1.00  0.00     0.064 C 
HETATM    8  N2  UNL     1      22.831   0.733  51.848  1.00  0.00    -0.242 NA
HETATM    9  C15 UNL     1      22.855   1.752  51.112  1.00  0.00     0.236 C 
HETATM   10  N3  UNL     1      21.778   1.087  50.405  1.00  0.00    -0.220 NA
HETATM   11  C16 UNL     1      20.534   1.167  50.707  1.00  0.00     0.178 C 
HETATM   12  O3  UNL     1      20.417   2.020  51.847  1.00  0.00    -0.335 OA
HETATM   13  C17 UNL     1      20.441   1.389  53.141  1.00  0.00     0.186 C 
ENDROOT
BRANCH   7  14
HETATM   14  C9  UNL     1      24.934   0.329  53.191  1.00  0.00    -0.006 A 
HETATM   15  C10 UNL     1      25.647   1.417  53.624  1.00  0.00     0.017 A 
HETATM   16  C11 UNL     1      27.006   1.420  53.832  1.00  0.00     0.045 A 
HETATM   17  C12 UNL     1      27.671   0.238  53.581  1.00  0.00     0.138 A 
HETATM   18  F1  UNL     1      29.018   0.169  53.766  1.00  0.00    -0.204 F 
HETATM   19  C13 UNL     1      26.958  -0.859  53.146  1.00  0.00     0.073 A 
HETATM   20 CL1  UNL     1      27.862  -2.327  52.847  1.00  0.00    -0.081 Cl
HETATM   21  C14 UNL     1      25.598  -0.820  52.951  1.00  0.00     0.040 A 
ENDBRANCH   7  14
BRANCH   3  22
HETATM   22  C4  UNL     1      18.260  -1.336  53.454  1.00  0.00     0.172 C 
HETATM   23  O1  UNL     1      18.701  -2.487  53.708  1.00  0.00    -0.646 OA
BRANCH  22  24
HETATM   24  O2  UNL     1      17.058  -0.865  53.900  1.00  0.00    -0.773 OA
HETATM   25  H5  UNL     1      16.381  -1.527  54.312  1.00  0.00     0.167 HD
ENDBRANCH  22  24
ENDBRANCH   3  22
BRANCH   1  26
HETATM   26  N1  UNL     1      18.348   1.841  50.052  1.00  0.00     0.094 N 
HETATM   27  H1  UNL     1      18.809   2.745  50.305  1.00  0.00     0.314 HD
HETATM   28  H2  UNL     1      18.030   1.817  49.057  1.00  0.00     0.314 HD
ENDBRANCH   1  26
TORSDOF 4
ENDMDL
MODEL 6
REMARK VINA RESULT:      -8.8      2.447      3.833
REMARK  4 active torsions:
REMARK  status: ('A' for Active; 'I' for Inactive)
REMARK    1  A    between atoms: N1_1  and  C1_2 
REMARK    2  A    between atoms: C3_4  and  C4_5 
REMARK    3  A    between atoms: C4_5  and  O2_7 
REMARK    4  A    between atoms: C8_11  and  C9_12 
ROOT
HETATM    1  C1  UNL     1      27.100   0.644  52.826  1.00  0.00     0.317 C 
HETATM    2  C2  UNL     1      27.065   1.842  51.878  1.00  0.00     0.031 C 
HETATM    3  C3  UNL     1      26.011   2.475  51.274  1.00  0.00     0.021 C 
HETATM    4  C5  UNL     1      24.645   2.147  51.669  1.00  0.00     0.053 C 
HETATM    5  C6  UNL     1      23.458   2.588  50.976  1.00  0.00     0.041 C 
HETATM    6  C7  UNL     1      22.344   1.706  51.430  1.00  0.00     0.007 C 
HETATM    7  C8  UNL     1      22.036   0.639  52.196  1.00  0.00     0.064 C 
HETATM    8  N2  UNL     1      23.154   0.116  52.817  1.00  0.00    -0.242 NA
HETATM    9  C15 UNL     1      23.470  -0.349  53.942  1.00  0.00     0.236 C 
HETATM   10  N3  UNL     1      24.779  -0.515  53.344  1.00  0.00    -0.220 NA
HETATM   11  C16 UNL     1      25.695   0.383  53.306  1.00  0.00     0.178 C 
HETATM   12  O3  UNL     1      25.187   1.549  53.956  1.00  0.00    -0.335 OA
HETATM   13  C17 UNL     1      24.533   2.528  53.126  1.00  0.00     0.186 C 
ENDROOT
BRANCH   7  14
HETATM   14  C9  UNL     1      20.677   0.125  52.314  1.00  0.00    -0.006 A 
HETATM   15  C10 UNL     1      20.136  -0.560  53.371  1.00  0.00     0.017 A 
HETATM   16  C11 UNL     1      18.838  -1.011  53.419  1.00  0.00     0.045 A 
HETATM   17  C12 UNL     1      18.050  -0.744  52.319  1.00  0.00     0.138 A 
HETATM   18  F1  UNL     1      16.755  -1.161  52.298  1.00  0.00    -0.204 F 
HETATM   19  C13 UNL     1      18.590  -0.055  51.254  1.00  0.00     0.073 A 
HETATM   20 CL1  UNL     1      17.538   0.251  49.889  1.00  0.00    -0.081 Cl
HETATM   21  C14 UNL     1      19.895   0.379  51.245  1.00  0.00     0.040 A 
ENDBRANCH   7  14
BRANCH   3  22
HETATM   22  C4  UNL     1      26.353   3.439  50.273  1.00  0.00     0.172 C 
HETATM   23  O1  UNL     1      26.914   2.996  49.237  1.00  0.00    -0.646 OA
BRANCH  22  24
HETATM   24  O2  UNL     1      26.066   4.759  50.477  1.00  0.00    -0.773 OA
HETATM   25  H5  UNL     1      25.182   5.014  50.945  1.00  0.00     0.167 HD
ENDBRANCH  22  24
ENDBRANCH   3  22
BRANCH   1  26
HETATM   26  N1  UNL     1      27.886   1.045  53.959  1.00  0.00     0.094 N 
HETATM   27  H1  UNL     1      27.339   1.554  54.692  1.00  0.00     0.314 HD
HETATM   28  H2  UNL     1      28.374   0.202  54.336  1.00  0.00     0.314 HD
ENDBRANCH   1  26
TORSDOF 4
ENDMDL
MODEL 7
REMARK VINA RESULT:      -8.7      4.540      7.703
REMARK  4 active torsions:
REMARK  status: ('A' for Active; 'I' for Inactive)
REMARK    1  A    between atoms: N1_1  and  C1_2 
REMARK    2  A    between atoms: C3_4  and  C4_5 
REMARK    3  A    between atoms: C4_5  and  O2_7 
REMARK    4  A    between atoms: C8_11  and  C9_12 
ROOT
HETATM    1  C1  UNL     1      20.153   2.189  52.694  1.00  0.00     0.317 C 
HETATM    2  C2  UNL     1      20.481   3.442  51.881  1.00  0.00     0.031 C 
HETATM    3  C3  UNL     1      21.678   3.919  51.416  1.00  0.00     0.021 C 
HETATM    4  C5  UNL     1      22.873   3.085  51.499  1.00  0.00     0.053 C 
HETATM    5  C6  UNL     1      24.216   3.542  51.235  1.00  0.00     0.041 C 
HETATM    6  C7  UNL     1      25.138   2.535  51.837  1.00  0.00     0.007 C 
HETATM    7  C8  UNL     1      25.193   1.399  52.563  1.00  0.00     0.064 C 
HETATM    8  N2  UNL     1      23.933   0.961  52.923  1.00  0.00    -0.242 NA
HETATM    9  C15 UNL     1      23.307  -0.127  53.006  1.00  0.00     0.236 C 
HETATM   10  N3  UNL     1      22.208   0.707  53.451  1.00  0.00    -0.220 NA
HETATM   11  C16 UNL     1      21.364   1.291  52.683  1.00  0.00     0.178 C 
HETATM   12  O3  UNL     1      21.706   0.966  51.334  1.00  0.00    -0.335 OA
HETATM   13  C17 UNL     1      22.590   1.872  50.647  1.00  0.00     0.186 C 
ENDROOT
BRANCH   7  14
HETATM   14  C9  UNL     1      26.452   0.754  52.914  1.00  0.00    -0.006 A 
HETATM   15  C10 UNL     1      26.818  -0.545  52.670  1.00  0.00     0.017 A 
HETATM   16  C11 UNL     1      28.031  -1.088  53.023  1.00  0.00     0.045 A 
HETATM   17  C12 UNL     1      28.919  -0.249  53.665  1.00  0.00     0.138 A 
HETATM   18  F1  UNL     1      30.139  -0.720  54.044  1.00  0.00    -0.204 F 
HETATM   19  C13 UNL     1      28.556   1.057  53.913  1.00  0.00     0.073 A 
HETATM   20 CL1  UNL     1      29.727   2.067  54.730  1.00  0.00    -0.081 Cl
HETATM   21  C14 UNL     1      27.331   1.561  53.543  1.00  0.00     0.040 A 
ENDBRANCH   7  14
BRANCH   3  22
HETATM   22  C4  UNL     1      21.651   5.241  50.868  1.00  0.00     0.172 C 
HETATM   23  O1  UNL     1      21.387   5.332  49.640  1.00  0.00    -0.646 OA
BRANCH  22  24
HETATM   24  O2  UNL     1      21.905   6.315  51.673  1.00  0.00    -0.773 OA
HETATM   25  H5  UNL     1      21.112   6.857  52.052  1.00  0.00     0.167 HD
ENDBRANCH  22  24
ENDBRANCH   3  22
BRANCH   1  26
HETATM   26  N1  UNL     1      19.098   1.514  51.991  1.00  0.00     0.094 N 
HETATM   27  H1  UNL     1      19.423   0.984  51.150  1.00  0.00     0.314 HD
HETATM   28  H2  UNL     1      18.583   0.911  52.671  1.00  0.00     0.314 HD
ENDBRANCH   1  26
TORSDOF 4
ENDMDL
MODEL 8
REMARK VINA RESULT:      -8.6      4.652      6.157
REMARK  4 active torsions:
REMARK  status: ('A' for Active; 'I' for Inactive)
REMARK    1  A    between atoms: N1_1  and  C1_2 
REMARK    2  A    between atoms: C3_4  and  C4_5 
REMARK    3  A    between atoms: C4_5  and  O2_7 
REMARK    4  A    between atoms: C8_11  and  C9_12 
ROOT
HETATM    1  C1  UNL     1      24.870   7.714  50.496  1.00  0.00     0.317 C 
HETATM    2  C2  UNL     1      26.016   7.245  49.600  1.00  0.00     0.031 C 
HETATM    3  C3  UNL     1      26.452   5.983  49.290  1.00  0.00     0.021 C 
HETATM    4  C5  UNL     1      25.655   4.824  49.681  1.00  0.00     0.053 C 
HETATM    5  C6  UNL     1      26.097   3.454  49.595  1.00  0.00     0.041 C 
HETATM    6  C7  UNL     1      25.189   2.654  50.468  1.00  0.00     0.007 C 
HETATM    7  C8  UNL     1      24.154   2.731  51.330  1.00  0.00     0.064 C 
HETATM    8  N2  UNL     1      23.744   4.036  51.522  1.00  0.00    -0.242 NA
HETATM    9  C15 UNL     1      22.665   4.672  51.634  1.00  0.00     0.236 C 
HETATM   10  N3  UNL     1      23.530   5.827  51.776  1.00  0.00    -0.220 NA
HETATM   11  C16 UNL     1      23.999   6.524  50.806  1.00  0.00     0.178 C 
HETATM   12  O3  UNL     1      23.513   5.956  49.588  1.00  0.00    -0.335 OA
HETATM   13  C17 UNL     1      24.340   4.963  48.953  1.00  0.00     0.186 C 
ENDROOT
BRANCH   7  14
HETATM   14  C9  UNL     1      23.579   1.553  51.971  1.00  0.00    -0.006 A 
HETATM   15  C10 UNL     1      22.360   0.980  51.716  1.00  0.00     0.017 A 
HETATM   16  C11 UNL     1      21.882  -0.139  52.355  1.00  0.00     0.045 A 
HETATM   17  C12 UNL     1      22.702  -0.703  53.310  1.00  0.00     0.138 A 
HETATM   18  F1  UNL     1      22.292  -1.813  53.983  1.00  0.00    -0.204 F 
HETATM   19  C13 UNL     1      23.929  -0.130  53.570  1.00  0.00     0.073 A 
HETATM   20 CL1  UNL     1      24.920  -0.892  54.793  1.00  0.00    -0.081 Cl
HETATM   21  C14 UNL     1      24.370   0.992  52.908  1.00  0.00     0.040 A 
ENDBRANCH   7  14
BRANCH   3  22
HETATM   22  C4  UNL     1      27.694   5.908  48.583  1.00  0.00     0.172 C 
HETATM   23  O1  UNL     1      27.786   6.608  47.540  1.00  0.00    -0.646 OA
BRANCH  22  24
HETATM   24  O2  UNL     1      28.695   5.108  49.053  1.00  0.00    -0.773 OA
HETATM   25  H5  UNL     1      28.860   4.193  48.604  1.00  0.00     0.167 HD
ENDBRANCH  22  24
ENDBRANCH   3  22
BRANCH   1  26
HETATM   26  N1  UNL     1      24.096   8.636  49.715  1.00  0.00     0.094 N 
HETATM   27  H1  UNL     1      24.501   8.832  48.770  1.00  0.00     0.314 HD
HETATM   28  H2  UNL     1      23.114   8.281  49.665  1.00  0.00     0.314 HD
ENDBRANCH   1  26
TORSDOF 4
ENDMDL
MODEL 9
REMARK VINA RESULT:      -8.3      4.388      5.999
REMARK  4 active torsions:
REMARK  status: ('A' for Active; 'I' for Inactive)
REMARK    1  A    between atoms: N1_1  and  C1_2 
REMARK    2  A    between atoms: C3_4  and  C4_5 
REMARK    3  A    between atoms: C4_5  and  O2_7 
REMARK    4  A    between atoms: C8_11  and  C9_12 
ROOT
HETATM    1  C1  UNL     1      22.408  -1.084  53.470  1.00  0.00     0.317 C 
HETATM    2  C2  UNL     1      23.809  -0.662  53.912  1.00  0.00     0.031 C 
HETATM    3  C3  UNL     1      24.659   0.287  53.409  1.00  0.00     0.021 C 
HETATM    4  C5  UNL     1      24.180   1.227  52.399  1.00  0.00     0.053 C 
HETATM    5  C6  UNL     1      25.020   2.130  51.650  1.00  0.00     0.041 C 
HETATM    6  C7  UNL     1      24.225   2.575  50.469  1.00  0.00     0.007 C 
HETATM    7  C8  UNL     1      23.053   2.422  49.820  1.00  0.00     0.064 C 
HETATM    8  N2  UNL     1      22.239   1.497  50.444  1.00  0.00    -0.242 NA
HETATM    9  C15 UNL     1      21.022   1.362  50.731  1.00  0.00     0.236 C 
HETATM   10  N3  UNL     1      21.448   0.104  51.311  1.00  0.00    -0.220 NA
HETATM   11  C16 UNL     1      21.887  -0.049  52.507  1.00  0.00     0.178 C 
HETATM   12  O3  UNL     1      21.872   1.231  53.142  1.00  0.00    -0.335 OA
HETATM   13  C17 UNL     1      23.076   2.017  53.060  1.00  0.00     0.186 C 
ENDROOT
BRANCH   7  14
HETATM   14  C9  UNL     1      22.731   3.155  48.600  1.00  0.00    -0.006 A 
HETATM   15  C10 UNL     1      22.181   2.653  47.449  1.00  0.00     0.017 A 
HETATM   16  C11 UNL     1      21.895   3.405  46.335  1.00  0.00     0.045 A 
HETATM   17  C12 UNL     1      22.190   4.751  46.406  1.00  0.00     0.138 A 
HETATM   18  F1  UNL     1      21.933   5.557  45.340  1.00  0.00    -0.204 F 
HETATM   19  C13 UNL     1      22.743   5.260  47.562  1.00  0.00     0.073 A 
HETATM   20 CL1  UNL     1      23.093   6.974  47.587  1.00  0.00    -0.081 Cl
HETATM   21  C14 UNL     1      23.014   4.472  48.655  1.00  0.00     0.040 A 
ENDBRANCH   7  14
BRANCH   3  22
HETATM   22  C4  UNL     1      25.989   0.276  53.936  1.00  0.00     0.172 C 
HETATM   23  O1  UNL     1      26.651  -0.781  53.763  1.00  0.00    -0.646 OA
BRANCH  22  24
HETATM   24  O2  UNL     1      26.470   1.378  54.584  1.00  0.00    -0.773 OA
HETATM   25  H5  UNL     1      26.447   2.293  54.106  1.00  0.00     0.167 HD
ENDBRANCH  22  24
ENDBRANCH   3  22
BRANCH   1  26
HETATM   26  N1  UNL     1      21.583  -1.048  54.645  1.00  0.00     0.094 N 
HETATM   27  H1  UNL     1      21.883  -0.333  55.349  1.00  0.00     0.314 HD
HETATM   28  H2  UNL     1      20.590  -0.924  54.346  1.00  0.00     0.314 HD
ENDBRANCH   1  26
TORSDOF 4
ENDMDL
