MODEL 1
REMARK VINA RESULT:      -7.8      0.000      0.000
REMARK  3 active torsions:
REMARK  status: ('A' for Active; 'I' for Inactive)
REMARK    1  A    between atoms: N1_1  and  C1_2 
REMARK    2  A    between atoms: C5_9  and  N4_10 
REMARK    3  A    between atoms: N4_10  and  P1_11 
ROOT
HETATM    1  C1  UNL     1      28.469  -2.066  53.216  1.00  0.00     0.007 A 
HETATM    2  C2  UNL     1      29.595  -1.441  53.392  1.00  0.00     0.031 A 
HETATM    3  C3  UNL     1      29.656   0.023  53.632  1.00  0.00     0.064 A 
HETATM    4  S1  UNL     1      28.206   0.745  53.651  1.00  0.00    -0.038 SA
HETATM    5  N2  UNL     1      27.768   2.447  53.896  1.00  0.00    -0.212 NA
HETATM    6  C4  UNL     1      26.445   2.580  53.828  1.00  0.00     0.244 A 
HETATM    7  N3  UNL     1      25.459   1.625  53.608  1.00  0.00    -0.221 NA
HETATM    8  C5  UNL     1      25.469   0.384  53.408  1.00  0.00     0.168 A 
HETATM    9  C11 UNL     1      26.776  -0.317  53.383  1.00  0.00     0.065 A 
HETATM   10  C12 UNL     1      27.080  -1.614  53.194  1.00  0.00     0.047 A 
ENDROOT
BRANCH   8  11
HETATM   11  N4  UNL     1      24.371  -0.533  53.186  1.00  0.00    -0.233 NA
BRANCH  11  12
HETATM   12  P1  UNL     1      22.996   0.206  52.902  1.00  0.00     0.060 P 
HETATM   13  C6  UNL     1      22.817   0.980  51.488  1.00  0.00     0.037 A 
HETATM   14  C7  UNL     1      21.459   1.035  50.900  1.00  0.00     0.047 A 
HETATM   15  C8  UNL     1      20.395   0.469  51.497  1.00  0.00     0.138 A 
HETATM   16  F1  UNL     1      19.202   0.606  50.823  1.00  0.00    -0.204 F 
HETATM   17  C9  UNL     1      20.363  -0.255  52.745  1.00  0.00     0.075 A 
HETATM   18 CL1  UNL     1      18.855  -0.916  53.347  1.00  0.00    -0.081 Cl
HETATM   19  C10 UNL     1      21.436  -0.471  53.512  1.00  0.00     0.061 A 
ENDBRANCH  11  12
ENDBRANCH   8  11
BRANCH   1  20
HETATM   20  N1  UNL     1      28.580  -3.481  52.995  1.00  0.00    -0.303 NA
HETATM   21  H1  UNL     1      28.119  -4.354  53.299  1.00  0.00     0.124 HD
HETATM   22  H2  UNL     1      27.923  -4.160  53.478  1.00  0.00     0.124 HD
ENDBRANCH   1  20
TORSDOF 3
ENDMDL
MODEL 2
REMARK VINA RESULT:      -7.6      4.266      7.006
REMARK  3 active torsions:
REMARK  status: ('A' for Active; 'I' for Inactive)
REMARK    1  A    between atoms: N1_1  and  C1_2 
REMARK    2  A    between atoms: C5_9  and  N4_10 
REMARK    3  A    between atoms: N4_10  and  P1_11 
ROOT
HETATM    1  C1  UNL     1      21.587  -0.433  53.778  1.00  0.00     0.007 A 
HETATM    2  C2  UNL     1      20.604  -0.439  52.928  1.00  0.00     0.031 A 
HETATM    3  C3  UNL     1      20.654   0.328  51.658  1.00  0.00     0.064 A 
HETATM    4  S1  UNL     1      22.032   1.154  51.445  1.00  0.00    -0.038 SA
HETATM    5  N2  UNL     1      22.556   2.199  50.110  1.00  0.00    -0.212 NA
HETATM    6  C4  UNL     1      23.774   2.671  50.366  1.00  0.00     0.244 A 
HETATM    7  N3  UNL     1      24.606   2.457  51.460  1.00  0.00    -0.221 NA
HETATM    8  C5  UNL     1      24.507   1.789  52.520  1.00  0.00     0.168 A 
HETATM    9  C11 UNL     1      23.261   1.017  52.754  1.00  0.00     0.065 A 
HETATM   10  C12 UNL     1      22.889   0.230  53.780  1.00  0.00     0.047 A 
ENDROOT
BRANCH   8  11
HETATM   11  N4  UNL     1      25.443   1.629  53.612  1.00  0.00    -0.233 NA
BRANCH  11  12
HETATM   12  P1  UNL     1      26.848   1.061  53.144  1.00  0.00     0.060 P 
HETATM   13  C6  UNL     1      28.189   1.843  53.612  1.00  0.00     0.037 A 
HETATM   14  C7  UNL     1      29.414   1.040  53.832  1.00  0.00     0.047 A 
HETATM   15  C8  UNL     1      29.439  -0.293  53.657  1.00  0.00     0.138 A 
HETATM   16  F1  UNL     1      30.653  -0.895  53.903  1.00  0.00    -0.204 F 
HETATM   17  C9  UNL     1      28.353  -1.152  53.249  1.00  0.00     0.075 A 
HETATM   18 CL1  UNL     1      28.604  -2.879  53.082  1.00  0.00    -0.081 Cl
HETATM   19  C10 UNL     1      27.118  -0.718  52.976  1.00  0.00     0.061 A 
ENDBRANCH  11  12
ENDBRANCH   8  11
BRANCH   1  20
HETATM   20  N1  UNL     1      21.383  -1.225  54.959  1.00  0.00    -0.303 NA
HETATM   21  H1  UNL     1      20.917  -2.105  55.234  1.00  0.00     0.124 HD
HETATM   22  H2  UNL     1      20.830  -2.130  54.919  1.00  0.00     0.124 HD
ENDBRANCH   1  20
TORSDOF 3
ENDMDL
MODEL 3
REMARK VINA RESULT:      -7.4      4.231      7.186
REMARK  3 active torsions:
REMARK  status: ('A' for Active; 'I' for Inactive)
REMARK    1  A    between atoms: N1_1  and  C1_2 
REMARK    2  A    between atoms: C5_9  and  N4_10 
REMARK    3  A    between atoms: N4_10  and  P1_11 
ROOT
HETATM    1  C1  UNL     1      20.664   0.286  52.053  1.00  0.00     0.007 A 
HETATM    2  C2  UNL     1      19.846  -0.378  52.815  1.00  0.00     0.031 A 
HETATM    3  C3  UNL     1      20.305  -1.084  54.038  1.00  0.00     0.064 A 
HETATM    4  S1  UNL     1      21.894  -0.945  54.318  1.00  0.00    -0.038 SA
HETATM    5  N2  UNL     1      22.896  -1.600  55.629  1.00  0.00    -0.212 NA
HETATM    6  C4  UNL     1      24.162  -1.227  55.449  1.00  0.00     0.244 A 
HETATM    7  N3  UNL     1      24.734  -0.454  54.445  1.00  0.00    -0.221 NA
HETATM    8  C5  UNL     1      24.289   0.124  53.421  1.00  0.00     0.168 A 
HETATM    9  C11 UNL     1      22.838   0.023  53.128  1.00  0.00     0.065 A 
HETATM   10  C12 UNL     1      22.102   0.531  52.122  1.00  0.00     0.047 A 
ENDROOT
BRANCH   8  11
HETATM   11  N4  UNL     1      24.978   0.915  52.424  1.00  0.00    -0.233 NA
BRANCH  11  12
HETATM   12  P1  UNL     1      26.524   0.573  52.324  1.00  0.00     0.060 P 
HETATM   13  C6  UNL     1      27.589   1.644  52.915  1.00  0.00     0.037 A 
HETATM   14  C7  UNL     1      28.852   1.118  53.482  1.00  0.00     0.047 A 
HETATM   15  C8  UNL     1      29.129  -0.198  53.519  1.00  0.00     0.138 A 
HETATM   16  F1  UNL     1      30.343  -0.527  54.078  1.00  0.00    -0.204 F 
HETATM   17  C9  UNL     1      28.310  -1.288  53.044  1.00  0.00     0.075 A 
HETATM   18 CL1  UNL     1      28.867  -2.943  53.190  1.00  0.00    -0.081 Cl
HETATM   19  C10 UNL     1      27.109  -1.129  52.479  1.00  0.00     0.061 A 
ENDBRANCH  11  12
ENDBRANCH   8  11
BRANCH   1  20
HETATM   20  N1  UNL     1      20.065   0.913  50.908  1.00  0.00    -0.303 NA
HETATM   21  H1  UNL     1      19.238   0.794  50.301  1.00  0.00     0.124 HD
HETATM   22  H2  UNL     1      19.164   0.537  50.490  1.00  0.00     0.124 HD
ENDBRANCH   1  20
TORSDOF 3
ENDMDL
MODEL 4
REMARK VINA RESULT:      -7.0      4.168      5.509
REMARK  3 active torsions:
REMARK  status: ('A' for Active; 'I' for Inactive)
REMARK    1  A    between atoms: N1_1  and  C1_2 
REMARK    2  A    between atoms: C5_9  and  N4_10 
REMARK    3  A    between atoms: N4_10  and  P1_11 
ROOT
HETATM    1  C1  UNL     1      22.437  -0.995  54.675  1.00  0.00     0.007 A 
HETATM    2  C2  UNL     1      23.264  -1.447  55.571  1.00  0.00     0.031 A 
HETATM    3  C3  UNL     1      24.724  -1.187  55.498  1.00  0.00     0.064 A 
HETATM    4  S1  UNL     1      25.169  -0.302  54.215  1.00  0.00    -0.038 SA
HETATM    5  N2  UNL     1      26.773   0.261  53.703  1.00  0.00    -0.212 NA
HETATM    6  C4  UNL     1      26.658   0.963  52.577  1.00  0.00     0.244 A 
HETATM    7  N3  UNL     1      25.530   1.277  51.828  1.00  0.00    -0.221 NA
HETATM    8  C5  UNL     1      24.303   1.025  51.941  1.00  0.00     0.168 A 
HETATM    9  C11 UNL     1      23.853   0.218  53.102  1.00  0.00     0.065 A 
HETATM   10  C12 UNL     1      22.625  -0.196  53.467  1.00  0.00     0.047 A 
ENDROOT
BRANCH   8  11
HETATM   11  N4  UNL     1      23.192   1.404  51.095  1.00  0.00    -0.233 NA
BRANCH  11  12
HETATM   12  P1  UNL     1      23.082   2.972  50.883  1.00  0.00     0.060 P 
HETATM   13  C6  UNL     1      22.792   3.904  52.178  1.00  0.00     0.037 A 
HETATM   14  C7  UNL     1      23.367   5.269  52.187  1.00  0.00     0.047 A 
HETATM   15  C8  UNL     1      24.109   5.742  51.170  1.00  0.00     0.138 A 
HETATM   16  F1  UNL     1      24.573   7.029  51.330  1.00  0.00    -0.204 F 
HETATM   17  C9  UNL     1      24.469   5.063  49.948  1.00  0.00     0.075 A 
HETATM   18 CL1  UNL     1      25.453   5.871  48.743  1.00  0.00    -0.081 Cl
HETATM   19  C10 UNL     1      24.097   3.814  49.648  1.00  0.00     0.061 A 
ENDBRANCH  11  12
ENDBRANCH   8  11
BRANCH   1  20
HETATM   20  N1  UNL     1      21.057  -1.334  54.888  1.00  0.00    -0.303 NA
HETATM   21  H1  UNL     1      20.376  -1.369  55.664  1.00  0.00     0.124 HD
HETATM   22  H2  UNL     1      20.622  -1.264  55.854  1.00  0.00     0.124 HD
ENDBRANCH   1  20
TORSDOF 3
ENDMDL
MODEL 5
REMARK VINA RESULT:      -7.0      4.416      6.226
REMARK  3 active torsions:
REMARK  status: ('A' for Active; 'I' for Inactive)
REMARK    1  A    between atoms: N1_1  and  C1_2 
REMARK    2  A    between atoms: C5_9  and  N4_10 
REMARK    3  A    between atoms: N4_10  and  P1_11 
ROOT
HETATM    1  C1  UNL     1      21.514  -0.226  53.880  1.00  0.00     0.007 A 
HETATM    2  C2  UNL     1      21.742  -1.012  54.890  1.00  0.00     0.031 A 
HETATM    3  C3  UNL     1      23.119  -1.366  55.319  1.00  0.00     0.064 A 
HETATM    4  S1  UNL     1      24.281  -0.684  54.419  1.00  0.00    -0.038 SA
HETATM    5  N2  UNL     1      26.048  -0.800  54.536  1.00  0.00    -0.212 NA
HETATM    6  C4  UNL     1      26.607  -0.065  53.577  1.00  0.00     0.244 A 
HETATM    7  N3  UNL     1      26.017   0.713  52.586  1.00  0.00    -0.221 NA
HETATM    8  C5  UNL     1      24.830   0.977  52.268  1.00  0.00     0.168 A 
HETATM    9  C11 UNL     1      23.735   0.373  53.067  1.00  0.00     0.065 A 
HETATM   10  C12 UNL     1      22.398   0.479  52.955  1.00  0.00     0.047 A 
ENDROOT
BRANCH   8  11
HETATM   11  N4  UNL     1      24.314   1.810  51.204  1.00  0.00    -0.233 NA
BRANCH  11  12
HETATM   12  P1  UNL     1      25.165   3.131  50.984  1.00  0.00     0.060 P 
HETATM   13  C6  UNL     1      26.367   3.100  49.897  1.00  0.00     0.037 A 
HETATM   14  C7  UNL     1      26.671   4.353  49.170  1.00  0.00     0.047 A 
HETATM   15  C8  UNL     1      25.988   5.492  49.386  1.00  0.00     0.138 A 
HETATM   16  F1  UNL     1      26.391   6.571  48.631  1.00  0.00    -0.204 F 
HETATM   17  C9  UNL     1      24.897   5.707  50.306  1.00  0.00     0.075 A 
HETATM   18 CL1  UNL     1      24.142   7.285  50.431  1.00  0.00    -0.081 Cl
HETATM   19  C10 UNL     1      24.394   4.760  51.105  1.00  0.00     0.061 A 
ENDBRANCH  11  12
ENDBRANCH   8  11
BRANCH   1  20
HETATM   20  N1  UNL     1      20.128   0.017  53.593  1.00  0.00    -0.303 NA
HETATM   21  H1  UNL     1      19.222  -0.476  53.655  1.00  0.00     0.124 HD
HETATM   22  H2  UNL     1      19.395  -0.728  53.775  1.00  0.00     0.124 HD
ENDBRANCH   1  20
TORSDOF 3
ENDMDL
MODEL 6
REMARK VINA RESULT:      -7.0      3.011      3.996
REMARK  3 active torsions:
REMARK  status: ('A' for Active; 'I' for Inactive)
REMARK    1  A    between atoms: N1_1  and  C1_2 
REMARK    2  A    between atoms: C5_9  and  N4_10 
REMARK    3  A    between atoms: N4_10  and  P1_11 
ROOT
HETATM    1  C1  UNL     1      28.353   1.980  53.512  1.00  0.00     0.007 A 
HETATM    2  C2  UNL     1      28.771   1.221  54.481  1.00  0.00     0.031 A 
HETATM    3  C3  UNL     1      27.917   0.165  55.080  1.00  0.00     0.064 A 
HETATM    4  S1  UNL     1      26.443   0.058  54.415  1.00  0.00    -0.038 SA
HETATM    5  N2  UNL     1      25.088  -1.028  54.781  1.00  0.00    -0.212 NA
HETATM    6  C4  UNL     1      24.066  -0.752  53.975  1.00  0.00     0.244 A 
HETATM    7  N3  UNL     1      23.950   0.203  52.970  1.00  0.00    -0.221 NA
HETATM    8  C5  UNL     1      24.718   1.082  52.502  1.00  0.00     0.168 A 
HETATM    9  C11 UNL     1      26.077   1.213  53.082  1.00  0.00     0.065 A 
HETATM   10  C12 UNL     1      27.089   2.049  52.784  1.00  0.00     0.047 A 
ENDROOT
BRANCH   8  11
HETATM   11  N4  UNL     1      24.499   2.040  51.440  1.00  0.00    -0.233 NA
BRANCH  11  12
HETATM   12  P1  UNL     1      23.528   3.221  51.863  1.00  0.00     0.060 P 
HETATM   13  C6  UNL     1      23.961   4.741  51.500  1.00  0.00     0.037 A 
HETATM   14  C7  UNL     1      22.883   5.714  51.211  1.00  0.00     0.047 A 
HETATM   15  C8  UNL     1      21.582   5.374  51.241  1.00  0.00     0.138 A 
HETATM   16  F1  UNL     1      20.702   6.392  50.948  1.00  0.00    -0.204 F 
HETATM   17  C9  UNL     1      21.013   4.082  51.540  1.00  0.00     0.075 A 
HETATM   18 CL1  UNL     1      19.274   3.854  51.523  1.00  0.00    -0.081 Cl
HETATM   19  C10 UNL     1      21.735   2.998  51.842  1.00  0.00     0.061 A 
ENDBRANCH  11  12
ENDBRANCH   8  11
BRANCH   1  20
HETATM   20  N1  UNL     1      29.299   2.954  53.043  1.00  0.00    -0.303 NA
HETATM   21  H1  UNL     1      30.292   3.203  53.181  1.00  0.00     0.124 HD
HETATM   22  H2  UNL     1      30.302   2.951  53.390  1.00  0.00     0.124 HD
ENDBRANCH   1  20
TORSDOF 3
ENDMDL
MODEL 7
REMARK VINA RESULT:      -6.9      4.548      5.833
REMARK  3 active torsions:
REMARK  status: ('A' for Active; 'I' for Inactive)
REMARK    1  A    between atoms: N1_1  and  C1_2 
REMARK    2  A    between atoms: C5_9  and  N4_10 
REMARK    3  A    between atoms: N4_10  and  P1_11 
ROOT
HETATM    1  C1  UNL     1      26.863   1.721  53.930  1.00  0.00     0.007 A 
HETATM    2  C2  UNL     1      27.030   0.467  54.229  1.00  0.00     0.031 A 
HETATM    3  C3  UNL     1      25.952  -0.537  54.049  1.00  0.00     0.064 A 
HETATM    4  S1  UNL     1      24.576   0.078  53.454  1.00  0.00    -0.038 SA
HETATM    5  N2  UNL     1      23.032  -0.709  53.070  1.00  0.00    -0.212 NA
HETATM    6  C4  UNL     1      22.177   0.197  52.600  1.00  0.00     0.244 A 
HETATM    7  N3  UNL     1      22.341   1.562  52.394  1.00  0.00    -0.221 NA
HETATM    8  C5  UNL     1      23.290   2.368  52.569  1.00  0.00     0.168 A 
HETATM    9  C11 UNL     1      24.568   1.846  53.112  1.00  0.00     0.065 A 
HETATM   10  C12 UNL     1      25.728   2.468  53.394  1.00  0.00     0.047 A 
ENDROOT
BRANCH   8  11
HETATM   11  N4  UNL     1      23.361   3.792  52.320  1.00  0.00    -0.233 NA
BRANCH  11  12
HETATM   12  P1  UNL     1      23.682   4.140  50.806  1.00  0.00     0.060 P 
HETATM   13  C6  UNL     1      22.749   5.233  50.053  1.00  0.00     0.037 A 
HETATM   14  C7  UNL     1      23.379   6.074  49.011  1.00  0.00     0.047 A 
HETATM   15  C8  UNL     1      24.678   5.957  48.681  1.00  0.00     0.138 A 
HETATM   16  F1  UNL     1      25.113   6.811  47.693  1.00  0.00    -0.204 F 
HETATM   17  C9  UNL     1      25.653   5.049  49.238  1.00  0.00     0.075 A 
HETATM   18 CL1  UNL     1      27.307   5.061  48.658  1.00  0.00    -0.081 Cl
HETATM   19  C10 UNL     1      25.384   4.162  50.201  1.00  0.00     0.061 A 
ENDBRANCH  11  12
ENDBRANCH   8  11
BRANCH   1  20
HETATM   20  N1  UNL     1      28.002   2.565  54.163  1.00  0.00    -0.303 NA
HETATM   21  H1  UNL     1      28.567   3.266  53.657  1.00  0.00     0.124 HD
HETATM   22  H2  UNL     1      28.365   3.212  53.404  1.00  0.00     0.124 HD
ENDBRANCH   1  20
TORSDOF 3
ENDMDL
MODEL 8
REMARK VINA RESULT:      -6.9      4.524      7.374
REMARK  3 active torsions:
REMARK  status: ('A' for Active; 'I' for Inactive)
REMARK    1  A    between atoms: N1_1  and  C1_2 
REMARK    2  A    between atoms: C5_9  and  N4_10 
REMARK    3  A    between atoms: N4_10  and  P1_11 
ROOT
HETATM    1  C1  UNL     1      23.453   5.456  51.745  1.00  0.00     0.007 A 
HETATM    2  C2  UNL     1      22.577   5.738  50.826  1.00  0.00     0.031 A 
HETATM    3  C3  UNL     1      21.735   4.693  50.191  1.00  0.00     0.064 A 
HETATM    4  S1  UNL     1      22.015   3.198  50.749  1.00  0.00    -0.038 SA
HETATM    5  N2  UNL     1      21.275   1.646  50.309  1.00  0.00    -0.212 NA
HETATM    6  C4  UNL     1      21.822   0.671  51.033  1.00  0.00     0.244 A 
HETATM    7  N3  UNL     1      22.816   0.727  52.004  1.00  0.00    -0.221 NA
HETATM    8  C5  UNL     1      23.501   1.654  52.507  1.00  0.00     0.168 A 
HETATM    9  C11 UNL     1      23.276   3.039  52.024  1.00  0.00     0.065 A 
HETATM   10  C12 UNL     1      23.854   4.202  52.376  1.00  0.00     0.047 A 
ENDROOT
BRANCH   8  11
HETATM   11  N4  UNL     1      24.526   1.607  53.528  1.00  0.00    -0.233 NA
BRANCH  11  12
HETATM   12  P1  UNL     1      25.930   1.122  52.973  1.00  0.00     0.060 P 
HETATM   13  C6  UNL     1      27.252   1.970  53.378  1.00  0.00     0.037 A 
HETATM   14  C7  UNL     1      28.528   1.233  53.516  1.00  0.00     0.047 A 
HETATM   15  C8  UNL     1      28.615  -0.095  53.317  1.00  0.00     0.138 A 
HETATM   16  F1  UNL     1      29.872  -0.633  53.484  1.00  0.00    -0.204 F 
HETATM   17  C9  UNL     1      27.555  -1.006  52.955  1.00  0.00     0.075 A 
HETATM   18 CL1  UNL     1      27.890  -2.714  52.745  1.00  0.00    -0.081 Cl
HETATM   19  C10 UNL     1      26.286  -0.636  52.759  1.00  0.00     0.061 A 
ENDBRANCH  11  12
ENDBRANCH   8  11
BRANCH   1  20
HETATM   20  N1  UNL     1      24.187   6.578  52.259  1.00  0.00    -0.303 NA
HETATM   21  H1  UNL     1      24.122   7.609  52.274  1.00  0.00     0.124 HD
HETATM   22  H2  UNL     1      23.845   7.571  52.101  1.00  0.00     0.124 HD
ENDBRANCH   1  20
TORSDOF 3
ENDMDL
MODEL 9
REMARK VINA RESULT:      -6.8      5.196      7.093
REMARK  3 active torsions:
REMARK  status: ('A' for Active; 'I' for Inactive)
REMARK    1  A    between atoms: N1_1  and  C1_2 
REMARK    2  A    between atoms: C5_9  and  N4_10 
REMARK    3  A    between atoms: N4_10  and  P1_11 
ROOT
HETATM    1  C1  UNL     1      26.762   5.110  49.156  1.00  0.00     0.007 A 
HETATM    2  C2  UNL     1      26.418   6.344  48.937  1.00  0.00     0.031 A 
HETATM    3  C3  UNL     1      25.133   6.904  49.427  1.00  0.00     0.064 A 
HETATM    4  S1  UNL     1      24.225   5.841  50.247  1.00  0.00    -0.038 SA
HETATM    5  N2  UNL     1      22.637   6.031  51.015  1.00  0.00    -0.212 NA
HETATM    6  C4  UNL     1      22.274   4.880  51.578  1.00  0.00     0.244 A 
HETATM    7  N3  UNL     1      22.937   3.659  51.626  1.00  0.00    -0.221 NA
HETATM    8  C5  UNL     1      24.037   3.240  51.186  1.00  0.00     0.168 A 
HETATM    9  C11 UNL     1      24.900   4.181  50.430  1.00  0.00     0.065 A 
HETATM   10  C12 UNL     1      26.105   4.009  49.855  1.00  0.00     0.047 A 
ENDROOT
BRANCH   8  11
HETATM   11  N4  UNL     1      24.645   1.931  51.291  1.00  0.00    -0.233 NA
BRANCH  11  12
HETATM   12  P1  UNL     1      25.331   1.679  52.699  1.00  0.00     0.060 P 
HETATM   13  C6  UNL     1      25.043   0.274  53.455  1.00  0.00     0.037 A 
HETATM   14  C7  UNL     1      26.120  -0.286  54.304  1.00  0.00     0.047 A 
HETATM   15  C8  UNL     1      27.306   0.330  54.457  1.00  0.00     0.138 A 
HETATM   16  F1  UNL     1      28.203  -0.317  55.277  1.00  0.00    -0.204 F 
HETATM   17  C9  UNL     1      27.739   1.575  53.867  1.00  0.00     0.075 A 
HETATM   18 CL1  UNL     1      29.340   2.205  54.203  1.00  0.00    -0.081 Cl
HETATM   19  C10 UNL     1      26.984   2.318  53.051  1.00  0.00     0.061 A 
ENDBRANCH  11  12
ENDBRANCH   8  11
BRANCH   1  20
HETATM   20  N1  UNL     1      28.035   4.722  48.615  1.00  0.00    -0.303 NA
HETATM   21  H1  UNL     1      28.412   4.238  47.784  1.00  0.00     0.124 HD
HETATM   22  H2  UNL     1      28.100   4.208  47.689  1.00  0.00     0.124 HD
ENDBRANCH   1  20
TORSDOF 3
ENDMDL
