MODEL 1
REMARK VINA RESULT:      -7.5      0.000      0.000
REMARK  2 active torsions:
REMARK  status: ('A' for Active; 'I' for Inactive)
REMARK    1  A    between atoms: O1_2  and  C2_3 
REMARK    2  A    between atoms: C7_8  and  O2_9 
ROOT
HETATM    1  C2  UNL     1      25.464  -0.010  53.553  1.00  0.00     0.103 A 
HETATM    2  C3  UNL     1      24.219   0.492  53.132  1.00  0.00     0.072 A 
HETATM    3  C4  UNL     1      23.993   1.405  52.095  1.00  0.00     0.071 A 
HETATM    4  C5  UNL     1      25.127   1.865  51.412  1.00  0.00     0.001 A 
HETATM    5  C6  UNL     1      26.331   1.352  51.849  1.00  0.00     0.053 A 
HETATM    6  C7  UNL     1      26.587   0.454  52.862  1.00  0.00     0.102 A 
HETATM    7  C9  UNL     1      25.223   2.788  50.432  1.00  0.00    -0.035 C 
HETATM    8  C10 UNL     1      26.457   3.271  49.698  1.00  0.00     0.184 C 
HETATM    9  N1  UNL     1      26.142   4.575  49.271  1.00  0.00    -0.300 NA
HETATM   10  C11 UNL     1      24.906   4.804  49.347  1.00  0.00     0.096 C 
HETATM   11  C12 UNL     1      24.138   3.595  49.879  1.00  0.00     0.080 C 
HETATM   12  C13 UNL     1      23.356   3.057  48.780  1.00  0.00    -0.015 C 
HETATM   13  C14 UNL     1      22.422   2.206  48.354  1.00  0.00    -0.008 C 
HETATM   14  C15 UNL     1      21.632   1.204  49.168  1.00  0.00     0.177 C 
HETATM   15  N2  UNL     1      22.120   1.304  50.510  1.00  0.00    -0.279 NA
HETATM   16  C16 UNL     1      21.857   2.162  51.380  1.00  0.00     0.227 C 
HETATM   17  N3  UNL     1      22.717   1.436  52.157  1.00  0.00    -0.242 NA
ENDROOT
BRANCH   1  18
HETATM   18  O1  UNL     1      25.708  -0.920  54.585  1.00  0.00    -0.353 OA
HETATM   19  C1  UNL     1      24.620  -1.210  55.467  1.00  0.00     0.210 C 
ENDBRANCH   1  18
BRANCH   6  20
HETATM   20  O2  UNL     1      27.838  -0.006  53.230  1.00  0.00    -0.353 OA
HETATM   21  C8  UNL     1      28.719   0.895  53.869  1.00  0.00     0.210 C 
ENDBRANCH   6  20
TORSDOF 2
ENDMDL
MODEL 2
REMARK VINA RESULT:      -7.5      1.182      3.721
REMARK  2 active torsions:
REMARK  status: ('A' for Active; 'I' for Inactive)
REMARK    1  A    between atoms: O1_2  and  C2_3 
REMARK    2  A    between atoms: C7_8  and  O2_9 
ROOT
HETATM    1  C2  UNL     1      27.236   0.727  53.645  1.00  0.00     0.103 A 
HETATM    2  C3  UNL     1      27.251   1.476  52.455  1.00  0.00     0.072 A 
HETATM    3  C4  UNL     1      26.144   1.824  51.672  1.00  0.00     0.071 A 
HETATM    4  C5  UNL     1      24.896   1.375  52.124  1.00  0.00     0.001 A 
HETATM    5  C6  UNL     1      24.917   0.645  53.294  1.00  0.00     0.053 A 
HETATM    6  C7  UNL     1      25.984   0.287  54.087  1.00  0.00     0.102 A 
HETATM    7  C9  UNL     1      23.681   1.494  51.547  1.00  0.00    -0.035 C 
HETATM    8  C10 UNL     1      22.338   1.008  52.051  1.00  0.00     0.184 C 
HETATM    9  N1  UNL     1      21.558   0.823  50.894  1.00  0.00    -0.300 NA
HETATM   10  C11 UNL     1      22.074   1.381  49.890  1.00  0.00     0.096 C 
HETATM   11  C12 UNL     1      23.383   2.084  50.245  1.00  0.00     0.080 C 
HETATM   12  C13 UNL     1      23.147   3.515  50.163  1.00  0.00    -0.015 C 
HETATM   13  C14 UNL     1      23.635   4.755  50.181  1.00  0.00    -0.008 C 
HETATM   14  C15 UNL     1      25.076   5.187  50.356  1.00  0.00     0.177 C 
HETATM   15  N2  UNL     1      25.833   3.988  50.554  1.00  0.00    -0.279 NA
HETATM   16  C16 UNL     1      26.224   3.157  49.706  1.00  0.00     0.227 C 
HETATM   17  N3  UNL     1      26.758   2.514  50.788  1.00  0.00    -0.242 NA
ENDROOT
BRANCH   1  18
HETATM   18  O1  UNL     1      28.329   0.369  54.439  1.00  0.00    -0.353 OA
HETATM   19  C1  UNL     1      29.304  -0.496  53.850  1.00  0.00     0.210 C 
ENDBRANCH   1  18
BRANCH   6  20
HETATM   20  O2  UNL     1      25.907  -0.453  55.253  1.00  0.00    -0.353 OA
HETATM   21  C8  UNL     1      24.708  -1.151  55.522  1.00  0.00     0.210 C 
ENDBRANCH   6  20
TORSDOF 2
ENDMDL
MODEL 3
REMARK VINA RESULT:      -7.4      2.061      4.627
REMARK  2 active torsions:
REMARK  status: ('A' for Active; 'I' for Inactive)
REMARK    1  A    between atoms: O1_2  and  C2_3 
REMARK    2  A    between atoms: C7_8  and  O2_9 
ROOT
HETATM    1  C2  UNL     1      26.220   3.256  50.336  1.00  0.00     0.103 A 
HETATM    2  C3  UNL     1      24.879   3.207  49.915  1.00  0.00     0.072 A 
HETATM    3  C4  UNL     1      23.837   2.496  50.523  1.00  0.00     0.071 A 
HETATM    4  C5  UNL     1      24.172   1.759  51.667  1.00  0.00     0.001 A 
HETATM    5  C6  UNL     1      25.494   1.831  52.053  1.00  0.00     0.053 A 
HETATM    6  C7  UNL     1      26.540   2.519  51.480  1.00  0.00     0.102 A 
HETATM    7  C9  UNL     1      23.405   0.933  52.409  1.00  0.00    -0.035 C 
HETATM    8  C10 UNL     1      23.779   0.146  53.649  1.00  0.00     0.184 C 
HETATM    9  N1  UNL     1      22.901  -0.954  53.662  1.00  0.00    -0.300 NA
HETATM   10  C11 UNL     1      21.933  -0.788  52.873  1.00  0.00     0.096 C 
HETATM   11  C12 UNL     1      22.018   0.555  52.150  1.00  0.00     0.080 C 
HETATM   12  C13 UNL     1      20.954   1.397  52.668  1.00  0.00    -0.015 C 
HETATM   13  C14 UNL     1      20.255   2.529  52.590  1.00  0.00    -0.008 C 
HETATM   14  C15 UNL     1      20.422   3.662  51.599  1.00  0.00     0.177 C 
HETATM   15  N2  UNL     1      21.532   3.307  50.769  1.00  0.00    -0.279 NA
HETATM   16  C16 UNL     1      21.571   2.509  49.807  1.00  0.00     0.227 C 
HETATM   17  N3  UNL     1      22.891   2.864  49.747  1.00  0.00    -0.242 NA
ENDROOT
BRANCH   1  18
HETATM   18  O1  UNL     1      27.272   3.959  49.741  1.00  0.00    -0.353 OA
HETATM   19  C1  UNL     1      26.922   5.040  48.872  1.00  0.00     0.210 C 
ENDBRANCH   1  18
BRANCH   6  20
HETATM   20  O2  UNL     1      27.843   2.531  51.942  1.00  0.00    -0.353 OA
HETATM   21  C8  UNL     1      28.070   2.238  53.305  1.00  0.00     0.210 C 
ENDBRANCH   6  20
TORSDOF 2
ENDMDL
MODEL 4
REMARK VINA RESULT:      -7.2      3.302      5.529
REMARK  2 active torsions:
REMARK  status: ('A' for Active; 'I' for Inactive)
REMARK    1  A    between atoms: O1_2  and  C2_3 
REMARK    2  A    between atoms: C7_8  and  O2_9 
ROOT
HETATM    1  C2  UNL     1      21.687   3.518  52.100  1.00  0.00     0.103 A 
HETATM    2  C3  UNL     1      21.613   2.129  52.304  1.00  0.00     0.072 A 
HETATM    3  C4  UNL     1      22.671   1.278  52.646  1.00  0.00     0.071 A 
HETATM    4  C5  UNL     1      23.929   1.876  52.797  1.00  0.00     0.001 A 
HETATM    5  C6  UNL     1      23.964   3.240  52.591  1.00  0.00     0.053 A 
HETATM    6  C7  UNL     1      22.946   4.105  52.256  1.00  0.00     0.102 A 
HETATM    7  C9  UNL     1      25.126   1.306  53.048  1.00  0.00    -0.035 C 
HETATM    8  C10 UNL     1      26.478   1.968  53.214  1.00  0.00     0.184 C 
HETATM    9  N1  UNL     1      27.415   0.982  52.850  1.00  0.00    -0.300 NA
HETATM   10  C11 UNL     1      26.894  -0.163  52.807  1.00  0.00     0.096 C 
HETATM   11  C12 UNL     1      25.409  -0.122  53.165  1.00  0.00     0.080 C 
HETATM   12  C13 UNL     1      25.254  -0.763  54.459  1.00  0.00    -0.015 C 
HETATM   13  C14 UNL     1      24.447  -1.239  55.407  1.00  0.00    -0.008 C 
HETATM   14  C15 UNL     1      22.933  -1.257  55.420  1.00  0.00     0.177 C 
HETATM   15  N2  UNL     1      22.514  -0.604  54.216  1.00  0.00    -0.279 NA
HETATM   16  C16 UNL     1      22.472  -1.056  53.051  1.00  0.00     0.227 C 
HETATM   17  N3  UNL     1      22.006   0.190  52.735  1.00  0.00    -0.242 NA
ENDROOT
BRANCH   1  18
HETATM   18  O1  UNL     1      20.643   4.383  51.757  1.00  0.00    -0.353 OA
HETATM   19  C1  UNL     1      20.216   4.378  50.392  1.00  0.00     0.210 C 
ENDBRANCH   1  18
BRANCH   6  20
HETATM   20  O2  UNL     1      23.079   5.468  52.069  1.00  0.00    -0.353 OA
HETATM   21  C8  UNL     1      24.004   5.923  51.103  1.00  0.00     0.210 C 
ENDBRANCH   6  20
TORSDOF 2
ENDMDL
MODEL 5
REMARK VINA RESULT:      -7.1      3.580      6.514
REMARK  2 active torsions:
REMARK  status: ('A' for Active; 'I' for Inactive)
REMARK    1  A    between atoms: O1_2  and  C2_3 
REMARK    2  A    between atoms: C7_8  and  O2_9 
ROOT
HETATM    1  C2  UNL     1      21.702   3.456  51.738  1.00  0.00     0.103 A 
HETATM    2  C3  UNL     1      23.017   3.319  52.216  1.00  0.00     0.072 A 
HETATM    3  C4  UNL     1      23.554   2.211  52.881  1.00  0.00     0.071 A 
HETATM    4  C5  UNL     1      22.687   1.130  53.091  1.00  0.00     0.001 A 
HETATM    5  C6  UNL     1      21.405   1.297  52.608  1.00  0.00     0.053 A 
HETATM    6  C7  UNL     1      20.847   2.371  51.951  1.00  0.00     0.102 A 
HETATM    7  C9  UNL     1      22.900  -0.024  53.757  1.00  0.00    -0.035 C 
HETATM    8  C10 UNL     1      21.953  -1.187  53.970  1.00  0.00     0.184 C 
HETATM    9  N1  UNL     1      22.390  -1.800  55.160  1.00  0.00    -0.300 NA
HETATM   10  C11 UNL     1      23.543  -1.415  55.487  1.00  0.00     0.096 C 
HETATM   11  C12 UNL     1      24.105  -0.404  54.489  1.00  0.00     0.080 C 
HETATM   12  C13 UNL     1      25.186  -1.056  53.770  1.00  0.00    -0.015 C 
HETATM   13  C14 UNL     1      26.202  -0.967  52.912  1.00  0.00    -0.008 C 
HETATM   14  C15 UNL     1      26.700   0.262  52.181  1.00  0.00     0.177 C 
HETATM   15  N2  UNL     1      25.824   1.331  52.551  1.00  0.00    -0.279 NA
HETATM   16  C16 UNL     1      25.810   2.008  53.602  1.00  0.00     0.227 C 
HETATM   17  N3  UNL     1      24.750   2.642  53.015  1.00  0.00    -0.242 NA
ENDROOT
BRANCH   1  18
HETATM   18  O1  UNL     1      21.149   4.554  51.073  1.00  0.00    -0.353 OA
HETATM   19  C1  UNL     1      21.745   5.831  51.320  1.00  0.00     0.210 C 
ENDBRANCH   1  18
BRANCH   6  20
HETATM   20  O2  UNL     1      19.542   2.447  51.501  1.00  0.00    -0.353 OA
HETATM   21  C8  UNL     1      19.170   1.650  50.395  1.00  0.00     0.210 C 
ENDBRANCH   6  20
TORSDOF 2
ENDMDL
MODEL 6
REMARK VINA RESULT:      -7.0      1.957      2.381
REMARK  2 active torsions:
REMARK  status: ('A' for Active; 'I' for Inactive)
REMARK    1  A    between atoms: O1_2  and  C2_3 
REMARK    2  A    between atoms: C7_8  and  O2_9 
ROOT
HETATM    1  C2  UNL     1      26.066  -0.282  53.286  1.00  0.00     0.103 A 
HETATM    2  C3  UNL     1      24.666  -0.371  53.383  1.00  0.00     0.072 A 
HETATM    3  C4  UNL     1      23.739   0.611  53.014  1.00  0.00     0.071 A 
HETATM    4  C5  UNL     1      24.265   1.802  52.498  1.00  0.00     0.001 A 
HETATM    5  C6  UNL     1      25.641   1.855  52.415  1.00  0.00     0.053 A 
HETATM    6  C7  UNL     1      26.579   0.911  52.767  1.00  0.00     0.102 A 
HETATM    7  C9  UNL     1      23.627   2.934  52.133  1.00  0.00    -0.035 C 
HETATM    8  C10 UNL     1      24.210   4.214  51.570  1.00  0.00     0.184 C 
HETATM    9  N1  UNL     1      23.295   5.222  51.929  1.00  0.00    -0.300 NA
HETATM   10  C11 UNL     1      22.194   4.739  52.304  1.00  0.00     0.096 C 
HETATM   11  C12 UNL     1      22.198   3.213  52.250  1.00  0.00     0.080 C 
HETATM   12  C13 UNL     1      21.315   2.812  51.168  1.00  0.00    -0.015 C 
HETATM   13  C14 UNL     1      20.679   1.839  50.517  1.00  0.00    -0.008 C 
HETATM   14  C15 UNL     1      20.695   0.354  50.811  1.00  0.00     0.177 C 
HETATM   15  N2  UNL     1      21.585   0.174  51.918  1.00  0.00    -0.279 NA
HETATM   16  C16 UNL     1      21.377   0.375  53.134  1.00  0.00     0.227 C 
HETATM   17  N3  UNL     1      22.671  -0.040  53.281  1.00  0.00    -0.242 NA
ENDROOT
BRANCH   1  18
HETATM   18  O1  UNL     1      27.007  -1.250  53.650  1.00  0.00    -0.353 OA
HETATM   19  C1  UNL     1      27.271  -2.287  52.701  1.00  0.00     0.210 C 
ENDBRANCH   1  18
BRANCH   6  20
HETATM   20  O2  UNL     1      27.949   1.055  52.646  1.00  0.00    -0.353 OA
HETATM   21  C8  UNL     1      28.616   1.890  53.570  1.00  0.00     0.210 C 
ENDBRANCH   6  20
TORSDOF 2
ENDMDL
MODEL 7
REMARK VINA RESULT:      -6.8      3.061      5.448
REMARK  2 active torsions:
REMARK  status: ('A' for Active; 'I' for Inactive)
REMARK    1  A    between atoms: O1_2  and  C2_3 
REMARK    2  A    between atoms: C7_8  and  O2_9 
ROOT
HETATM    1  C2  UNL     1      20.291   2.755  52.312  1.00  0.00     0.103 A 
HETATM    2  C3  UNL     1      21.326   3.659  52.014  1.00  0.00     0.072 A 
HETATM    3  C4  UNL     1      22.702   3.412  52.098  1.00  0.00     0.071 A 
HETATM    4  C5  UNL     1      23.080   2.133  52.527  1.00  0.00     0.001 A 
HETATM    5  C6  UNL     1      22.040   1.271  52.810  1.00  0.00     0.053 A 
HETATM    6  C7  UNL     1      20.680   1.481  52.736  1.00  0.00     0.102 A 
HETATM    7  C9  UNL     1      24.312   1.638  52.770  1.00  0.00    -0.035 C 
HETATM    8  C10 UNL     1      24.705   0.249  53.229  1.00  0.00     0.184 C 
HETATM    9  N1  UNL     1      25.935   0.418  53.894  1.00  0.00    -0.300 NA
HETATM   10  C11 UNL     1      26.449   1.540  53.645  1.00  0.00     0.096 C 
HETATM   11  C12 UNL     1      25.577   2.364  52.699  1.00  0.00     0.080 C 
HETATM   12  C13 UNL     1      26.269   2.441  51.424  1.00  0.00    -0.015 C 
HETATM   13  C14 UNL     1      26.347   2.959  50.198  1.00  0.00    -0.008 C 
HETATM   14  C15 UNL     1      25.418   3.961  49.548  1.00  0.00     0.177 C 
HETATM   15  N2  UNL     1      24.381   4.222  50.500  1.00  0.00    -0.279 NA
HETATM   16  C16 UNL     1      24.408   4.958  51.510  1.00  0.00     0.227 C 
HETATM   17  N3  UNL     1      23.115   4.545  51.674  1.00  0.00    -0.242 NA
ENDROOT
BRANCH   1  18
HETATM   18  O1  UNL     1      18.914   2.984  52.234  1.00  0.00    -0.353 OA
HETATM   19  C1  UNL     1      18.453   3.809  51.160  1.00  0.00     0.210 C 
ENDBRANCH   1  18
BRANCH   6  20
HETATM   20  O2  UNL     1      19.706   0.549  53.042  1.00  0.00    -0.353 OA
HETATM   21  C8  UNL     1      20.113  -0.683  53.601  1.00  0.00     0.210 C 
ENDBRANCH   6  20
TORSDOF 2
ENDMDL
MODEL 8
REMARK VINA RESULT:      -6.8      5.234      8.167
REMARK  2 active torsions:
REMARK  status: ('A' for Active; 'I' for Inactive)
REMARK    1  A    between atoms: O1_2  and  C2_3 
REMARK    2  A    between atoms: C7_8  and  O2_9 
ROOT
HETATM    1  C2  UNL     1      26.253   4.983  49.059  1.00  0.00     0.103 A 
HETATM    2  C3  UNL     1      27.585   4.763  48.666  1.00  0.00     0.072 A 
HETATM    3  C4  UNL     1      28.537   5.740  48.355  1.00  0.00     0.071 A 
HETATM    4  C5  UNL     1      28.113   7.073  48.443  1.00  0.00     0.001 A 
HETATM    5  C6  UNL     1      26.802   7.253  48.833  1.00  0.00     0.053 A 
HETATM    6  C7  UNL     1      25.842   6.317  49.147  1.00  0.00     0.102 A 
HETATM    7  C9  UNL     1      28.779   8.207  48.137  1.00  0.00    -0.035 C 
HETATM    8  C10 UNL     1      28.309   9.643  48.244  1.00  0.00     0.184 C 
HETATM    9  N1  UNL     1      29.064  10.347  47.286  1.00  0.00    -0.300 NA
HETATM   10  C11 UNL     1      30.051   9.676  46.886  1.00  0.00     0.096 C 
HETATM   11  C12 UNL     1      30.120   8.310  47.567  1.00  0.00     0.080 C 
HETATM   12  C13 UNL     1      31.262   8.325  48.463  1.00  0.00    -0.015 C 
HETATM   13  C14 UNL     1      32.080   7.662  49.281  1.00  0.00    -0.008 C 
HETATM   14  C15 UNL     1      32.047   6.193  49.642  1.00  0.00     0.177 C 
HETATM   15  N2  UNL     1      30.914   5.639  48.966  1.00  0.00    -0.279 NA
HETATM   16  C16 UNL     1      30.799   5.308  47.766  1.00  0.00     0.227 C 
HETATM   17  N3  UNL     1      29.526   4.963  48.127  1.00  0.00    -0.242 NA
ENDROOT
BRANCH   1  18
HETATM   18  O1  UNL     1      25.289   4.021  49.373  1.00  0.00    -0.353 OA
HETATM   19  C1  UNL     1      25.504   3.248  50.558  1.00  0.00     0.210 C 
ENDBRANCH   1  18
BRANCH   6  20
HETATM   20  O2  UNL     1      24.544   6.595  49.530  1.00  0.00    -0.353 OA
HETATM   21  C8  UNL     1      24.323   7.070  50.843  1.00  0.00     0.210 C 
ENDBRANCH   6  20
TORSDOF 2
ENDMDL
MODEL 9
REMARK VINA RESULT:      -6.7      2.317      3.710
REMARK  2 active torsions:
REMARK  status: ('A' for Active; 'I' for Inactive)
REMARK    1  A    between atoms: O1_2  and  C2_3 
REMARK    2  A    between atoms: C7_8  and  O2_9 
ROOT
HETATM    1  C2  UNL     1      25.095   0.138  53.174  1.00  0.00     0.103 A 
HETATM    2  C3  UNL     1      23.842  -0.021  53.792  1.00  0.00     0.072 A 
HETATM    3  C4  UNL     1      22.646   0.610  53.431  1.00  0.00     0.071 A 
HETATM    4  C5  UNL     1      22.710   1.490  52.342  1.00  0.00     0.001 A 
HETATM    5  C6  UNL     1      23.953   1.620  51.758  1.00  0.00     0.053 A 
HETATM    6  C7  UNL     1      25.146   1.016  52.087  1.00  0.00     0.102 A 
HETATM    7  C9  UNL     1      21.749   2.281  51.821  1.00  0.00    -0.035 C 
HETATM    8  C10 UNL     1      21.832   3.224  50.638  1.00  0.00     0.184 C 
HETATM    9  N1  UNL     1      20.848   4.202  50.881  1.00  0.00    -0.300 NA
HETATM   10  C11 UNL     1      20.045   3.842  51.781  1.00  0.00     0.096 C 
HETATM   11  C12 UNL     1      20.389   2.457  52.325  1.00  0.00     0.080 C 
HETATM   12  C13 UNL     1      19.353   1.542  51.878  1.00  0.00    -0.015 C 
HETATM   13  C14 UNL     1      18.802   0.330  51.930  1.00  0.00    -0.008 C 
HETATM   14  C15 UNL     1      19.247  -0.863  52.749  1.00  0.00     0.177 C 
HETATM   15  N2  UNL     1      20.432  -0.454  53.440  1.00  0.00    -0.279 NA
HETATM   16  C16 UNL     1      20.539   0.247  54.470  1.00  0.00     0.227 C 
HETATM   17  N3  UNL     1      21.881   0.055  54.292  1.00  0.00    -0.242 NA
ENDROOT
BRANCH   1  18
HETATM   18  O1  UNL     1      26.299  -0.482  53.521  1.00  0.00    -0.353 OA
HETATM   19  C1  UNL     1      27.013   0.063  54.634  1.00  0.00     0.210 C 
ENDBRANCH   1  18
BRANCH   6  20
HETATM   20  O2  UNL     1      26.351   1.210  51.438  1.00  0.00    -0.353 OA
HETATM   21  C8  UNL     1      26.627   2.494  50.915  1.00  0.00     0.210 C 
ENDBRANCH   6  20
TORSDOF 2
ENDMDL
