MODEL 1
REMARK VINA RESULT:      -8.6      0.000      0.000
REMARK  5 active torsions:
REMARK  status: ('A' for Active; 'I' for Inactive)
REMARK    1  A    between atoms: C3_3  and  C4_4 
REMARK       I    between atoms: C4_4  and  N1_6 
REMARK    2  A    between atoms: N1_6  and  C5_7 
REMARK    3  A    between atoms: C12_16  and  C13_17 
REMARK    4  A    between atoms: C13_17  and  C14_18 
REMARK    5  A    between atoms: C15_19  and  N4_21 
ROOT
HETATM    1  C1  UNL     1      27.778   6.737  47.778  1.00  0.00     0.112 C 
HETATM    2  C2  UNL     1      27.295   5.588  48.583  1.00  0.00    -0.101 C 
HETATM    3  C3  UNL     1      26.918   4.656  49.245  1.00  0.00    -0.006 C 
ENDROOT
BRANCH   3   4
HETATM    4  C4  UNL     1      26.481   3.557  50.053  1.00  0.00     0.300 C 
HETATM    5  O1  UNL     1      25.545   2.870  49.587  1.00  0.00    -0.258 OA
HETATM    6  N1  UNL     1      27.002   3.193  51.299  1.00  0.00    -0.316 N 
HETATM    7  H4  UNL     1      27.773   3.846  51.569  1.00  0.00     0.170 HD
BRANCH   6   8
HETATM    8  C5  UNL     1      26.644   2.140  52.164  1.00  0.00     0.036 A 
HETATM    9  C6  UNL     1      27.502   1.445  52.984  1.00  0.00     0.032 A 
HETATM   10  C7  UNL     1      27.100   0.423  53.813  1.00  0.00     0.035 A 
HETATM   11  C8  UNL     1      25.761   0.094  53.801  1.00  0.00     0.067 A 
HETATM   12  N2  UNL     1      25.368  -0.873  54.639  1.00  0.00    -0.259 NA
HETATM   13  C19 UNL     1      24.827   0.729  53.012  1.00  0.00     0.007 A 
HETATM   14  C9  UNL     1      24.074  -1.210  54.700  1.00  0.00     0.140 A 
HETATM   15  C10 UNL     1      23.175  -0.549  53.889  1.00  0.00     0.074 A 
HETATM   16  C11 UNL     1      21.827  -1.073  54.024  1.00  0.00     0.102 C 
HETATM   17  C12 UNL     1      23.490   0.474  52.983  1.00  0.00     0.009 A 
HETATM   18  N3  UNL     1      20.748  -1.499  54.113  1.00  0.00    -0.191 NA
HETATM   19  C20 UNL     1      25.344   1.732  52.232  1.00  0.00     0.044 A 
BRANCH  17  20
HETATM   20  C13 UNL     1      22.467   1.169  52.243  1.00  0.00    -0.026 C 
HETATM   21  C17 UNL     1      21.518   1.821  52.925  1.00  0.00    -0.019 C 
HETATM   22  C18 UNL     1      20.317   2.636  52.641  1.00  0.00     0.037 C 
BRANCH  20  23
HETATM   23  C14 UNL     1      22.237   1.192  50.815  1.00  0.00     0.036 C 
HETATM   24  C15 UNL     1      22.175   1.739  49.591  1.00  0.00    -0.001 C 
HETATM   25  C16 UNL     1      21.843   1.365  48.174  1.00  0.00     0.067 C 
BRANCH  24  26
HETATM   26  N4  UNL     1      22.554   3.130  49.418  1.00  0.00    -0.403 N 
HETATM   27  H12 UNL     1      22.877   4.078  49.162  1.00  0.00     0.156 HD
HETATM   28  H13 UNL     1      22.437   3.961  50.061  1.00  0.00     0.156 HD
ENDBRANCH  24  26
ENDBRANCH  20  23
ENDBRANCH  17  20
ENDBRANCH   6   8
ENDBRANCH   3   4
TORSDOF 5
ENDMDL
MODEL 2
REMARK VINA RESULT:      -8.4      2.691      5.107
REMARK  5 active torsions:
REMARK  status: ('A' for Active; 'I' for Inactive)
REMARK    1  A    between atoms: C3_3  and  C4_4 
REMARK       I    between atoms: C4_4  and  N1_6 
REMARK    2  A    between atoms: N1_6  and  C5_7 
REMARK    3  A    between atoms: C12_16  and  C13_17 
REMARK    4  A    between atoms: C13_17  and  C14_18 
REMARK    5  A    between atoms: C15_19  and  N4_21 
ROOT
HETATM    1  C1  UNL     1      30.196  -0.086  53.687  1.00  0.00     0.112 C 
HETATM    2  C2  UNL     1      28.741  -0.337  53.548  1.00  0.00    -0.101 C 
HETATM    3  C3  UNL     1      27.562  -0.543  53.417  1.00  0.00    -0.006 C 
ENDROOT
BRANCH   3   4
HETATM    4  C4  UNL     1      26.164  -0.804  53.242  1.00  0.00     0.300 C 
HETATM    5  O1  UNL     1      25.870  -1.679  52.399  1.00  0.00    -0.258 OA
HETATM    6  N1  UNL     1      25.118  -0.173  53.924  1.00  0.00    -0.316 N 
HETATM    7  H4  UNL     1      25.502   0.531  54.594  1.00  0.00     0.170 HD
BRANCH   6   8
HETATM    8  C5  UNL     1      23.725  -0.358  53.825  1.00  0.00     0.036 A 
HETATM    9  C6  UNL     1      22.957  -1.149  54.648  1.00  0.00     0.032 A 
HETATM   10  C7  UNL     1      21.596  -1.294  54.509  1.00  0.00     0.035 A 
HETATM   11  C8  UNL     1      20.992  -0.601  53.480  1.00  0.00     0.067 A 
HETATM   12  N2  UNL     1      19.663  -0.713  53.374  1.00  0.00    -0.259 NA
HETATM   13  C19 UNL     1      21.677   0.211  52.603  1.00  0.00     0.007 A 
HETATM   14  C9  UNL     1      19.015  -0.035  52.419  1.00  0.00     0.140 A 
HETATM   15  C10 UNL     1      19.743   0.764  51.561  1.00  0.00     0.074 A 
HETATM   16  C11 UNL     1      18.907   1.378  50.544  1.00  0.00     0.102 C 
HETATM   17  C12 UNL     1      21.133   0.945  51.593  1.00  0.00     0.009 A 
HETATM   18  N3  UNL     1      18.248   1.860  49.715  1.00  0.00    -0.191 NA
HETATM   19  C20 UNL     1      23.025   0.280  52.842  1.00  0.00     0.044 A 
BRANCH  17  20
HETATM   20  C13 UNL     1      21.794   1.873  50.711  1.00  0.00    -0.026 C 
HETATM   21  C17 UNL     1      22.016   1.502  49.445  1.00  0.00    -0.019 C 
HETATM   22  C18 UNL     1      22.627   2.064  48.220  1.00  0.00     0.037 C 
BRANCH  20  23
HETATM   23  C14 UNL     1      22.370   3.164  51.019  1.00  0.00     0.036 C 
HETATM   24  C15 UNL     1      23.256   4.014  51.561  1.00  0.00    -0.001 C 
HETATM   25  C16 UNL     1      23.530   5.488  51.660  1.00  0.00     0.067 C 
BRANCH  24  26
HETATM   26  N4  UNL     1      24.392   3.482  52.290  1.00  0.00    -0.403 N 
HETATM   27  H12 UNL     1      25.147   2.967  52.774  1.00  0.00     0.156 HD
HETATM   28  H13 UNL     1      25.177   3.974  52.799  1.00  0.00     0.156 HD
ENDBRANCH  24  26
ENDBRANCH  20  23
ENDBRANCH  17  20
ENDBRANCH   6   8
ENDBRANCH   3   4
TORSDOF 5
ENDMDL
MODEL 3
REMARK VINA RESULT:      -8.2      1.136      1.713
REMARK  5 active torsions:
REMARK  status: ('A' for Active; 'I' for Inactive)
REMARK    1  A    between atoms: C3_3  and  C4_4 
REMARK       I    between atoms: C4_4  and  N1_6 
REMARK    2  A    between atoms: N1_6  and  C5_7 
REMARK    3  A    between atoms: C12_16  and  C13_17 
REMARK    4  A    between atoms: C13_17  and  C14_18 
REMARK    5  A    between atoms: C15_19  and  N4_21 
ROOT
HETATM    1  C1  UNL     1      27.799   6.601  47.706  1.00  0.00     0.112 C 
HETATM    2  C2  UNL     1      27.319   5.528  48.610  1.00  0.00    -0.101 C 
HETATM    3  C3  UNL     1      26.934   4.644  49.331  1.00  0.00    -0.006 C 
ENDROOT
BRANCH   3   4
HETATM    4  C4  UNL     1      26.496   3.578  50.182  1.00  0.00     0.300 C 
HETATM    5  O1  UNL     1      25.412   3.037  49.872  1.00  0.00    -0.258 OA
HETATM    6  N1  UNL     1      27.167   3.099  51.313  1.00  0.00    -0.316 N 
HETATM    7  H4  UNL     1      28.053   3.636  51.457  1.00  0.00     0.170 HD
BRANCH   6   8
HETATM    8  C5  UNL     1      26.822   2.066  52.206  1.00  0.00     0.036 A 
HETATM    9  C6  UNL     1      27.690   1.399  53.040  1.00  0.00     0.032 A 
HETATM   10  C7  UNL     1      27.301   0.396  53.897  1.00  0.00     0.035 A 
HETATM   11  C8  UNL     1      25.964   0.057  53.902  1.00  0.00     0.067 A 
HETATM   12  N2  UNL     1      25.583  -0.890  54.767  1.00  0.00    -0.259 NA
HETATM   13  C19 UNL     1      25.021   0.664  53.102  1.00  0.00     0.007 A 
HETATM   14  C9  UNL     1      24.292  -1.236  54.845  1.00  0.00     0.140 A 
HETATM   15  C10 UNL     1      23.384  -0.603  54.021  1.00  0.00     0.074 A 
HETATM   16  C11 UNL     1      22.041  -1.134  54.178  1.00  0.00     0.102 C 
HETATM   17  C12 UNL     1      23.686   0.398  53.087  1.00  0.00     0.009 A 
HETATM   18  N3  UNL     1      20.966  -1.566  54.284  1.00  0.00    -0.191 NA
HETATM   19  C20 UNL     1      25.525   1.650  52.293  1.00  0.00     0.044 A 
BRANCH  17  20
HETATM   20  C13 UNL     1      22.653   1.065  52.335  1.00  0.00    -0.026 C 
HETATM   21  C17 UNL     1      21.918   0.344  51.481  1.00  0.00    -0.019 C 
HETATM   22  C18 UNL     1      20.805   0.556  50.530  1.00  0.00     0.037 C 
BRANCH  20  23
HETATM   23  C14 UNL     1      22.336   2.476  52.284  1.00  0.00     0.036 C 
HETATM   24  C15 UNL     1      22.590   3.793  52.334  1.00  0.00    -0.001 C 
HETATM   25  C16 UNL     1      21.879   5.111  52.215  1.00  0.00     0.067 C 
BRANCH  24  26
HETATM   26  N4  UNL     1      23.956   4.243  52.527  1.00  0.00    -0.403 N 
HETATM   27  H12 UNL     1      24.947   4.440  52.748  1.00  0.00     0.156 HD
HETATM   28  H13 UNL     1      24.456   5.102  52.168  1.00  0.00     0.156 HD
ENDBRANCH  24  26
ENDBRANCH  20  23
ENDBRANCH  17  20
ENDBRANCH   6   8
ENDBRANCH   3   4
TORSDOF 5
ENDMDL
MODEL 4
REMARK VINA RESULT:      -8.1      2.879      5.401
REMARK  5 active torsions:
REMARK  status: ('A' for Active; 'I' for Inactive)
REMARK    1  A    between atoms: C3_3  and  C4_4 
REMARK       I    between atoms: C4_4  and  N1_6 
REMARK    2  A    between atoms: N1_6  and  C5_7 
REMARK    3  A    between atoms: C12_16  and  C13_17 
REMARK    4  A    between atoms: C13_17  and  C14_18 
REMARK    5  A    between atoms: C15_19  and  N4_21 
ROOT
HETATM    1  C1  UNL     1      22.209   5.337  45.290  1.00  0.00     0.112 C 
HETATM    2  C2  UNL     1      21.882   4.311  46.310  1.00  0.00    -0.101 C 
HETATM    3  C3  UNL     1      21.614   3.466  47.124  1.00  0.00    -0.006 C 
ENDROOT
BRANCH   3   4
HETATM    4  C4  UNL     1      21.304   2.443  48.079  1.00  0.00     0.300 C 
HETATM    5  O1  UNL     1      21.804   1.318  47.860  1.00  0.00    -0.258 OA
HETATM    6  N1  UNL     1      20.502   2.594  49.215  1.00  0.00    -0.316 N 
HETATM    7  H4  UNL     1      20.151   3.577  49.278  1.00  0.00     0.170 HD
BRANCH   6   8
HETATM    8  C5  UNL     1      20.141   1.658  50.205  1.00  0.00     0.036 A 
HETATM    9  C6  UNL     1      18.917   1.042  50.321  1.00  0.00     0.032 A 
HETATM   10  C7  UNL     1      18.615   0.131  51.308  1.00  0.00     0.035 A 
HETATM   11  C8  UNL     1      19.609  -0.160  52.219  1.00  0.00     0.067 A 
HETATM   12  N2  UNL     1      19.324  -1.076  53.152  1.00  0.00    -0.259 NA
HETATM   13  C19 UNL     1      20.863   0.408  52.187  1.00  0.00     0.007 A 
HETATM   14  C9  UNL     1      20.261  -1.429  54.041  1.00  0.00     0.140 A 
HETATM   15  C10 UNL     1      21.502  -0.831  53.972  1.00  0.00     0.074 A 
HETATM   16  C11 UNL     1      22.381  -1.269  55.042  1.00  0.00     0.102 C 
HETATM   17  C12 UNL     1      21.893   0.135  53.034  1.00  0.00     0.009 A 
HETATM   18  N3  UNL     1      23.086  -1.602  55.906  1.00  0.00    -0.191 NA
HETATM   19  C20 UNL     1      21.048   1.296  51.158  1.00  0.00     0.044 A 
BRANCH  17  20
HETATM   20  C13 UNL     1      23.244   0.637  52.985  1.00  0.00    -0.026 C 
HETATM   21  C17 UNL     1      23.435   1.960  53.022  1.00  0.00    -0.019 C 
HETATM   22  C18 UNL     1      24.565   2.914  52.996  1.00  0.00     0.037 C 
BRANCH  20  23
HETATM   23  C14 UNL     1      24.477  -0.096  52.795  1.00  0.00     0.036 C 
HETATM   24  C15 UNL     1      25.609  -0.710  53.172  1.00  0.00    -0.001 C 
HETATM   25  C16 UNL     1      26.776  -1.446  52.576  1.00  0.00     0.067 C 
BRANCH  24  26
HETATM   26  N4  UNL     1      25.927  -0.803  54.585  1.00  0.00    -0.403 N 
HETATM   27  H12 UNL     1      26.297  -0.871  55.548  1.00  0.00     0.156 HD
HETATM   28  H13 UNL     1      25.297  -0.830  55.433  1.00  0.00     0.156 HD
ENDBRANCH  24  26
ENDBRANCH  20  23
ENDBRANCH  17  20
ENDBRANCH   6   8
ENDBRANCH   3   4
TORSDOF 5
ENDMDL
MODEL 5
REMARK VINA RESULT:      -8.1      2.709      6.329
REMARK  5 active torsions:
REMARK  status: ('A' for Active; 'I' for Inactive)
REMARK    1  A    between atoms: C3_3  and  C4_4 
REMARK       I    between atoms: C4_4  and  N1_6 
REMARK    2  A    between atoms: N1_6  and  C5_7 
REMARK    3  A    between atoms: C12_16  and  C13_17 
REMARK    4  A    between atoms: C13_17  and  C14_18 
REMARK    5  A    between atoms: C15_19  and  N4_21 
ROOT
HETATM    1  C1  UNL     1      14.654   0.447  52.157  1.00  0.00     0.112 C 
HETATM    2  C2  UNL     1      16.118   0.220  52.231  1.00  0.00    -0.101 C 
HETATM    3  C3  UNL     1      17.307   0.047  52.306  1.00  0.00    -0.006 C 
ENDROOT
BRANCH   3   4
HETATM    4  C4  UNL     1      18.721  -0.159  52.420  1.00  0.00     0.300 C 
HETATM    5  O1  UNL     1      19.348  -0.270  51.344  1.00  0.00    -0.258 OA
HETATM    6  N1  UNL     1      19.446  -0.247  53.613  1.00  0.00    -0.316 N 
HETATM    7  H4  UNL     1      18.803  -0.138  54.431  1.00  0.00     0.170 HD
BRANCH   6   8
HETATM    8  C5  UNL     1      20.823  -0.446  53.828  1.00  0.00     0.036 A 
HETATM    9  C6  UNL     1      21.382  -1.431  54.609  1.00  0.00     0.032 A 
HETATM   10  C7  UNL     1      22.738  -1.585  54.785  1.00  0.00     0.035 A 
HETATM   11  C8  UNL     1      23.561  -0.688  54.136  1.00  0.00     0.067 A 
HETATM   12  N2  UNL     1      24.880  -0.866  54.277  1.00  0.00    -0.259 NA
HETATM   13  C19 UNL     1      23.096   0.333  53.336  1.00  0.00     0.007 A 
HETATM   14  C9  UNL     1      25.730  -0.051  53.640  1.00  0.00     0.140 A 
HETATM   15  C10 UNL     1      25.218   0.960  52.853  1.00  0.00     0.074 A 
HETATM   16  C11 UNL     1      26.263   1.795  52.286  1.00  0.00     0.102 C 
HETATM   17  C12 UNL     1      23.857   1.224  52.644  1.00  0.00     0.009 A 
HETATM   18  N3  UNL     1      27.093   2.479  51.843  1.00  0.00    -0.191 NA
HETATM   19  C20 UNL     1      21.729   0.383  53.233  1.00  0.00     0.044 A 
BRANCH  17  20
HETATM   20  C13 UNL     1      23.419   2.249  51.729  1.00  0.00    -0.026 C 
HETATM   21  C17 UNL     1      23.204   3.480  52.206  1.00  0.00    -0.019 C 
HETATM   22  C18 UNL     1      22.768   4.800  51.699  1.00  0.00     0.037 C 
BRANCH  20  23
HETATM   23  C14 UNL     1      23.064   2.125  50.332  1.00  0.00     0.036 C 
HETATM   24  C15 UNL     1      22.287   1.797  49.288  1.00  0.00    -0.001 C 
HETATM   25  C16 UNL     1      22.293   1.841  47.786  1.00  0.00     0.067 C 
BRANCH  24  26
HETATM   26  N4  UNL     1      20.971   1.239  49.535  1.00  0.00    -0.403 N 
HETATM   27  H12 UNL     1      20.087   0.798  49.843  1.00  0.00     0.156 HD
HETATM   28  H13 UNL     1      20.105   1.221  48.928  1.00  0.00     0.156 HD
ENDBRANCH  24  26
ENDBRANCH  20  23
ENDBRANCH  17  20
ENDBRANCH   6   8
ENDBRANCH   3   4
TORSDOF 5
ENDMDL
MODEL 6
REMARK VINA RESULT:      -7.8      2.831      6.574
REMARK  5 active torsions:
REMARK  status: ('A' for Active; 'I' for Inactive)
REMARK    1  A    between atoms: C3_3  and  C4_4 
REMARK       I    between atoms: C4_4  and  N1_6 
REMARK    2  A    between atoms: N1_6  and  C5_7 
REMARK    3  A    between atoms: C12_16  and  C13_17 
REMARK    4  A    between atoms: C13_17  and  C14_18 
REMARK    5  A    between atoms: C15_19  and  N4_21 
ROOT
HETATM    1  C1  UNL     1      16.738  -1.733  53.082  1.00  0.00     0.112 C 
HETATM    2  C2  UNL     1      18.072  -1.087  53.081  1.00  0.00    -0.101 C 
HETATM    3  C3  UNL     1      19.153  -0.557  53.062  1.00  0.00    -0.006 C 
ENDROOT
BRANCH   3   4
HETATM    4  C4  UNL     1      20.431   0.091  53.024  1.00  0.00     0.300 C 
HETATM    5  O1  UNL     1      20.465   1.264  53.456  1.00  0.00    -0.258 OA
HETATM    6  N1  UNL     1      21.623  -0.468  52.552  1.00  0.00    -0.316 N 
HETATM    7  H4  UNL     1      21.454  -1.446  52.223  1.00  0.00     0.170 HD
BRANCH   6   8
HETATM    8  C5  UNL     1      22.918   0.082  52.474  1.00  0.00     0.036 A 
HETATM    9  C6  UNL     1      24.021  -0.354  53.170  1.00  0.00     0.032 A 
HETATM   10  C7  UNL     1      25.267   0.218  53.056  1.00  0.00     0.035 A 
HETATM   11  C8  UNL     1      25.391   1.287  52.193  1.00  0.00     0.067 A 
HETATM   12  N2  UNL     1      26.613   1.815  52.054  1.00  0.00    -0.259 NA
HETATM   13  C19 UNL     1      24.344   1.797  51.457  1.00  0.00     0.007 A 
HETATM   14  C9  UNL     1      26.804   2.830  51.203  1.00  0.00     0.140 A 
HETATM   15  C10 UNL     1      25.725   3.310  50.489  1.00  0.00     0.074 A 
HETATM   16  C11 UNL     1      26.080   4.450  49.662  1.00  0.00     0.102 C 
HETATM   17  C12 UNL     1      24.412   2.824  50.566  1.00  0.00     0.009 A 
HETATM   18  N3  UNL     1      26.352   5.374  49.010  1.00  0.00    -0.191 NA
HETATM   19  C20 UNL     1      23.154   1.144  51.650  1.00  0.00     0.044 A 
BRANCH  17  20
HETATM   20  C13 UNL     1      23.368   3.332  49.711  1.00  0.00    -0.026 C 
HETATM   21  C17 UNL     1      23.121   2.697  48.559  1.00  0.00    -0.019 C 
HETATM   22  C18 UNL     1      22.207   2.823  47.403  1.00  0.00     0.037 C 
BRANCH  20  23
HETATM   23  C14 UNL     1      22.576   4.533  49.862  1.00  0.00     0.036 C 
HETATM   24  C15 UNL     1      22.212   5.701  50.414  1.00  0.00    -0.001 C 
HETATM   25  C16 UNL     1      21.187   6.787  50.248  1.00  0.00     0.067 C 
BRANCH  24  26
HETATM   26  N4  UNL     1      22.989   6.233  51.519  1.00  0.00    -0.403 N 
HETATM   27  H12 UNL     1      23.634   6.666  52.201  1.00  0.00     0.156 HD
HETATM   28  H13 UNL     1      22.832   6.174  52.563  1.00  0.00     0.156 HD
ENDBRANCH  24  26
ENDBRANCH  20  23
ENDBRANCH  17  20
ENDBRANCH   6   8
ENDBRANCH   3   4
TORSDOF 5
ENDMDL
MODEL 7
REMARK VINA RESULT:      -7.6      3.002      6.648
REMARK  5 active torsions:
REMARK  status: ('A' for Active; 'I' for Inactive)
REMARK    1  A    between atoms: C3_3  and  C4_4 
REMARK       I    between atoms: C4_4  and  N1_6 
REMARK    2  A    between atoms: N1_6  and  C5_7 
REMARK    3  A    between atoms: C12_16  and  C13_17 
REMARK    4  A    between atoms: C13_17  and  C14_18 
REMARK    5  A    between atoms: C15_19  and  N4_21 
ROOT
HETATM    1  C1  UNL     1      14.378   1.969  50.982  1.00  0.00     0.112 C 
HETATM    2  C2  UNL     1      15.740   1.461  51.279  1.00  0.00    -0.101 C 
HETATM    3  C3  UNL     1      16.847   1.046  51.502  1.00  0.00    -0.006 C 
ENDROOT
BRANCH   3   4
HETATM    4  C4  UNL     1      18.174   0.563  51.748  1.00  0.00     0.300 C 
HETATM    5  O1  UNL     1      18.530  -0.430  51.077  1.00  0.00    -0.258 OA
HETATM    6  N1  UNL     1      19.089   1.100  52.660  1.00  0.00    -0.316 N 
HETATM    7  H4  UNL     1      18.666   1.921  53.151  1.00  0.00     0.170 HD
BRANCH   6   8
HETATM    8  C5  UNL     1      20.404   0.701  52.971  1.00  0.00     0.036 A 
HETATM    9  C6  UNL     1      20.755  -0.312  53.834  1.00  0.00     0.032 A 
HETATM   10  C7  UNL     1      22.058  -0.663  54.103  1.00  0.00     0.035 A 
HETATM   11  C8  UNL     1      23.047   0.054  53.463  1.00  0.00     0.067 A 
HETATM   12  N2  UNL     1      24.311  -0.318  53.696  1.00  0.00    -0.259 NA
HETATM   13  C19 UNL     1      22.794   1.087  52.587  1.00  0.00     0.007 A 
HETATM   14  C9  UNL     1      25.314   0.317  53.076  1.00  0.00     0.140 A 
HETATM   15  C10 UNL     1      25.013   1.347  52.209  1.00  0.00     0.074 A 
HETATM   16  C11 UNL     1      26.206   1.974  51.669  1.00  0.00     0.102 C 
HETATM   17  C12 UNL     1      23.724   1.807  51.902  1.00  0.00     0.009 A 
HETATM   18  N3  UNL     1      27.157   2.494  51.246  1.00  0.00    -0.191 NA
HETATM   19  C20 UNL     1      21.461   1.344  52.396  1.00  0.00     0.044 A 
BRANCH  17  20
HETATM   20  C13 UNL     1      23.505   2.832  50.912  1.00  0.00    -0.026 C 
HETATM   21  C17 UNL     1      23.170   2.460  49.671  1.00  0.00    -0.019 C 
HETATM   22  C18 UNL     1      22.860   3.097  48.373  1.00  0.00     0.037 C 
BRANCH  20  23
HETATM   23  C14 UNL     1      23.695   4.261  51.029  1.00  0.00     0.036 C 
HETATM   24  C15 UNL     1      24.365   5.421  50.943  1.00  0.00    -0.001 C 
HETATM   25  C16 UNL     1      24.172   6.888  51.203  1.00  0.00     0.067 C 
BRANCH  24  26
HETATM   26  N4  UNL     1      25.717   5.419  50.414  1.00  0.00    -0.403 N 
HETATM   27  H12 UNL     1      26.638   5.539  49.960  1.00  0.00     0.156 HD
HETATM   28  H13 UNL     1      26.526   4.763  50.593  1.00  0.00     0.156 HD
ENDBRANCH  24  26
ENDBRANCH  20  23
ENDBRANCH  17  20
ENDBRANCH   6   8
ENDBRANCH   3   4
TORSDOF 5
ENDMDL
MODEL 8
REMARK VINA RESULT:      -7.5      3.006      5.863
REMARK  5 active torsions:
REMARK  status: ('A' for Active; 'I' for Inactive)
REMARK    1  A    between atoms: C3_3  and  C4_4 
REMARK       I    between atoms: C4_4  and  N1_6 
REMARK    2  A    between atoms: N1_6  and  C5_7 
REMARK    3  A    between atoms: C12_16  and  C13_17 
REMARK    4  A    between atoms: C13_17  and  C14_18 
REMARK    5  A    between atoms: C15_19  and  N4_21 
ROOT
HETATM    1  C1  UNL     1      17.688   5.490  47.851  1.00  0.00     0.112 C 
HETATM    2  C2  UNL     1      18.075   4.584  48.960  1.00  0.00    -0.101 C 
HETATM    3  C3  UNL     1      18.406   3.858  49.861  1.00  0.00    -0.006 C 
ENDROOT
BRANCH   3   4
HETATM    4  C4  UNL     1      18.810   3.012  50.945  1.00  0.00     0.300 C 
HETATM    5  O1  UNL     1      18.746   3.516  52.088  1.00  0.00    -0.258 OA
HETATM    6  N1  UNL     1      19.265   1.694  50.834  1.00  0.00    -0.316 N 
HETATM    7  H4  UNL     1      19.269   1.400  49.831  1.00  0.00     0.170 HD
BRANCH   6   8
HETATM    8  C5  UNL     1      19.682   0.788  51.829  1.00  0.00     0.036 A 
HETATM    9  C6  UNL     1      18.893  -0.162  52.435  1.00  0.00     0.032 A 
HETATM   10  C7  UNL     1      19.352  -1.026  53.403  1.00  0.00     0.035 A 
HETATM   11  C8  UNL     1      20.676  -0.912  53.771  1.00  0.00     0.067 A 
HETATM   12  N2  UNL     1      21.128  -1.780  54.683  1.00  0.00    -0.259 NA
HETATM   13  C19 UNL     1      21.542   0.010  53.225  1.00  0.00     0.007 A 
HETATM   14  C9  UNL     1      22.414  -1.743  55.053  1.00  0.00     0.140 A 
HETATM   15  C10 UNL     1      23.243  -0.801  54.482  1.00  0.00     0.074 A 
HETATM   16  C11 UNL     1      24.586  -0.846  55.034  1.00  0.00     0.102 C 
HETATM   17  C12 UNL     1      22.863   0.148  53.521  1.00  0.00     0.009 A 
HETATM   18  N3  UNL     1      25.658  -0.864  55.484  1.00  0.00    -0.191 NA
HETATM   19  C20 UNL     1      20.974   0.813  52.269  1.00  0.00     0.044 A 
BRANCH  17  20
HETATM   20  C13 UNL     1      23.825   1.034  52.915  1.00  0.00    -0.026 C 
HETATM   21  C17 UNL     1      24.961   0.513  52.437  1.00  0.00    -0.019 C 
HETATM   22  C18 UNL     1      26.193   0.979  51.765  1.00  0.00     0.037 C 
BRANCH  20  23
HETATM   23  C14 UNL     1      23.797   2.478  52.825  1.00  0.00     0.036 C 
HETATM   24  C15 UNL     1      23.736   3.668  52.207  1.00  0.00    -0.001 C 
HETATM   25  C16 UNL     1      23.739   5.136  52.525  1.00  0.00     0.067 C 
BRANCH  24  26
HETATM   26  N4  UNL     1      23.582   3.707  50.764  1.00  0.00    -0.403 N 
HETATM   27  H12 UNL     1      23.563   3.856  49.741  1.00  0.00     0.156 HD
HETATM   28  H13 UNL     1      23.030   3.084  50.112  1.00  0.00     0.156 HD
ENDBRANCH  24  26
ENDBRANCH  20  23
ENDBRANCH  17  20
ENDBRANCH   6   8
ENDBRANCH   3   4
TORSDOF 5
ENDMDL
MODEL 9
REMARK VINA RESULT:      -7.5      2.692      5.939
REMARK  5 active torsions:
REMARK  status: ('A' for Active; 'I' for Inactive)
REMARK    1  A    between atoms: C3_3  and  C4_4 
REMARK       I    between atoms: C4_4  and  N1_6 
REMARK    2  A    between atoms: N1_6  and  C5_7 
REMARK    3  A    between atoms: C12_16  and  C13_17 
REMARK    4  A    between atoms: C13_17  and  C14_18 
REMARK    5  A    between atoms: C15_19  and  N4_21 
ROOT
HETATM    1  C1  UNL     1      16.539   4.145  48.744  1.00  0.00     0.112 C 
HETATM    2  C2  UNL     1      17.639   3.691  49.629  1.00  0.00    -0.101 C 
HETATM    3  C3  UNL     1      18.531   3.307  50.340  1.00  0.00    -0.006 C 
ENDROOT
BRANCH   3   4
HETATM    4  C4  UNL     1      19.603   2.835  51.167  1.00  0.00     0.300 C 
HETATM    5  O1  UNL     1      19.820   3.489  52.210  1.00  0.00    -0.258 OA
HETATM    6  N1  UNL     1      20.413   1.724  50.910  1.00  0.00    -0.316 N 
HETATM    7  H4  UNL     1      20.125   1.271  50.012  1.00  0.00     0.170 HD
BRANCH   6   8
HETATM    8  C5  UNL     1      21.481   1.185  51.654  1.00  0.00     0.036 A 
HETATM    9  C6  UNL     1      21.414   0.086  52.479  1.00  0.00     0.032 A 
HETATM   10  C7  UNL     1      22.489  -0.403  53.184  1.00  0.00     0.035 A 
HETATM   11  C8  UNL     1      23.689   0.263  53.041  1.00  0.00     0.067 A 
HETATM   12  N2  UNL     1      24.742  -0.239  53.696  1.00  0.00    -0.259 NA
HETATM   13  C19 UNL     1      23.853   1.374  52.242  1.00  0.00     0.007 A 
HETATM   14  C9  UNL     1      25.941   0.341  53.567  1.00  0.00     0.140 A 
HETATM   15  C10 UNL     1      26.058   1.453  52.758  1.00  0.00     0.074 A 
HETATM   16  C11 UNL     1      27.402   2.004  52.775  1.00  0.00     0.102 C 
HETATM   17  C12 UNL     1      25.016   2.051  52.034  1.00  0.00     0.009 A 
HETATM   18  N3  UNL     1      28.471   2.461  52.797  1.00  0.00    -0.191 NA
HETATM   19  C20 UNL     1      22.714   1.765  51.587  1.00  0.00     0.044 A 
BRANCH  17  20
HETATM   20  C13 UNL     1      25.255   3.158  51.143  1.00  0.00    -0.026 C 
HETATM   21  C17 UNL     1      26.234   3.049  50.238  1.00  0.00    -0.019 C 
HETATM   22  C18 UNL     1      26.839   3.864  49.162  1.00  0.00     0.037 C 
BRANCH  20  23
HETATM   23  C14 UNL     1      24.639   4.468  51.138  1.00  0.00     0.036 C 
HETATM   24  C15 UNL     1      23.743   5.403  51.489  1.00  0.00    -0.001 C 
HETATM   25  C16 UNL     1      23.408   6.842  51.214  1.00  0.00     0.067 C 
BRANCH  24  26
HETATM   26  N4  UNL     1      22.725   5.074  52.469  1.00  0.00    -0.403 N 
HETATM   27  H12 UNL     1      22.093   4.731  53.213  1.00  0.00     0.156 HD
HETATM   28  H13 UNL     1      21.780   5.511  52.655  1.00  0.00     0.156 HD
ENDBRANCH  24  26
ENDBRANCH  20  23
ENDBRANCH  17  20
ENDBRANCH   6   8
ENDBRANCH   3   4
TORSDOF 5
ENDMDL
