MODEL 1
REMARK VINA RESULT:      -7.1      0.000      0.000
REMARK  8 active torsions:
REMARK  status: ('A' for Active; 'I' for Inactive)
REMARK    1  A    between atoms: N1_1  and  P1_2 
REMARK    2  A    between atoms: P1_2  and  C1_3 
REMARK    3  A    between atoms: N2_4  and  C2_5 
REMARK    4  A    between atoms: C2_5  and  C3_6 
REMARK    5  A    between atoms: C3_6  and  C4_7 
REMARK    6  A    between atoms: C3_6  and  C11_16 
REMARK    7  A    between atoms: C4_7  and  N3_8 
REMARK    8  A    between atoms: N3_8  and  C5_9 
ROOT
HETATM    1  C3  UNL     1      24.758   1.872  52.224  1.00  0.00     0.056 C 
ENDROOT
BRANCH   1   2
HETATM    2  C2  UNL     1      23.282   1.604  52.050  1.00  0.00     0.159 C 
BRANCH   2   3
HETATM    3  N2  UNL     1      22.690   0.868  53.105  1.00  0.00    -0.299 NA
HETATM    4  C1  UNL     1      22.711  -0.416  53.080  1.00  0.00     0.129 C 
BRANCH   4   5
HETATM    5  P1  UNL     1      21.869  -1.039  54.578  1.00  0.00    -0.018 P 
HETATM    6  H3  UNL     1      21.040  -0.028  55.217  1.00  0.00     0.079 HD
BRANCH   5   7
HETATM    7  N1  UNL     1      22.935  -1.807  55.752  1.00  0.00    -0.308 NA
HETATM    8  H1  UNL     1      23.200  -2.784  55.554  1.00  0.00     0.123 HD
HETATM    9  H2  UNL     1      23.850  -1.291  55.886  1.00  0.00     0.123 HD
ENDBRANCH   5   7
ENDBRANCH   4   5
ENDBRANCH   2   3
ENDBRANCH   1   2
BRANCH   1  10
HETATM   10  C4  UNL     1      25.096   2.521  53.543  1.00  0.00     0.130 C 
BRANCH  10  11
HETATM   11  N3  UNL     1      26.262   1.915  54.124  1.00  0.00    -0.398 N 
HETATM   12  H10 UNL     1      27.165   1.952  54.640  1.00  0.00     0.158 HD
BRANCH  11  13
HETATM   13  C5  UNL     1      26.206   0.510  53.907  1.00  0.00     0.088 C 
HETATM   14  C6  UNL     1      27.279  -0.026  53.348  1.00  0.00    -0.037 C 
HETATM   15  C7  UNL     1      28.510   0.698  52.938  1.00  0.00     0.067 C 
HETATM   16  C10 UNL     1      27.455  -1.465  53.025  1.00  0.00     0.210 C 
HETATM   17  C8  UNL     1      29.689   0.176  53.680  1.00  0.00     0.002 C 
HETATM   18  C9  UNL     1      29.771  -1.139  53.833  1.00  0.00     0.131 C 
HETATM   19  O1  UNL     1      28.764  -1.930  53.297  1.00  0.00    -0.359 OA
ENDBRANCH  11  13
ENDBRANCH  10  11
ENDBRANCH   1  10
BRANCH   1  20
HETATM   20  C11 UNL     1      25.109   2.889  51.169  1.00  0.00    -0.051 A 
HETATM   21  C12 UNL     1      26.348   2.740  50.564  1.00  0.00     0.007 A 
HETATM   22  C13 UNL     1      26.726   3.639  49.591  1.00  0.00     0.001 A 
HETATM   23  C14 UNL     1      25.865   4.670  49.238  1.00  0.00     0.000 A 
HETATM   24  C15 UNL     1      24.640   4.787  49.862  1.00  0.00     0.001 A 
HETATM   25  C16 UNL     1      24.257   3.901  50.828  1.00  0.00     0.007 A 
ENDBRANCH   1  20
TORSDOF 8
ENDMDL
MODEL 2
REMARK VINA RESULT:      -7.0      3.530      6.130
REMARK  8 active torsions:
REMARK  status: ('A' for Active; 'I' for Inactive)
REMARK    1  A    between atoms: N1_1  and  P1_2 
REMARK    2  A    between atoms: P1_2  and  C1_3 
REMARK    3  A    between atoms: N2_4  and  C2_5 
REMARK    4  A    between atoms: C2_5  and  C3_6 
REMARK    5  A    between atoms: C3_6  and  C4_7 
REMARK    6  A    between atoms: C3_6  and  C11_16 
REMARK    7  A    between atoms: C4_7  and  N3_8 
REMARK    8  A    between atoms: N3_8  and  C5_9 
ROOT
HETATM    1  C3  UNL     1      25.725   2.085  51.258  1.00  0.00     0.056 C 
ENDROOT
BRANCH   1   2
HETATM    2  C2  UNL     1      26.524   2.858  50.234  1.00  0.00     0.159 C 
BRANCH   2   3
HETATM    3  N2  UNL     1      26.131   4.210  50.082  1.00  0.00    -0.299 NA
HETATM    4  C1  UNL     1      26.560   4.891  49.080  1.00  0.00     0.129 C 
BRANCH   4   5
HETATM    5  P1  UNL     1      25.868   6.579  49.189  1.00  0.00    -0.018 P 
HETATM    6  H3  UNL     1      26.342   7.450  48.124  1.00  0.00     0.079 HD
BRANCH   5   7
HETATM    7  N1  UNL     1      26.062   7.350  50.761  1.00  0.00    -0.308 NA
HETATM    8  H1  UNL     1      25.417   8.128  50.968  1.00  0.00     0.123 HD
HETATM    9  H2  UNL     1      25.958   6.678  51.573  1.00  0.00     0.123 HD
ENDBRANCH   5   7
ENDBRANCH   4   5
ENDBRANCH   2   3
ENDBRANCH   1   2
BRANCH   1  10
HETATM   10  C4  UNL     1      24.963   2.970  52.214  1.00  0.00     0.130 C 
BRANCH  10  11
HETATM   11  N3  UNL     1      24.254   2.181  53.181  1.00  0.00    -0.398 N 
HETATM   12  H10 UNL     1      24.172   1.694  54.098  1.00  0.00     0.158 HD
BRANCH  11  13
HETATM   13  C5  UNL     1      22.969   1.862  52.662  1.00  0.00     0.088 C 
HETATM   14  C6  UNL     1      22.578   0.610  52.834  1.00  0.00    -0.037 C 
HETATM   15  C7  UNL     1      23.348  -0.467  53.507  1.00  0.00     0.067 C 
HETATM   16  C10 UNL     1      21.281   0.042  52.381  1.00  0.00     0.210 C 
HETATM   17  C8  UNL     1      22.602  -0.976  54.690  1.00  0.00     0.002 C 
HETATM   18  C9  UNL     1      21.295  -1.151  54.549  1.00  0.00     0.131 C 
HETATM   19  O1  UNL     1      20.717  -0.852  53.322  1.00  0.00    -0.359 OA
ENDBRANCH  11  13
ENDBRANCH  10  11
ENDBRANCH   1  10
BRANCH   1  20
HETATM   20  C11 UNL     1      26.744   1.361  52.099  1.00  0.00    -0.051 A 
HETATM   21  C12 UNL     1      26.669  -0.024  52.092  1.00  0.00     0.007 A 
HETATM   22  C13 UNL     1      27.575  -0.743  52.841  1.00  0.00     0.001 A 
HETATM   23  C14 UNL     1      28.536  -0.072  53.585  1.00  0.00     0.000 A 
HETATM   24  C15 UNL     1      28.580   1.307  53.569  1.00  0.00     0.001 A 
HETATM   25  C16 UNL     1      27.687   2.028  52.828  1.00  0.00     0.007 A 
ENDBRANCH   1  20
TORSDOF 8
ENDMDL
MODEL 3
REMARK VINA RESULT:      -7.0      3.057      5.285
REMARK  8 active torsions:
REMARK  status: ('A' for Active; 'I' for Inactive)
REMARK    1  A    between atoms: N1_1  and  P1_2 
REMARK    2  A    between atoms: P1_2  and  C1_3 
REMARK    3  A    between atoms: N2_4  and  C2_5 
REMARK    4  A    between atoms: C2_5  and  C3_6 
REMARK    5  A    between atoms: C3_6  and  C4_7 
REMARK    6  A    between atoms: C3_6  and  C11_16 
REMARK    7  A    between atoms: C4_7  and  N3_8 
REMARK    8  A    between atoms: N3_8  and  C5_9 
ROOT
HETATM    1  C3  UNL     1      22.975   1.561  52.881  1.00  0.00     0.056 C 
ENDROOT
BRANCH   1   2
HETATM    2  C2  UNL     1      22.009   2.571  52.306  1.00  0.00     0.159 C 
BRANCH   2   3
HETATM    3  N2  UNL     1      22.624   3.653  51.631  1.00  0.00    -0.299 NA
HETATM    4  C1  UNL     1      22.607   4.826  52.155  1.00  0.00     0.129 C 
BRANCH   4   5
HETATM    5  P1  UNL     1      23.481   5.974  51.032  1.00  0.00    -0.018 P 
HETATM    6  H3  UNL     1      24.197   5.284  49.970  1.00  0.00     0.079 HD
BRANCH   5   7
HETATM    7  N1  UNL     1      24.530   7.135  51.843  1.00  0.00    -0.308 NA
HETATM    8  H1  UNL     1      24.107   7.662  52.622  1.00  0.00     0.123 HD
HETATM    9  H2  UNL     1      25.406   6.696  52.246  1.00  0.00     0.123 HD
ENDBRANCH   5   7
ENDBRANCH   4   5
ENDBRANCH   2   3
ENDBRANCH   1   2
BRANCH   1  10
HETATM   10  C4  UNL     1      23.896   0.959  51.848  1.00  0.00     0.130 C 
BRANCH  10  11
HETATM   11  N3  UNL     1      25.209   1.532  51.944  1.00  0.00    -0.398 N 
HETATM   12  H10 UNL     1      26.068   1.951  51.532  1.00  0.00     0.158 HD
BRANCH  11  13
HETATM   13  C5  UNL     1      25.596   1.569  53.312  1.00  0.00     0.088 C 
HETATM   14  C6  UNL     1      26.283   0.523  53.741  1.00  0.00    -0.037 C 
HETATM   15  C7  UNL     1      26.676  -0.662  52.934  1.00  0.00     0.067 C 
HETATM   16  C10 UNL     1      26.795   0.335  55.123  1.00  0.00     0.210 C 
HETATM   17  C8  UNL     1      28.157  -0.789  52.889  1.00  0.00     0.002 C 
HETATM   18  C9  UNL     1      28.816  -0.570  54.019  1.00  0.00     0.131 C 
HETATM   19  O1  UNL     1      28.088  -0.239  55.154  1.00  0.00    -0.359 OA
ENDBRANCH  11  13
ENDBRANCH  10  11
ENDBRANCH   1  10
BRANCH   1  20
HETATM   20  C11 UNL     1      22.119   0.423  53.375  1.00  0.00    -0.051 A 
HETATM   21  C12 UNL     1      20.761   0.521  53.110  1.00  0.00     0.007 A 
HETATM   22  C13 UNL     1      19.926  -0.490  53.537  1.00  0.00     0.001 A 
HETATM   23  C14 UNL     1      20.457  -1.576  54.219  1.00  0.00     0.000 A 
HETATM   24  C15 UNL     1      21.813  -1.638  54.465  1.00  0.00     0.001 A 
HETATM   25  C16 UNL     1      22.648  -0.642  54.046  1.00  0.00     0.007 A 
ENDBRANCH   1  20
TORSDOF 8
ENDMDL
MODEL 4
REMARK VINA RESULT:      -6.9      3.563      6.563
REMARK  8 active torsions:
REMARK  status: ('A' for Active; 'I' for Inactive)
REMARK    1  A    between atoms: N1_1  and  P1_2 
REMARK    2  A    between atoms: P1_2  and  C1_3 
REMARK    3  A    between atoms: N2_4  and  C2_5 
REMARK    4  A    between atoms: C2_5  and  C3_6 
REMARK    5  A    between atoms: C3_6  and  C4_7 
REMARK    6  A    between atoms: C3_6  and  C11_16 
REMARK    7  A    between atoms: C4_7  and  N3_8 
REMARK    8  A    between atoms: N3_8  and  C5_9 
ROOT
HETATM    1  C3  UNL     1      24.487   0.959  52.492  1.00  0.00     0.056 C 
ENDROOT
BRANCH   1   2
HETATM    2  C2  UNL     1      25.608  -0.024  52.740  1.00  0.00     0.159 C 
BRANCH   2   3
HETATM    3  N2  UNL     1      26.848   0.573  53.076  1.00  0.00    -0.299 NA
HETATM    4  C1  UNL     1      27.601   0.027  53.963  1.00  0.00     0.129 C 
BRANCH   4   5
HETATM    5  P1  UNL     1      29.107   1.046  54.150  1.00  0.00    -0.018 P 
HETATM    6  H3  UNL     1      29.474   1.254  55.543  1.00  0.00     0.079 HD
BRANCH   5   7
HETATM    7  N1  UNL     1      29.069   2.576  53.278  1.00  0.00    -0.308 NA
HETATM    8  H1  UNL     1      28.346   2.665  52.548  1.00  0.00     0.123 HD
HETATM    9  H2  UNL     1      28.931   3.415  53.911  1.00  0.00     0.123 HD
ENDBRANCH   5   7
ENDBRANCH   4   5
ENDBRANCH   2   3
ENDBRANCH   1   2
BRANCH   1  10
HETATM   10  C4  UNL     1      24.752   2.326  53.073  1.00  0.00     0.130 C 
BRANCH  10  11
HETATM   11  N3  UNL     1      25.014   3.278  52.030  1.00  0.00    -0.398 N 
HETATM   12  H10 UNL     1      25.617   3.706  51.298  1.00  0.00     0.158 HD
BRANCH  11  13
HETATM   13  C5  UNL     1      23.871   4.110  51.868  1.00  0.00     0.088 C 
HETATM   14  C6  UNL     1      23.195   3.941  50.744  1.00  0.00    -0.037 C 
HETATM   15  C7  UNL     1      23.520   2.978  49.659  1.00  0.00     0.067 C 
HETATM   16  C10 UNL     1      21.972   4.688  50.352  1.00  0.00     0.210 C 
HETATM   17  C8  UNL     1      22.402   2.014  49.470  1.00  0.00     0.002 C 
HETATM   18  C9  UNL     1      21.171   2.505  49.508  1.00  0.00     0.131 C 
HETATM   19  O1  UNL     1      21.008   3.868  49.719  1.00  0.00    -0.359 OA
ENDBRANCH  11  13
ENDBRANCH  10  11
ENDBRANCH   1  10
BRANCH   1  20
HETATM   20  C11 UNL     1      23.304   0.416  53.251  1.00  0.00    -0.051 A 
HETATM   21  C12 UNL     1      23.559  -0.652  54.098  1.00  0.00     0.007 A 
HETATM   22  C13 UNL     1      22.516  -1.192  54.820  1.00  0.00     0.001 A 
HETATM   23  C14 UNL     1      21.241  -0.661  54.686  1.00  0.00     0.000 A 
HETATM   24  C15 UNL     1      21.025   0.403  53.833  1.00  0.00     0.001 A 
HETATM   25  C16 UNL     1      22.052   0.945  53.114  1.00  0.00     0.007 A 
ENDBRANCH   1  20
TORSDOF 8
ENDMDL
MODEL 5
REMARK VINA RESULT:      -6.9      3.180      6.425
REMARK  8 active torsions:
REMARK  status: ('A' for Active; 'I' for Inactive)
REMARK    1  A    between atoms: N1_1  and  P1_2 
REMARK    2  A    between atoms: P1_2  and  C1_3 
REMARK    3  A    between atoms: N2_4  and  C2_5 
REMARK    4  A    between atoms: C2_5  and  C3_6 
REMARK    5  A    between atoms: C3_6  and  C4_7 
REMARK    6  A    between atoms: C3_6  and  C11_16 
REMARK    7  A    between atoms: C4_7  and  N3_8 
REMARK    8  A    between atoms: N3_8  and  C5_9 
ROOT
HETATM    1  C3  UNL     1      26.246   0.225  52.442  1.00  0.00     0.056 C 
ENDROOT
BRANCH   1   2
HETATM    2  C2  UNL     1      26.152   1.642  52.956  1.00  0.00     0.159 C 
BRANCH   2   3
HETATM    3  N2  UNL     1      26.044   2.627  51.944  1.00  0.00    -0.299 NA
HETATM    4  C1  UNL     1      26.558   2.413  50.786  1.00  0.00     0.129 C 
BRANCH   4   5
HETATM    5  P1  UNL     1      26.240   3.873  49.733  1.00  0.00    -0.018 P 
HETATM    6  H3  UNL     1      25.496   3.544  48.527  1.00  0.00     0.079 HD
BRANCH   5   7
HETATM    7  N1  UNL     1      27.674   4.821  49.344  1.00  0.00    -0.308 NA
HETATM    8  H1  UNL     1      27.664   5.306  48.434  1.00  0.00     0.123 HD
HETATM    9  H2  UNL     1      27.884   5.574  50.059  1.00  0.00     0.123 HD
ENDBRANCH   5   7
ENDBRANCH   4   5
ENDBRANCH   2   3
ENDBRANCH   1   2
BRANCH   1  10
HETATM   10  C4  UNL     1      25.233  -0.705  53.064  1.00  0.00     0.130 C 
BRANCH  10  11
HETATM   11  N3  UNL     1      24.259   0.036  53.816  1.00  0.00    -0.398 N 
HETATM   12  H10 UNL     1      23.978   0.778  54.490  1.00  0.00     0.158 HD
BRANCH  11  13
HETATM   13  C5  UNL     1      22.965  -0.479  53.526  1.00  0.00     0.088 C 
HETATM   14  C6  UNL     1      22.205   0.285  52.759  1.00  0.00    -0.037 C 
HETATM   15  C7  UNL     1      22.578   1.605  52.187  1.00  0.00     0.067 C 
HETATM   16  C10 UNL     1      20.822  -0.037  52.320  1.00  0.00     0.210 C 
HETATM   17  C8  UNL     1      22.540   1.556  50.701  1.00  0.00     0.002 C 
HETATM   18  C9  UNL     1      21.523   0.911  50.145  1.00  0.00     0.131 C 
HETATM   19  O1  UNL     1      20.574   0.333  50.977  1.00  0.00    -0.359 OA
ENDBRANCH  11  13
ENDBRANCH  10  11
ENDBRANCH   1  10
BRANCH   1  20
HETATM   20  C11 UNL     1      27.592  -0.278  52.897  1.00  0.00    -0.051 A 
HETATM   21  C12 UNL     1      27.784  -1.650  52.835  1.00  0.00     0.007 A 
HETATM   22  C13 UNL     1      28.995  -2.171  53.238  1.00  0.00     0.001 A 
HETATM   23  C14 UNL     1      29.990  -1.319  53.695  1.00  0.00     0.000 A 
HETATM   24  C15 UNL     1      29.763   0.041  53.743  1.00  0.00     0.001 A 
HETATM   25  C16 UNL     1      28.566   0.567  53.346  1.00  0.00     0.007 A 
ENDBRANCH   1  20
TORSDOF 8
ENDMDL
MODEL 6
REMARK VINA RESULT:      -6.8      3.368      6.320
REMARK  8 active torsions:
REMARK  status: ('A' for Active; 'I' for Inactive)
REMARK    1  A    between atoms: N1_1  and  P1_2 
REMARK    2  A    between atoms: P1_2  and  C1_3 
REMARK    3  A    between atoms: N2_4  and  C2_5 
REMARK    4  A    between atoms: C2_5  and  C3_6 
REMARK    5  A    between atoms: C3_6  and  C4_7 
REMARK    6  A    between atoms: C3_6  and  C11_16 
REMARK    7  A    between atoms: C4_7  and  N3_8 
REMARK    8  A    between atoms: N3_8  and  C5_9 
ROOT
HETATM    1  C3  UNL     1      24.037   1.279  52.232  1.00  0.00     0.056 C 
ENDROOT
BRANCH   1   2
HETATM    2  C2  UNL     1      24.836   2.174  53.150  1.00  0.00     0.159 C 
BRANCH   2   3
HETATM    3  N2  UNL     1      26.231   1.928  53.142  1.00  0.00    -0.299 NA
HETATM    4  C1  UNL     1      26.751   1.167  54.037  1.00  0.00     0.129 C 
BRANCH   4   5
HETATM    5  P1  UNL     1      28.551   1.066  53.736  1.00  0.00    -0.018 P 
HETATM    6  H3  UNL     1      29.109  -0.227  54.099  1.00  0.00     0.079 HD
BRANCH   5   7
HETATM    7  N1  UNL     1      29.488   2.375  54.454  1.00  0.00    -0.308 NA
HETATM    8  H1  UNL     1      30.129   2.109  55.217  1.00  0.00     0.123 HD
HETATM    9  H2  UNL     1      30.088   2.894  53.752  1.00  0.00     0.123 HD
ENDBRANCH   5   7
ENDBRANCH   4   5
ENDBRANCH   2   3
ENDBRANCH   1   2
BRANCH   1  10
HETATM   10  C4  UNL     1      23.157   2.040  51.272  1.00  0.00     0.130 C 
BRANCH  10  11
HETATM   11  N3  UNL     1      23.927   2.551  50.173  1.00  0.00    -0.398 N 
HETATM   12  H10 UNL     1      24.527   2.436  49.330  1.00  0.00     0.158 HD
BRANCH  11  13
HETATM   13  C5  UNL     1      23.885   3.972  50.204  1.00  0.00     0.088 C 
HETATM   14  C6  UNL     1      25.061   4.579  50.204  1.00  0.00    -0.037 C 
HETATM   15  C7  UNL     1      26.391   3.918  50.176  1.00  0.00     0.067 C 
HETATM   16  C10 UNL     1      25.272   6.049  50.232  1.00  0.00     0.210 C 
HETATM   17  C8  UNL     1      27.145   4.322  48.959  1.00  0.00     0.002 C 
HETATM   18  C9  UNL     1      27.087   5.601  48.611  1.00  0.00     0.131 C 
HETATM   19  O1  UNL     1      26.336   6.466  49.396  1.00  0.00    -0.359 OA
ENDBRANCH  11  13
ENDBRANCH  10  11
ENDBRANCH   1  10
BRANCH   1  20
HETATM   20  C11 UNL     1      23.096   0.520  53.132  1.00  0.00    -0.051 A 
HETATM   21  C12 UNL     1      21.786   0.972  53.167  1.00  0.00     0.007 A 
HETATM   22  C13 UNL     1      20.877   0.318  53.971  1.00  0.00     0.001 A 
HETATM   23  C14 UNL     1      21.289  -0.771  54.726  1.00  0.00     0.000 A 
HETATM   24  C15 UNL     1      22.602  -1.192  54.667  1.00  0.00     0.001 A 
HETATM   25  C16 UNL     1      23.509  -0.551  53.873  1.00  0.00     0.007 A 
ENDBRANCH   1  20
TORSDOF 8
ENDMDL
MODEL 7
REMARK VINA RESULT:      -6.8      2.380      5.510
REMARK  8 active torsions:
REMARK  status: ('A' for Active; 'I' for Inactive)
REMARK    1  A    between atoms: N1_1  and  P1_2 
REMARK    2  A    between atoms: P1_2  and  C1_3 
REMARK    3  A    between atoms: N2_4  and  C2_5 
REMARK    4  A    between atoms: C2_5  and  C3_6 
REMARK    5  A    between atoms: C3_6  and  C4_7 
REMARK    6  A    between atoms: C3_6  and  C11_16 
REMARK    7  A    between atoms: C4_7  and  N3_8 
REMARK    8  A    between atoms: N3_8  and  C5_9 
ROOT
HETATM    1  C3  UNL     1      25.781   0.773  53.767  1.00  0.00     0.056 C 
ENDROOT
BRANCH   1   2
HETATM    2  C2  UNL     1      24.909  -0.245  53.071  1.00  0.00     0.159 C 
BRANCH   2   3
HETATM    3  N2  UNL     1      23.714  -0.564  53.761  1.00  0.00    -0.299 NA
HETATM    4  C1  UNL     1      22.665  -0.901  53.100  1.00  0.00     0.129 C 
BRANCH   4   5
HETATM    5  P1  UNL     1      21.317  -1.242  54.288  1.00  0.00    -0.018 P 
HETATM    6  H3  UNL     1      20.327  -2.168  53.761  1.00  0.00     0.079 HD
BRANCH   5   7
HETATM    7  N1  UNL     1      20.541   0.196  54.947  1.00  0.00    -0.308 NA
HETATM    8  H1  UNL     1      20.768   0.426  55.926  1.00  0.00     0.123 HD
HETATM    9  H2  UNL     1      20.755   1.076  54.398  1.00  0.00     0.123 HD
ENDBRANCH   5   7
ENDBRANCH   4   5
ENDBRANCH   2   3
ENDBRANCH   1   2
BRANCH   1  10
HETATM   10  C4  UNL     1      25.812   2.111  53.069  1.00  0.00     0.130 C 
BRANCH  10  11
HETATM   11  N3  UNL     1      25.665   1.946  51.650  1.00  0.00    -0.398 N 
HETATM   12  H10 UNL     1      25.205   1.544  50.807  1.00  0.00     0.158 HD
BRANCH  11  13
HETATM   13  C5  UNL     1      26.654   2.729  50.991  1.00  0.00     0.088 C 
HETATM   14  C6  UNL     1      26.235   3.411  49.938  1.00  0.00    -0.037 C 
HETATM   15  C7  UNL     1      24.851   3.430  49.396  1.00  0.00     0.067 C 
HETATM   16  C10 UNL     1      27.078   4.295  49.093  1.00  0.00     0.210 C 
HETATM   17  C8  UNL     1      24.298   4.810  49.437  1.00  0.00     0.002 C 
HETATM   18  C9  UNL     1      25.111   5.796  49.081  1.00  0.00     0.131 C 
HETATM   19  O1  UNL     1      26.408   5.478  48.700  1.00  0.00    -0.359 OA
ENDBRANCH  11  13
ENDBRANCH  10  11
ENDBRANCH   1  10
BRANCH   1  20
HETATM   20  C11 UNL     1      27.184   0.232  53.671  1.00  0.00    -0.051 A 
HETATM   21  C12 UNL     1      28.197   1.082  54.090  1.00  0.00     0.007 A 
HETATM   22  C13 UNL     1      29.502   0.644  54.027  1.00  0.00     0.001 A 
HETATM   23  C14 UNL     1      29.776  -0.629  53.547  1.00  0.00     0.000 A 
HETATM   24  C15 UNL     1      28.742  -1.447  53.138  1.00  0.00     0.001 A 
HETATM   25  C16 UNL     1      27.446  -1.022  53.197  1.00  0.00     0.007 A 
ENDBRANCH   1  20
TORSDOF 8
ENDMDL
MODEL 8
REMARK VINA RESULT:      -6.7      1.784      2.342
REMARK  8 active torsions:
REMARK  status: ('A' for Active; 'I' for Inactive)
REMARK    1  A    between atoms: N1_1  and  P1_2 
REMARK    2  A    between atoms: P1_2  and  C1_3 
REMARK    3  A    between atoms: N2_4  and  C2_5 
REMARK    4  A    between atoms: C2_5  and  C3_6 
REMARK    5  A    between atoms: C3_6  and  C4_7 
REMARK    6  A    between atoms: C3_6  and  C11_16 
REMARK    7  A    between atoms: C4_7  and  N3_8 
REMARK    8  A    between atoms: N3_8  and  C5_9 
ROOT
HETATM    1  C3  UNL     1      23.304   1.670  51.833  1.00  0.00     0.056 C 
ENDROOT
BRANCH   1   2
HETATM    2  C2  UNL     1      22.023   1.774  52.628  1.00  0.00     0.159 C 
BRANCH   2   3
HETATM    3  N2  UNL     1      21.819   0.722  53.553  1.00  0.00    -0.299 NA
HETATM    4  C1  UNL     1      22.052  -0.492  53.202  1.00  0.00     0.129 C 
BRANCH   4   5
HETATM    5  P1  UNL     1      21.688  -1.585  54.621  1.00  0.00    -0.018 P 
HETATM    6  H3  UNL     1      20.454  -1.226  55.303  1.00  0.00     0.079 HD
BRANCH   5   7
HETATM    7  N1  UNL     1      23.011  -1.759  55.771  1.00  0.00    -0.308 NA
HETATM    8  H1  UNL     1      23.895  -2.133  55.393  1.00  0.00     0.123 HD
HETATM    9  H2  UNL     1      23.274  -0.849  56.247  1.00  0.00     0.123 HD
ENDBRANCH   5   7
ENDBRANCH   4   5
ENDBRANCH   2   3
ENDBRANCH   1   2
BRANCH   1  10
HETATM   10  C4  UNL     1      24.307   2.745  52.171  1.00  0.00     0.130 C 
BRANCH  10  11
HETATM   11  N3  UNL     1      25.212   2.293  53.190  1.00  0.00    -0.398 N 
HETATM   12  H10 UNL     1      25.817   2.443  54.024  1.00  0.00     0.158 HD
BRANCH  11  13
HETATM   13  C5  UNL     1      25.445   0.901  53.013  1.00  0.00     0.088 C 
HETATM   14  C6  UNL     1      26.716   0.536  52.960  1.00  0.00    -0.037 C 
HETATM   15  C7  UNL     1      27.894   1.436  53.066  1.00  0.00     0.067 C 
HETATM   16  C10 UNL     1      27.207  -0.855  52.783  1.00  0.00     0.210 C 
HETATM   17  C8  UNL     1      28.726   1.063  54.241  1.00  0.00     0.002 C 
HETATM   18  C9  UNL     1      28.920  -0.232  54.456  1.00  0.00     0.131 C 
HETATM   19  O1  UNL     1      28.340  -1.141  53.580  1.00  0.00    -0.359 OA
ENDBRANCH  11  13
ENDBRANCH  10  11
ENDBRANCH   1  10
BRANCH   1  20
HETATM   20  C11 UNL     1      22.908   1.918  50.400  1.00  0.00    -0.051 A 
HETATM   21  C12 UNL     1      21.898   1.113  49.897  1.00  0.00     0.007 A 
HETATM   22  C13 UNL     1      21.491   1.292  48.592  1.00  0.00     0.001 A 
HETATM   23  C14 UNL     1      22.098   2.267  47.813  1.00  0.00     0.000 A 
HETATM   24  C15 UNL     1      23.102   3.049  48.347  1.00  0.00     0.001 A 
HETATM   25  C16 UNL     1      23.511   2.879  49.639  1.00  0.00     0.007 A 
ENDBRANCH   1  20
TORSDOF 8
ENDMDL
MODEL 9
REMARK VINA RESULT:      -6.7      1.335      2.251
REMARK  8 active torsions:
REMARK  status: ('A' for Active; 'I' for Inactive)
REMARK    1  A    between atoms: N1_1  and  P1_2 
REMARK    2  A    between atoms: P1_2  and  C1_3 
REMARK    3  A    between atoms: N2_4  and  C2_5 
REMARK    4  A    between atoms: C2_5  and  C3_6 
REMARK    5  A    between atoms: C3_6  and  C4_7 
REMARK    6  A    between atoms: C3_6  and  C11_16 
REMARK    7  A    between atoms: C4_7  and  N3_8 
REMARK    8  A    between atoms: N3_8  and  C5_9 
ROOT
HETATM    1  C3  UNL     1      25.541   2.677  50.517  1.00  0.00     0.056 C 
ENDROOT
BRANCH   1   2
HETATM    2  C2  UNL     1      24.309   2.832  51.379  1.00  0.00     0.159 C 
BRANCH   2   3
HETATM    3  N2  UNL     1      23.689   1.612  51.741  1.00  0.00    -0.299 NA
HETATM    4  C1  UNL     1      23.089   1.511  52.873  1.00  0.00     0.129 C 
BRANCH   4   5
HETATM    5  P1  UNL     1      22.408  -0.179  53.018  1.00  0.00    -0.018 P 
HETATM    6  H3  UNL     1      21.040  -0.277  52.530  1.00  0.00     0.079 HD
BRANCH   5   7
HETATM    7  N1  UNL     1      22.551  -0.890  54.624  1.00  0.00    -0.308 NA
HETATM    8  H1  UNL     1      22.269  -1.878  54.710  1.00  0.00     0.123 HD
HETATM    9  H2  UNL     1      23.535  -0.847  55.014  1.00  0.00     0.123 HD
ENDBRANCH   5   7
ENDBRANCH   4   5
ENDBRANCH   2   3
ENDBRANCH   1   2
BRANCH   1  10
HETATM   10  C4  UNL     1      26.814   2.534  51.314  1.00  0.00     0.130 C 
BRANCH  10  11
HETATM   11  N3  UNL     1      26.541   2.599  52.722  1.00  0.00    -0.398 N 
HETATM   12  H10 UNL     1      25.945   2.843  53.540  1.00  0.00     0.158 HD
BRANCH  11  13
HETATM   13  C5  UNL     1      27.644   2.046  53.430  1.00  0.00     0.088 C 
HETATM   14  C6  UNL     1      27.531   0.770  53.760  1.00  0.00    -0.037 C 
HETATM   15  C7  UNL     1      26.376  -0.116  53.462  1.00  0.00     0.067 C 
HETATM   16  C10 UNL     1      28.548  -0.023  54.498  1.00  0.00     0.210 C 
HETATM   17  C8  UNL     1      26.806  -1.260  52.614  1.00  0.00     0.002 C 
HETATM   18  C9  UNL     1      27.960  -1.837  52.921  1.00  0.00     0.131 C 
HETATM   19  O1  UNL     1      28.681  -1.341  53.999  1.00  0.00    -0.359 OA
ENDBRANCH  11  13
ENDBRANCH  10  11
ENDBRANCH   1  10
BRANCH   1  20
HETATM   20  C11 UNL     1      25.673   3.979  49.769  1.00  0.00    -0.051 A 
HETATM   21  C12 UNL     1      24.505   4.706  49.596  1.00  0.00     0.007 A 
HETATM   22  C13 UNL     1      24.561   5.906  48.920  1.00  0.00     0.001 A 
HETATM   23  C14 UNL     1      25.778   6.358  48.427  1.00  0.00     0.000 A 
HETATM   24  C15 UNL     1      26.919   5.608  48.618  1.00  0.00     0.001 A 
HETATM   25  C16 UNL     1      26.874   4.418  49.287  1.00  0.00     0.007 A 
ENDBRANCH   1  20
TORSDOF 8
ENDMDL
