MODEL 1
REMARK VINA RESULT:      -9.0      0.000      0.000
REMARK  3 active torsions:
REMARK  status: ('A' for Active; 'I' for Inactive)
REMARK    1  A    between atoms: C2_2  and  C3_3 
REMARK       I    between atoms: C3_3  and  N1_5 
REMARK    2  A    between atoms: N1_5  and  C4_6 
REMARK    3  A    between atoms: C11_15  and  C12_16 
ROOT
HETATM    1  C4  UNL     1      25.919   0.096  52.716  1.00  0.00     0.035 A 
HETATM    2  C5  UNL     1      24.841  -0.487  53.303  1.00  0.00     0.030 A 
HETATM    3  C6  UNL     1      23.565  -0.021  53.081  1.00  0.00     0.016 A 
HETATM    4  C7  UNL     1      23.393   1.057  52.248  1.00  0.00    -0.001 A 
HETATM    5  C8  UNL     1      22.113   1.492  52.015  1.00  0.00     0.073 A 
HETATM    6  C9  UNL     1      20.932   0.925  52.595  1.00  0.00     0.102 C 
HETATM    7  N2  UNL     1      19.991   0.454  53.071  1.00  0.00    -0.191 NA
HETATM    8  C10 UNL     1      21.991   2.548  51.161  1.00  0.00     0.140 A 
HETATM    9  N3  UNL     1      23.050   3.102  50.605  1.00  0.00    -0.258 NA
HETATM   10  C11 UNL     1      24.332   2.744  50.778  1.00  0.00     0.077 A 
HETATM   11  C17 UNL     1      24.436   1.698  51.622  1.00  0.00     0.007 A 
HETATM   12  C18 UNL     1      25.662   1.166  51.900  1.00  0.00     0.044 A 
ENDROOT
BRANCH  10  13
HETATM   13  C12 UNL     1      25.372   3.450  50.078  1.00  0.00    -0.009 A 
HETATM   14  C13 UNL     1      26.573   3.263  49.616  1.00  0.00    -0.008 A 
HETATM   15  C14 UNL     1      27.184   4.412  48.942  1.00  0.00     0.074 A 
HETATM   16  C15 UNL     1      26.099   5.455  49.031  1.00  0.00    -0.007 A 
HETATM   17 BR1  UNL     1      26.360   7.159  48.293  1.00  0.00    -0.055 Br
HETATM   18  C16 UNL     1      25.149   4.845  49.667  1.00  0.00     0.028 A 
ENDBRANCH  10  13
BRANCH   1  19
HETATM   19  N1  UNL     1      27.251  -0.324  52.892  1.00  0.00    -0.327 N 
HETATM   20  C3  UNL     1      28.191   0.052  53.865  1.00  0.00     0.221 C 
HETATM   21  O1  UNL     1      27.848   0.877  54.725  1.00  0.00    -0.273 OA
HETATM   22  H6  UNL     1      27.691  -1.023  52.243  1.00  0.00     0.169 HD
BRANCH  20  23
HETATM   23  C2  UNL     1      29.573  -0.424  53.995  1.00  0.00     0.098 C 
HETATM   24  C1  UNL     1      29.766  -1.803  53.440  1.00  0.00     0.014 C 
ENDBRANCH  20  23
ENDBRANCH   1  19
TORSDOF 3
ENDMDL
MODEL 2
REMARK VINA RESULT:      -8.8      3.043      5.505
REMARK  3 active torsions:
REMARK  status: ('A' for Active; 'I' for Inactive)
REMARK    1  A    between atoms: C2_2  and  C3_3 
REMARK       I    between atoms: C3_3  and  N1_5 
REMARK    2  A    between atoms: N1_5  and  C4_6 
REMARK    3  A    between atoms: C11_15  and  C12_16 
ROOT
HETATM    1  C4  UNL     1      24.338   2.818  50.196  1.00  0.00     0.035 A 
HETATM    2  C5  UNL     1      23.045   2.751  49.788  1.00  0.00     0.030 A 
HETATM    3  C6  UNL     1      22.141   1.916  50.404  1.00  0.00     0.016 A 
HETATM    4  C7  UNL     1      22.571   1.140  51.452  1.00  0.00    -0.001 A 
HETATM    5  C8  UNL     1      21.651   0.333  52.075  1.00  0.00     0.073 A 
HETATM    6  C9  UNL     1      20.274   0.215  51.701  1.00  0.00     0.102 C 
HETATM    7  N2  UNL     1      19.165   0.133  51.385  1.00  0.00    -0.191 NA
HETATM    8  C10 UNL     1      22.118  -0.398  53.126  1.00  0.00     0.140 A 
HETATM    9  N3  UNL     1      23.379  -0.321  53.505  1.00  0.00    -0.258 NA
HETATM   10  C11 UNL     1      24.341   0.435  52.955  1.00  0.00     0.077 A 
HETATM   11  C17 UNL     1      23.864   1.154  51.919  1.00  0.00     0.007 A 
HETATM   12  C18 UNL     1      24.687   2.012  51.248  1.00  0.00     0.044 A 
ENDROOT
BRANCH  10  13
HETATM   13  C12 UNL     1      25.670   0.412  53.505  1.00  0.00    -0.009 A 
HETATM   14  C13 UNL     1      26.395   1.018  54.399  1.00  0.00    -0.008 A 
HETATM   15  C14 UNL     1      27.771   0.536  54.539  1.00  0.00     0.074 A 
HETATM   16  C15 UNL     1      27.829  -0.578  53.525  1.00  0.00    -0.007 A 
HETATM   17 BR1  UNL     1      29.406  -1.568  53.294  1.00  0.00    -0.055 Br
HETATM   18  C16 UNL     1      26.642  -0.573  53.007  1.00  0.00     0.028 A 
ENDBRANCH  10  13
BRANCH   1  19
HETATM   19  N1  UNL     1      25.319   3.647  49.619  1.00  0.00    -0.327 N 
HETATM   20  C3  UNL     1      25.485   5.039  49.704  1.00  0.00     0.221 C 
HETATM   21  O1  UNL     1      24.669   5.686  50.378  1.00  0.00    -0.273 OA
HETATM   22  H6  UNL     1      26.083   3.248  49.018  1.00  0.00     0.169 HD
BRANCH  20  23
HETATM   23  C2  UNL     1      26.534   5.848  49.074  1.00  0.00     0.098 C 
HETATM   24  C1  UNL     1      27.682   5.024  48.575  1.00  0.00     0.014 C 
ENDBRANCH  20  23
ENDBRANCH   1  19
TORSDOF 3
ENDMDL
MODEL 3
REMARK VINA RESULT:      -8.4      2.588      5.372
REMARK  3 active torsions:
REMARK  status: ('A' for Active; 'I' for Inactive)
REMARK    1  A    between atoms: C2_2  and  C3_3 
REMARK       I    between atoms: C3_3  and  N1_5 
REMARK    2  A    between atoms: N1_5  and  C4_6 
REMARK    3  A    between atoms: C11_15  and  C12_16 
ROOT
HETATM    1  C4  UNL     1      22.989  -0.138  52.889  1.00  0.00     0.035 A 
HETATM    2  C5  UNL     1      23.816  -0.792  53.746  1.00  0.00     0.030 A 
HETATM    3  C6  UNL     1      25.135  -0.426  53.889  1.00  0.00     0.016 A 
HETATM    4  C7  UNL     1      25.611   0.623  53.142  1.00  0.00    -0.001 A 
HETATM    5  C8  UNL     1      26.921   0.993  53.316  1.00  0.00     0.073 A 
HETATM    6  C9  UNL     1      27.847   0.354  54.202  1.00  0.00     0.102 C 
HETATM    7  N2  UNL     1      28.579  -0.174  54.924  1.00  0.00    -0.191 NA
HETATM    8  C10 UNL     1      27.341   2.056  52.573  1.00  0.00     0.140 A 
HETATM    9  N3  UNL     1      26.524   2.675  51.742  1.00  0.00    -0.258 NA
HETATM   10  C11 UNL     1      25.237   2.379  51.509  1.00  0.00     0.077 A 
HETATM   11  C17 UNL     1      24.835   1.329  52.253  1.00  0.00     0.007 A 
HETATM   12  C18 UNL     1      23.542   0.896  52.180  1.00  0.00     0.044 A 
ENDROOT
BRANCH  10  13
HETATM   13  C12 UNL     1      24.479   3.170  50.578  1.00  0.00    -0.009 A 
HETATM   14  C13 UNL     1      24.141   3.188  49.322  1.00  0.00    -0.008 A 
HETATM   15  C14 UNL     1      23.293   4.308  48.905  1.00  0.00     0.074 A 
HETATM   16  C15 UNL     1      23.104   5.069  50.192  1.00  0.00    -0.007 A 
HETATM   17 BR1  UNL     1      22.061   6.628  50.228  1.00  0.00    -0.055 Br
HETATM   18  C16 UNL     1      23.787   4.379  51.050  1.00  0.00     0.028 A 
ENDBRANCH  10  13
BRANCH   1  19
HETATM   19  N1  UNL     1      21.631  -0.452  52.689  1.00  0.00    -0.327 N 
HETATM   20  C3  UNL     1      20.516  -0.178  53.497  1.00  0.00     0.221 C 
HETATM   21  O1  UNL     1      20.700   0.431  54.562  1.00  0.00    -0.273 OA
HETATM   22  H6  UNL     1      21.313  -0.968  51.831  1.00  0.00     0.169 HD
BRANCH  20  23
HETATM   23  C2  UNL     1      19.118  -0.534  53.232  1.00  0.00     0.098 C 
HETATM   24  C1  UNL     1      18.655  -0.095  51.876  1.00  0.00     0.014 C 
ENDBRANCH  20  23
ENDBRANCH   1  19
TORSDOF 3
ENDMDL
MODEL 4
REMARK VINA RESULT:      -8.4      3.017      5.265
REMARK  3 active torsions:
REMARK  status: ('A' for Active; 'I' for Inactive)
REMARK    1  A    between atoms: C2_2  and  C3_3 
REMARK       I    between atoms: C3_3  and  N1_5 
REMARK    2  A    between atoms: N1_5  and  C4_6 
REMARK    3  A    between atoms: C11_15  and  C12_16 
ROOT
HETATM    1  C4  UNL     1      26.189   1.415  51.973  1.00  0.00     0.035 A 
HETATM    2  C5  UNL     1      26.601   2.386  51.117  1.00  0.00     0.030 A 
HETATM    3  C6  UNL     1      25.699   3.176  50.441  1.00  0.00     0.016 A 
HETATM    4  C7  UNL     1      24.358   2.965  50.646  1.00  0.00    -0.001 A 
HETATM    5  C8  UNL     1      23.471   3.779  49.986  1.00  0.00     0.073 A 
HETATM    6  C9  UNL     1      23.834   4.823  49.075  1.00  0.00     0.102 C 
HETATM    7  N2  UNL     1      24.145   5.662  48.343  1.00  0.00    -0.191 NA
HETATM    8  C10 UNL     1      22.152   3.550  50.241  1.00  0.00     0.140 A 
HETATM    9  N3  UNL     1      21.772   2.599  51.072  1.00  0.00    -0.258 NA
HETATM   10  C11 UNL     1      22.567   1.760  51.754  1.00  0.00     0.077 A 
HETATM   11  C17 UNL     1      23.868   2.001  51.494  1.00  0.00     0.007 A 
HETATM   12  C18 UNL     1      24.835   1.269  52.120  1.00  0.00     0.044 A 
ENDROOT
BRANCH  10  13
HETATM   13  C12 UNL     1      21.986   0.784  52.637  1.00  0.00    -0.009 A 
HETATM   14  C13 UNL     1      22.287   0.077  53.686  1.00  0.00    -0.008 A 
HETATM   15  C14 UNL     1      21.229  -0.800  54.191  1.00  0.00     0.074 A 
HETATM   16  C15 UNL     1      20.094  -0.522  53.238  1.00  0.00    -0.007 A 
HETATM   17 BR1  UNL     1      18.448  -1.396  53.442  1.00  0.00    -0.055 Br
HETATM   18  C16 UNL     1      20.596   0.352  52.423  1.00  0.00     0.028 A 
ENDBRANCH  10  13
BRANCH   1  19
HETATM   19  N1  UNL     1      27.049   0.570  52.700  1.00  0.00    -0.327 N 
HETATM   20  C3  UNL     1      27.867   0.854  53.806  1.00  0.00     0.221 C 
HETATM   21  O1  UNL     1      27.870   2.012  54.250  1.00  0.00    -0.273 OA
HETATM   22  H6  UNL     1      27.157  -0.444  52.446  1.00  0.00     0.169 HD
BRANCH  20  23
HETATM   23  C2  UNL     1      28.745  -0.077  54.523  1.00  0.00     0.098 C 
HETATM   24  C1  UNL     1      29.762  -0.720  53.629  1.00  0.00     0.014 C 
ENDBRANCH  20  23
ENDBRANCH   1  19
TORSDOF 3
ENDMDL
MODEL 5
REMARK VINA RESULT:      -8.2      3.464      6.756
REMARK  3 active torsions:
REMARK  status: ('A' for Active; 'I' for Inactive)
REMARK    1  A    between atoms: C2_2  and  C3_3 
REMARK       I    between atoms: C3_3  and  N1_5 
REMARK    2  A    between atoms: N1_5  and  C4_6 
REMARK    3  A    between atoms: C11_15  and  C12_16 
ROOT
HETATM    1  C4  UNL     1      25.335   2.686  50.816  1.00  0.00     0.035 A 
HETATM    2  C5  UNL     1      26.586   2.562  51.331  1.00  0.00     0.030 A 
HETATM    3  C6  UNL     1      26.851   1.701  52.372  1.00  0.00     0.016 A 
HETATM    4  C7  UNL     1      25.819   0.958  52.890  1.00  0.00    -0.001 A 
HETATM    5  C8  UNL     1      26.105   0.084  53.908  1.00  0.00     0.073 A 
HETATM    6  C9  UNL     1      27.398  -0.101  54.496  1.00  0.00     0.102 C 
HETATM    7  N2  UNL     1      28.449  -0.237  54.958  1.00  0.00    -0.191 NA
HETATM    8  C10 UNL     1      25.055  -0.651  54.372  1.00  0.00     0.140 A 
HETATM    9  N3  UNL     1      23.847  -0.513  53.861  1.00  0.00    -0.258 NA
HETATM   10  C11 UNL     1      23.480   0.315  52.872  1.00  0.00     0.077 A 
HETATM   11  C17 UNL     1      24.529   1.032  52.422  1.00  0.00     0.007 A 
HETATM   12  C18 UNL     1      24.362   1.910  51.389  1.00  0.00     0.044 A 
ENDROOT
BRANCH  10  13
HETATM   13  C12 UNL     1      22.114   0.328  52.420  1.00  0.00    -0.009 A 
HETATM   14  C13 UNL     1      21.379   0.820  51.467  1.00  0.00    -0.008 A 
HETATM   15  C14 UNL     1      19.957   0.472  51.513  1.00  0.00     0.074 A 
HETATM   16  C15 UNL     1      19.877  -0.406  52.736  1.00  0.00    -0.007 A 
HETATM   17 BR1  UNL     1      18.238  -1.153  53.260  1.00  0.00    -0.055 Br
HETATM   18  C16 UNL     1      21.098  -0.428  53.168  1.00  0.00     0.028 A 
ENDBRANCH  10  13
BRANCH   1  19
HETATM   19  N1  UNL     1      24.987   3.542  49.754  1.00  0.00    -0.327 N 
HETATM   20  C3  UNL     1      24.609   4.894  49.775  1.00  0.00     0.221 C 
HETATM   21  O1  UNL     1      24.557   5.471  50.872  1.00  0.00    -0.273 OA
HETATM   22  H6  UNL     1      24.983   3.201  48.760  1.00  0.00     0.169 HD
BRANCH  20  23
HETATM   23  C2  UNL     1      24.256   5.735  48.627  1.00  0.00     0.098 C 
HETATM   24  C1  UNL     1      23.040   5.245  47.900  1.00  0.00     0.014 C 
ENDBRANCH  20  23
ENDBRANCH   1  19
TORSDOF 3
ENDMDL
MODEL 6
REMARK VINA RESULT:      -7.9      3.245      5.594
REMARK  3 active torsions:
REMARK  status: ('A' for Active; 'I' for Inactive)
REMARK    1  A    between atoms: C2_2  and  C3_3 
REMARK       I    between atoms: C3_3  and  N1_5 
REMARK    2  A    between atoms: N1_5  and  C4_6 
REMARK    3  A    between atoms: C11_15  and  C12_16 
ROOT
HETATM    1  C4  UNL     1      25.646   4.611  49.642  1.00  0.00     0.035 A 
HETATM    2  C5  UNL     1      24.399   4.592  49.101  1.00  0.00     0.030 A 
HETATM    3  C6  UNL     1      23.464   3.659  49.486  1.00  0.00     0.016 A 
HETATM    4  C7  UNL     1      23.813   2.732  50.437  1.00  0.00    -0.001 A 
HETATM    5  C8  UNL     1      22.861   1.826  50.831  1.00  0.00     0.073 A 
HETATM    6  C9  UNL     1      21.530   1.751  50.308  1.00  0.00     0.102 C 
HETATM    7  N2  UNL     1      20.459   1.706  49.875  1.00  0.00    -0.191 NA
HETATM    8  C10 UNL     1      23.244   0.943  51.796  1.00  0.00     0.140 A 
HETATM    9  N3  UNL     1      24.461   0.975  52.306  1.00  0.00    -0.258 NA
HETATM   10  C11 UNL     1      25.449   1.821  51.980  1.00  0.00     0.077 A 
HETATM   11  C17 UNL     1      25.054   2.688  51.027  1.00  0.00     0.007 A 
HETATM   12  C18 UNL     1      25.913   3.653  50.584  1.00  0.00     0.044 A 
ENDROOT
BRANCH  10  13
HETATM   13  C12 UNL     1      26.719   1.728  52.649  1.00  0.00    -0.009 A 
HETATM   14  C13 UNL     1      27.551   2.463  53.327  1.00  0.00    -0.008 A 
HETATM   15  C14 UNL     1      28.763   1.789  53.798  1.00  0.00     0.074 A 
HETATM   16  C15 UNL     1      28.568   0.381  53.293  1.00  0.00    -0.007 A 
HETATM   17 BR1  UNL     1      29.857  -0.937  53.639  1.00  0.00    -0.055 Br
HETATM   18  C16 UNL     1      27.430   0.440  52.677  1.00  0.00     0.028 A 
ENDBRANCH  10  13
BRANCH   1  19
HETATM   19  N1  UNL     1      26.653   5.533  49.301  1.00  0.00    -0.327 N 
HETATM   20  C3  UNL     1      27.883   5.324  48.655  1.00  0.00     0.221 C 
HETATM   21  O1  UNL     1      28.176   4.169  48.311  1.00  0.00    -0.273 OA
HETATM   22  H6  UNL     1      26.554   6.555  49.526  1.00  0.00     0.169 HD
BRANCH  20  23
HETATM   23  C2  UNL     1      28.896   6.333  48.327  1.00  0.00     0.098 C 
HETATM   24  C1  UNL     1      30.295   5.804  48.424  1.00  0.00     0.014 C 
ENDBRANCH  20  23
ENDBRANCH   1  19
TORSDOF 3
ENDMDL
MODEL 7
REMARK VINA RESULT:      -7.8      3.552      6.004
REMARK  3 active torsions:
REMARK  status: ('A' for Active; 'I' for Inactive)
REMARK    1  A    between atoms: C2_2  and  C3_3 
REMARK       I    between atoms: C3_3  and  N1_5 
REMARK    2  A    between atoms: N1_5  and  C4_6 
REMARK    3  A    between atoms: C11_15  and  C12_16 
ROOT
HETATM    1  C4  UNL     1      21.858   3.805  52.187  1.00  0.00     0.035 A 
HETATM    2  C5  UNL     1      20.564   3.411  52.316  1.00  0.00     0.030 A 
HETATM    3  C6  UNL     1      20.237   2.108  52.613  1.00  0.00     0.016 A 
HETATM    4  C7  UNL     1      21.251   1.197  52.779  1.00  0.00    -0.001 A 
HETATM    5  C8  UNL     1      20.910  -0.092  53.102  1.00  0.00     0.073 A 
HETATM    6  C9  UNL     1      19.571  -0.575  53.257  1.00  0.00     0.102 C 
HETATM    7  N2  UNL     1      18.483  -0.947  53.379  1.00  0.00    -0.191 NA
HETATM    8  C10 UNL     1      21.951  -0.954  53.284  1.00  0.00     0.140 A 
HETATM    9  N3  UNL     1      23.201  -0.553  53.150  1.00  0.00    -0.258 NA
HETATM   10  C11 UNL     1      23.622   0.681  52.835  1.00  0.00     0.077 A 
HETATM   11  C17 UNL     1      22.582   1.522  52.662  1.00  0.00     0.007 A 
HETATM   12  C18 UNL     1      22.809   2.836  52.368  1.00  0.00     0.044 A 
ENDROOT
BRANCH  10  13
HETATM   13  C12 UNL     1      25.031   0.954  52.746  1.00  0.00    -0.009 A 
HETATM   14  C13 UNL     1      25.883   1.587  51.994  1.00  0.00    -0.008 A 
HETATM   15  C14 UNL     1      27.283   1.523  52.421  1.00  0.00     0.074 A 
HETATM   16  C15 UNL     1      27.201   0.694  53.677  1.00  0.00    -0.007 A 
HETATM   17 BR1  UNL     1      28.751   0.306  54.660  1.00  0.00    -0.055 Br
HETATM   18  C16 UNL     1      25.937   0.426  53.777  1.00  0.00     0.028 A 
ENDBRANCH  10  13
BRANCH   1  19
HETATM   19  N1  UNL     1      22.271   5.117  51.887  1.00  0.00    -0.327 N 
HETATM   20  C3  UNL     1      22.356   5.772  50.648  1.00  0.00     0.221 C 
HETATM   21  O1  UNL     1      22.031   5.144  49.629  1.00  0.00    -0.273 OA
HETATM   22  H6  UNL     1      22.577   5.778  52.645  1.00  0.00     0.169 HD
BRANCH  20  23
HETATM   23  C2  UNL     1      22.796   7.149  50.400  1.00  0.00     0.098 C 
HETATM   24  C1  UNL     1      24.176   7.420  50.918  1.00  0.00     0.014 C 
ENDBRANCH  20  23
ENDBRANCH   1  19
TORSDOF 3
ENDMDL
MODEL 8
REMARK VINA RESULT:      -7.7      3.183      5.688
REMARK  3 active torsions:
REMARK  status: ('A' for Active; 'I' for Inactive)
REMARK    1  A    between atoms: C2_2  and  C3_3 
REMARK       I    between atoms: C3_3  and  N1_5 
REMARK    2  A    between atoms: N1_5  and  C4_6 
REMARK    3  A    between atoms: C11_15  and  C12_16 
ROOT
HETATM    1  C4  UNL     1      21.431   1.354  49.668  1.00  0.00     0.035 A 
HETATM    2  C5  UNL     1      20.809   0.517  50.539  1.00  0.00     0.030 A 
HETATM    3  C6  UNL     1      21.397   0.155  51.729  1.00  0.00     0.016 A 
HETATM    4  C7  UNL     1      22.639   0.659  52.030  1.00  0.00    -0.001 A 
HETATM    5  C8  UNL     1      23.199   0.312  53.234  1.00  0.00     0.073 A 
HETATM    6  C9  UNL     1      22.601  -0.561  54.199  1.00  0.00     0.102 C 
HETATM    7  N2  UNL     1      22.102  -1.266  54.967  1.00  0.00    -0.191 NA
HETATM    8  C10 UNL     1      24.420   0.857  53.499  1.00  0.00     0.140 A 
HETATM    9  N3  UNL     1      25.009   1.665  52.639  1.00  0.00    -0.258 NA
HETATM   10  C11 UNL     1      24.536   2.054  51.445  1.00  0.00     0.077 A 
HETATM   11  C17 UNL     1      23.328   1.509  51.198  1.00  0.00     0.007 A 
HETATM   12  C18 UNL     1      22.667   1.812  50.043  1.00  0.00     0.044 A 
ENDROOT
BRANCH  10  13
HETATM   13  C12 UNL     1      25.304   2.958  50.632  1.00  0.00    -0.009 A 
HETATM   14  C13 UNL     1      26.309   2.956  49.806  1.00  0.00    -0.008 A 
HETATM   15  C14 UNL     1      26.671   4.256  49.237  1.00  0.00     0.074 A 
HETATM   16  C15 UNL     1      25.655   5.178  49.861  1.00  0.00    -0.007 A 
HETATM   17 BR1  UNL     1      25.659   7.009  49.452  1.00  0.00    -0.055 Br
HETATM   18  C16 UNL     1      24.952   4.386  50.608  1.00  0.00     0.028 A 
ENDBRANCH  10  13
BRANCH   1  19
HETATM   19  N1  UNL     1      20.895   1.770  48.435  1.00  0.00    -0.327 N 
HETATM   20  C3  UNL     1      20.098   2.886  48.130  1.00  0.00     0.221 C 
HETATM   21  O1  UNL     1      19.789   3.655  49.053  1.00  0.00    -0.273 OA
HETATM   22  H6  UNL     1      21.067   1.223  47.555  1.00  0.00     0.169 HD
BRANCH  20  23
HETATM   23  C2  UNL     1      19.567   3.266  46.817  1.00  0.00     0.098 C 
HETATM   24  C1  UNL     1      20.612   3.854  45.917  1.00  0.00     0.014 C 
ENDBRANCH  20  23
ENDBRANCH   1  19
TORSDOF 3
ENDMDL
MODEL 9
REMARK VINA RESULT:      -7.7      3.010      5.562
REMARK  3 active torsions:
REMARK  status: ('A' for Active; 'I' for Inactive)
REMARK    1  A    between atoms: C2_2  and  C3_3 
REMARK       I    between atoms: C3_3  and  N1_5 
REMARK    2  A    between atoms: N1_5  and  C4_6 
REMARK    3  A    between atoms: C11_15  and  C12_16 
ROOT
HETATM    1  C4  UNL     1      25.950   3.035  50.556  1.00  0.00     0.035 A 
HETATM    2  C5  UNL     1      26.728   2.511  51.539  1.00  0.00     0.030 A 
HETATM    3  C6  UNL     1      26.230   1.594  52.436  1.00  0.00     0.016 A 
HETATM    4  C7  UNL     1      24.916   1.211  52.323  1.00  0.00    -0.001 A 
HETATM    5  C8  UNL     1      24.441   0.275  53.208  1.00  0.00     0.073 A 
HETATM    6  C9  UNL     1      25.204  -0.321  54.263  1.00  0.00     0.102 C 
HETATM    7  N2  UNL     1      25.835  -0.793  55.108  1.00  0.00    -0.191 NA
HETATM    8  C10 UNL     1      23.140  -0.093  53.040  1.00  0.00     0.140 A 
HETATM    9  N3  UNL     1      22.399   0.430  52.082  1.00  0.00    -0.258 NA
HETATM   10  C11 UNL     1      22.780   1.348  51.180  1.00  0.00     0.077 A 
HETATM   11  C17 UNL     1      24.069   1.700  51.357  1.00  0.00     0.007 A 
HETATM   12  C18 UNL     1      24.652   2.601  50.513  1.00  0.00     0.044 A 
ENDROOT
BRANCH  10  13
HETATM   13  C12 UNL     1      21.845   1.803  50.186  1.00  0.00    -0.009 A 
HETATM   14  C13 UNL     1      21.450   1.523  48.979  1.00  0.00    -0.008 A 
HETATM   15  C14 UNL     1      20.391   2.378  48.439  1.00  0.00     0.074 A 
HETATM   16  C15 UNL     1      20.127   3.328  49.580  1.00  0.00    -0.007 A 
HETATM   17 BR1  UNL     1      18.817   4.660  49.420  1.00  0.00    -0.055 Br
HETATM   18  C16 UNL     1      20.965   2.943  50.489  1.00  0.00     0.028 A 
ENDBRANCH  10  13
BRANCH   1  19
HETATM   19  N1  UNL     1      26.388   3.974  49.603  1.00  0.00    -0.327 N 
HETATM   20  C3  UNL     1      26.088   5.341  49.482  1.00  0.00     0.221 C 
HETATM   21  O1  UNL     1      25.324   5.849  50.317  1.00  0.00    -0.273 OA
HETATM   22  H6  UNL     1      27.042   3.698  48.828  1.00  0.00     0.169 HD
BRANCH  20  23
HETATM   23  C2  UNL     1      26.578   6.271  48.460  1.00  0.00     0.098 C 
HETATM   24  C1  UNL     1      25.529   7.239  48.004  1.00  0.00     0.014 C 
ENDBRANCH  20  23
ENDBRANCH   1  19
TORSDOF 3
ENDMDL
