MODEL 1
REMARK VINA RESULT:      -7.4      0.000      0.000
REMARK  8 active torsions:
REMARK  status: ('A' for Active; 'I' for Inactive)
REMARK    1  A    between atoms: C2_2  and  N1_3 
REMARK    2  A    between atoms: N1_3  and  C3_4 
REMARK    3  A    between atoms: C3_4  and  C4_5 
REMARK    4  A    between atoms: C4_5  and  C5_6 
REMARK       I    between atoms: C5_6  and  N2_8 
REMARK    5  A    between atoms: N2_8  and  C6_9 
REMARK    6  A    between atoms: C6_9  and  C8_11 
REMARK    7  A    between atoms: C8_11  and  N3_13 
REMARK       I    between atoms: N3_13  and  C10_14 
REMARK    8  A    between atoms: C10_14  and  C11_16 
ROOT
HETATM    1  C8  UNL     1      24.690   3.170  50.424  1.00  0.00     0.103 C 
HETATM    2  C9  UNL     1      24.141   3.409  49.008  1.00  0.00     0.034 C 
ENDROOT
BRANCH   1   3
HETATM    3  C6  UNL     1      26.171   3.003  50.285  1.00  0.00     0.102 C 
HETATM    4  C7  UNL     1      26.717   4.075  49.330  1.00  0.00     0.034 C 
BRANCH   3   5
HETATM    5  N2  UNL     1      26.911   3.186  51.519  1.00  0.00    -0.355 N 
HETATM    6  C5  UNL     1      27.160   1.974  52.219  1.00  0.00     0.219 C 
HETATM    7  O1  UNL     1      26.861   0.764  51.974  1.00  0.00    -0.274 OA
HETATM    8  H11 UNL     1      27.278   4.054  51.956  1.00  0.00     0.162 HD
BRANCH   6   9
HETATM    9  C4  UNL     1      27.917   1.892  53.533  1.00  0.00     0.132 C 
BRANCH   9  10
HETATM   10  C3  UNL     1      27.422   0.673  54.231  1.00  0.00     0.278 C 
BRANCH  10  11
HETATM   11  N1  UNL     1      28.331  -0.243  54.763  1.00  0.00     0.083 N 
HETATM   12  H6  UNL     1      27.827  -1.120  55.017  1.00  0.00     0.315 HD
BRANCH  11  13
HETATM   13  C2  UNL     1      29.451  -0.554  53.954  1.00  0.00     0.265 C 
HETATM   14  C1  UNL     1      29.302  -1.876  53.281  1.00  0.00     0.037 C 
ENDBRANCH  11  13
ENDBRANCH  10  11
ENDBRANCH   9  10
ENDBRANCH   6   9
ENDBRANCH   3   5
ENDBRANCH   1   3
BRANCH   1  15
HETATM   15  N3  UNL     1      24.000   2.118  51.086  1.00  0.00    -0.351 N 
HETATM   16  C10 UNL     1      23.603   2.144  52.452  1.00  0.00     0.251 C 
HETATM   17  O2  UNL     1      23.940   3.220  53.012  1.00  0.00    -0.268 OA
HETATM   18  H20 UNL     1      23.773   1.261  50.504  1.00  0.00     0.163 HD
BRANCH  16  19
HETATM   19  C11 UNL     1      22.887   1.051  53.123  1.00  0.00     0.028 A 
HETATM   20  C12 UNL     1      23.646   0.128  53.667  1.00  0.00    -0.002 A 
HETATM   21  C13 UNL     1      23.088  -1.051  54.387  1.00  0.00     0.111 A 
HETATM   22  C14 UNL     1      21.611  -0.958  54.358  1.00  0.00     0.152 A 
HETATM   23  O3  UNL     1      21.103  -1.939  54.962  1.00  0.00    -0.293 OA
HETATM   24  C15 UNL     1      20.793   0.075  53.747  1.00  0.00     0.051 A 
HETATM   25  C16 UNL     1      21.451   1.053  53.145  1.00  0.00     0.020 A 
ENDBRANCH  16  19
ENDBRANCH   1  15
TORSDOF 8
ENDMDL
MODEL 2
REMARK VINA RESULT:      -6.8      3.138      5.735
REMARK  8 active torsions:
REMARK  status: ('A' for Active; 'I' for Inactive)
REMARK    1  A    between atoms: C2_2  and  N1_3 
REMARK    2  A    between atoms: N1_3  and  C3_4 
REMARK    3  A    between atoms: C3_4  and  C4_5 
REMARK    4  A    between atoms: C4_5  and  C5_6 
REMARK       I    between atoms: C5_6  and  N2_8 
REMARK    5  A    between atoms: N2_8  and  C6_9 
REMARK    6  A    between atoms: C6_9  and  C8_11 
REMARK    7  A    between atoms: C8_11  and  N3_13 
REMARK       I    between atoms: N3_13  and  C10_14 
REMARK    8  A    between atoms: C10_14  and  C11_16 
ROOT
HETATM    1  C8  UNL     1      24.955   3.012  51.602  1.00  0.00     0.103 C 
HETATM    2  C9  UNL     1      23.609   3.257  52.302  1.00  0.00     0.034 C 
ENDROOT
BRANCH   1   3
HETATM    3  C6  UNL     1      24.728   3.252  50.142  1.00  0.00     0.102 C 
HETATM    4  C7  UNL     1      23.229   3.119  49.833  1.00  0.00     0.034 C 
BRANCH   3   5
HETATM    5  N2  UNL     1      25.089   4.583  49.692  1.00  0.00    -0.355 N 
HETATM    6  C5  UNL     1      26.428   4.682  49.227  1.00  0.00     0.219 C 
HETATM    7  O1  UNL     1      27.368   3.834  49.130  1.00  0.00    -0.274 OA
HETATM    8  H11 UNL     1      24.524   5.454  49.661  1.00  0.00     0.162 HD
BRANCH   6   9
HETATM    9  C4  UNL     1      27.051   5.963  48.699  1.00  0.00     0.132 C 
BRANCH   9  10
HETATM   10  C3  UNL     1      28.419   5.607  48.232  1.00  0.00     0.278 C 
BRANCH  10  11
HETATM   11  N1  UNL     1      29.536   6.033  48.953  1.00  0.00     0.083 N 
HETATM   12  H6  UNL     1      29.730   5.354  49.721  1.00  0.00     0.315 HD
BRANCH  11  13
HETATM   13  C2  UNL     1      30.716   6.257  48.203  1.00  0.00     0.265 C 
HETATM   14  C1  UNL     1      31.283   4.988  47.665  1.00  0.00     0.037 C 
ENDBRANCH  11  13
ENDBRANCH  10  11
ENDBRANCH   9  10
ENDBRANCH   6   9
ENDBRANCH   3   5
ENDBRANCH   1   3
BRANCH   1  15
HETATM   15  N3  UNL     1      25.508   1.748  51.951  1.00  0.00    -0.351 N 
HETATM   16  C10 UNL     1      26.888   1.511  52.205  1.00  0.00     0.251 C 
HETATM   17  O2  UNL     1      27.569   2.562  52.082  1.00  0.00    -0.268 OA
HETATM   18  H20 UNL     1      24.828   0.938  52.022  1.00  0.00     0.163 HD
BRANCH  16  19
HETATM   19  C11 UNL     1      27.444   0.201  52.568  1.00  0.00     0.028 A 
HETATM   20  C12 UNL     1      28.608   0.230  53.177  1.00  0.00    -0.002 A 
HETATM   21  C13 UNL     1      29.317  -1.004  53.616  1.00  0.00     0.111 A 
HETATM   22  C14 UNL     1      28.489  -2.174  53.247  1.00  0.00     0.152 A 
HETATM   23  O3  UNL     1      29.057  -3.238  53.606  1.00  0.00    -0.293 OA
HETATM   24  C15 UNL     1      27.204  -2.180  52.570  1.00  0.00     0.051 A 
HETATM   25  C16 UNL     1      26.714  -0.993  52.248  1.00  0.00     0.020 A 
ENDBRANCH  16  19
ENDBRANCH   1  15
TORSDOF 8
ENDMDL
MODEL 3
REMARK VINA RESULT:      -6.7      2.472      5.264
REMARK  8 active torsions:
REMARK  status: ('A' for Active; 'I' for Inactive)
REMARK    1  A    between atoms: C2_2  and  N1_3 
REMARK    2  A    between atoms: N1_3  and  C3_4 
REMARK    3  A    between atoms: C3_4  and  C4_5 
REMARK    4  A    between atoms: C4_5  and  C5_6 
REMARK       I    between atoms: C5_6  and  N2_8 
REMARK    5  A    between atoms: N2_8  and  C6_9 
REMARK    6  A    between atoms: C6_9  and  C8_11 
REMARK    7  A    between atoms: C8_11  and  N3_13 
REMARK       I    between atoms: N3_13  and  C10_14 
REMARK    8  A    between atoms: C10_14  and  C11_16 
ROOT
HETATM    1  C8  UNL     1      25.818   4.493  49.769  1.00  0.00     0.103 C 
HETATM    2  C9  UNL     1      26.739   5.300  48.839  1.00  0.00     0.034 C 
ENDROOT
BRANCH   1   3
HETATM    3  C6  UNL     1      24.873   5.474  50.391  1.00  0.00     0.102 C 
HETATM    4  C7  UNL     1      24.812   6.742  49.524  1.00  0.00     0.034 C 
BRANCH   3   5
HETATM    5  N2  UNL     1      23.501   5.010  50.477  1.00  0.00    -0.355 N 
HETATM    6  C5  UNL     1      23.075   4.735  51.804  1.00  0.00     0.219 C 
HETATM    7  O1  UNL     1      23.661   4.815  52.928  1.00  0.00    -0.274 OA
HETATM    8  H11 UNL     1      22.800   4.854  49.725  1.00  0.00     0.162 HD
BRANCH   6   9
HETATM    9  C4  UNL     1      21.685   4.241  52.165  1.00  0.00     0.132 C 
BRANCH   9  10
HETATM   10  C3  UNL     1      21.694   2.766  51.964  1.00  0.00     0.278 C 
BRANCH  10  11
HETATM   11  N1  UNL     1      22.683   1.986  52.567  1.00  0.00     0.083 N 
HETATM   12  H6  UNL     1      22.804   2.289  53.558  1.00  0.00     0.315 HD
BRANCH  11  13
HETATM   13  C2  UNL     1      22.492   0.584  52.516  1.00  0.00     0.265 C 
HETATM   14  C1  UNL     1      23.248  -0.120  53.590  1.00  0.00     0.037 C 
ENDBRANCH  11  13
ENDBRANCH  10  11
ENDBRANCH   9  10
ENDBRANCH   6   9
ENDBRANCH   3   5
ENDBRANCH   1   3
BRANCH   1  15
HETATM   15  N3  UNL     1      26.559   3.680  50.670  1.00  0.00    -0.351 N 
HETATM   16  C10 UNL     1      26.116   2.430  51.184  1.00  0.00     0.251 C 
HETATM   17  O2  UNL     1      24.977   2.126  50.743  1.00  0.00    -0.268 OA
HETATM   18  H20 UNL     1      27.508   4.048  50.968  1.00  0.00     0.163 HD
BRANCH  16  19
HETATM   19  C11 UNL     1      26.894   1.598  52.111  1.00  0.00     0.028 A 
HETATM   20  C12 UNL     1      26.634   0.311  52.072  1.00  0.00    -0.002 A 
HETATM   21  C13 UNL     1      27.329  -0.677  52.943  1.00  0.00     0.111 A 
HETATM   22  C14 UNL     1      28.300   0.051  53.790  1.00  0.00     0.152 A 
HETATM   23  O3  UNL     1      28.911  -0.756  54.539  1.00  0.00    -0.293 OA
HETATM   24  C15 UNL     1      28.569   1.478  53.816  1.00  0.00     0.051 A 
HETATM   25  C16 UNL     1      27.860   2.215  52.976  1.00  0.00     0.020 A 
ENDBRANCH  16  19
ENDBRANCH   1  15
TORSDOF 8
ENDMDL
MODEL 4
REMARK VINA RESULT:      -6.7      2.949      6.618
REMARK  8 active torsions:
REMARK  status: ('A' for Active; 'I' for Inactive)
REMARK    1  A    between atoms: C2_2  and  N1_3 
REMARK    2  A    between atoms: N1_3  and  C3_4 
REMARK    3  A    between atoms: C3_4  and  C4_5 
REMARK    4  A    between atoms: C4_5  and  C5_6 
REMARK       I    between atoms: C5_6  and  N2_8 
REMARK    5  A    between atoms: N2_8  and  C6_9 
REMARK    6  A    between atoms: C6_9  and  C8_11 
REMARK    7  A    between atoms: C8_11  and  N3_13 
REMARK       I    between atoms: N3_13  and  C10_14 
REMARK    8  A    between atoms: C10_14  and  C11_16 
ROOT
HETATM    1  C8  UNL     1      24.471   3.752  51.566  1.00  0.00     0.103 C 
HETATM    2  C9  UNL     1      23.603   4.628  52.484  1.00  0.00     0.034 C 
ENDROOT
BRANCH   1   3
HETATM    3  C6  UNL     1      24.973   2.619  52.406  1.00  0.00     0.102 C 
HETATM    4  C7  UNL     1      24.285   1.317  51.967  1.00  0.00     0.034 C 
BRANCH   3   5
HETATM    5  N2  UNL     1      26.394   2.359  52.272  1.00  0.00    -0.355 N 
HETATM    6  C5  UNL     1      27.024   1.996  53.492  1.00  0.00     0.219 C 
HETATM    7  O1  UNL     1      26.586   1.855  54.676  1.00  0.00    -0.274 OA
HETATM    8  H11 UNL     1      27.003   2.399  51.432  1.00  0.00     0.162 HD
BRANCH   6   9
HETATM    9  C4  UNL     1      28.502   1.669  53.621  1.00  0.00     0.132 C 
BRANCH   9  10
HETATM   10  C3  UNL     1      28.611   0.605  54.656  1.00  0.00     0.278 C 
BRANCH  10  11
HETATM   11  N1  UNL     1      28.011  -0.638  54.446  1.00  0.00     0.083 N 
HETATM   12  H6  UNL     1      26.995  -0.573  54.673  1.00  0.00     0.315 HD
BRANCH  11  13
HETATM   13  C2  UNL     1      28.177  -1.202  53.158  1.00  0.00     0.265 C 
HETATM   14  C1  UNL     1      26.872  -1.571  52.540  1.00  0.00     0.037 C 
ENDBRANCH  11  13
ENDBRANCH  10  11
ENDBRANCH   9  10
ENDBRANCH   6   9
ENDBRANCH   3   5
ENDBRANCH   1   3
BRANCH   1  15
HETATM   15  N3  UNL     1      25.462   4.517  50.890  1.00  0.00    -0.351 N 
HETATM   16  C10 UNL     1      25.450   4.809  49.498  1.00  0.00     0.251 C 
HETATM   17  O2  UNL     1      24.448   4.302  48.928  1.00  0.00    -0.268 OA
HETATM   18  H20 UNL     1      26.258   4.889  51.483  1.00  0.00     0.163 HD
BRANCH  16  19
HETATM   19  C11 UNL     1      26.477   5.603  48.813  1.00  0.00     0.028 A 
HETATM   20  C12 UNL     1      26.076   6.761  48.341  1.00  0.00    -0.002 A 
HETATM   21  C13 UNL     1      26.985   7.695  47.619  1.00  0.00     0.111 A 
HETATM   22  C14 UNL     1      28.331   7.081  47.560  1.00  0.00     0.152 A 
HETATM   23  O3  UNL     1      29.130   7.846  46.958  1.00  0.00    -0.293 OA
HETATM   24  C15 UNL     1      28.750   5.795  48.089  1.00  0.00     0.051 A 
HETATM   25  C16 UNL     1      27.814   5.089  48.703  1.00  0.00     0.020 A 
ENDBRANCH  16  19
ENDBRANCH   1  15
TORSDOF 8
ENDMDL
MODEL 5
REMARK VINA RESULT:      -6.6      2.321      5.614
REMARK  8 active torsions:
REMARK  status: ('A' for Active; 'I' for Inactive)
REMARK    1  A    between atoms: C2_2  and  N1_3 
REMARK    2  A    between atoms: N1_3  and  C3_4 
REMARK    3  A    between atoms: C3_4  and  C4_5 
REMARK    4  A    between atoms: C4_5  and  C5_6 
REMARK       I    between atoms: C5_6  and  N2_8 
REMARK    5  A    between atoms: N2_8  and  C6_9 
REMARK    6  A    between atoms: C6_9  and  C8_11 
REMARK    7  A    between atoms: C8_11  and  N3_13 
REMARK       I    between atoms: N3_13  and  C10_14 
REMARK    8  A    between atoms: C10_14  and  C11_16 
ROOT
HETATM    1  C8  UNL     1      23.807   3.483  51.784  1.00  0.00     0.103 C 
HETATM    2  C9  UNL     1      23.482   4.552  52.841  1.00  0.00     0.034 C 
ENDROOT
BRANCH   1   3
HETATM    3  C6  UNL     1      22.496   3.016  51.232  1.00  0.00     0.102 C 
HETATM    4  C7  UNL     1      22.645   2.748  49.726  1.00  0.00     0.034 C 
BRANCH   3   5
HETATM    5  N2  UNL     1      22.023   1.765  51.793  1.00  0.00    -0.355 N 
HETATM    6  C5  UNL     1      20.818   1.893  52.535  1.00  0.00     0.219 C 
HETATM    7  O1  UNL     1      20.077   2.888  52.803  1.00  0.00    -0.274 OA
HETATM    8  H11 UNL     1      22.428   0.810  51.731  1.00  0.00     0.162 HD
BRANCH   6   9
HETATM    9  C4  UNL     1      20.115   0.733  53.219  1.00  0.00     0.132 C 
BRANCH   9  10
HETATM   10  C3  UNL     1      20.932   0.388  54.414  1.00  0.00     0.278 C 
BRANCH  10  11
HETATM   11  N1  UNL     1      21.151  -0.950  54.747  1.00  0.00     0.083 N 
HETATM   12  H6  UNL     1      20.809  -1.559  53.972  1.00  0.00     0.315 HD
BRANCH  11  13
HETATM   13  C2  UNL     1      22.482  -1.303  55.078  1.00  0.00     0.265 C 
HETATM   14  C1  UNL     1      23.468  -0.697  54.140  1.00  0.00     0.037 C 
ENDBRANCH  11  13
ENDBRANCH  10  11
ENDBRANCH   9  10
ENDBRANCH   6   9
ENDBRANCH   3   5
ENDBRANCH   1   3
BRANCH   1  15
HETATM   15  N3  UNL     1      24.663   2.473  52.303  1.00  0.00    -0.351 N 
HETATM   16  C10 UNL     1      25.950   2.157  51.783  1.00  0.00     0.251 C 
HETATM   17  O2  UNL     1      26.242   2.884  50.798  1.00  0.00    -0.268 OA
HETATM   18  H20 UNL     1      24.301   1.928  53.137  1.00  0.00     0.163 HD
BRANCH  16  19
HETATM   19  C11 UNL     1      26.825   1.113  52.331  1.00  0.00     0.028 A 
HETATM   20  C12 UNL     1      27.886   1.545  52.975  1.00  0.00    -0.002 A 
HETATM   21  C13 UNL     1      28.881   0.626  53.594  1.00  0.00     0.111 A 
HETATM   22  C14 UNL     1      28.445  -0.767  53.347  1.00  0.00     0.152 A 
HETATM   23  O3  UNL     1      29.263  -1.575  53.861  1.00  0.00    -0.293 OA
HETATM   24  C15 UNL     1      27.267  -1.220  52.630  1.00  0.00     0.051 A 
HETATM   25  C16 UNL     1      26.486  -0.269  52.140  1.00  0.00     0.020 A 
ENDBRANCH  16  19
ENDBRANCH   1  15
TORSDOF 8
ENDMDL
MODEL 6
REMARK VINA RESULT:      -6.3      3.528      5.980
REMARK  8 active torsions:
REMARK  status: ('A' for Active; 'I' for Inactive)
REMARK    1  A    between atoms: C2_2  and  N1_3 
REMARK    2  A    between atoms: N1_3  and  C3_4 
REMARK    3  A    between atoms: C3_4  and  C4_5 
REMARK    4  A    between atoms: C4_5  and  C5_6 
REMARK       I    between atoms: C5_6  and  N2_8 
REMARK    5  A    between atoms: N2_8  and  C6_9 
REMARK    6  A    between atoms: C6_9  and  C8_11 
REMARK    7  A    between atoms: C8_11  and  N3_13 
REMARK       I    between atoms: N3_13  and  C10_14 
REMARK    8  A    between atoms: C10_14  and  C11_16 
ROOT
HETATM    1  C8  UNL     1      25.454   4.965  49.861  1.00  0.00     0.103 C 
HETATM    2  C9  UNL     1      26.654   5.148  48.917  1.00  0.00     0.034 C 
ENDROOT
BRANCH   1   3
HETATM    3  C6  UNL     1      25.003   6.339  50.250  1.00  0.00     0.102 C 
HETATM    4  C7  UNL     1      23.956   6.233  51.368  1.00  0.00     0.034 C 
BRANCH   3   5
HETATM    5  N2  UNL     1      26.053   7.180  50.794  1.00  0.00    -0.355 N 
HETATM    6  C5  UNL     1      26.374   8.294  49.973  1.00  0.00     0.219 C 
HETATM    7  O1  UNL     1      25.922   8.695  48.856  1.00  0.00    -0.274 OA
HETATM    8  H11 UNL     1      26.591   7.088  51.678  1.00  0.00     0.162 HD
BRANCH   6   9
HETATM    9  C4  UNL     1      27.433   9.327  50.318  1.00  0.00     0.132 C 
BRANCH   9  10
HETATM   10  C3  UNL     1      28.569   9.096  49.385  1.00  0.00     0.278 C 
BRANCH  10  11
HETATM   11  N1  UNL     1      29.041   7.800  49.167  1.00  0.00     0.083 N 
HETATM   12  H6  UNL     1      28.363   7.115  49.565  1.00  0.00     0.315 HD
BRANCH  11  13
HETATM   13  C2  UNL     1      29.334   7.458  47.825  1.00  0.00     0.265 C 
HETATM   14  C1  UNL     1      30.271   6.302  47.737  1.00  0.00     0.037 C 
ENDBRANCH  11  13
ENDBRANCH  10  11
ENDBRANCH   9  10
ENDBRANCH   6   9
ENDBRANCH   3   5
ENDBRANCH   1   3
BRANCH   1  15
HETATM   15  N3  UNL     1      25.756   4.079  50.931  1.00  0.00    -0.351 N 
HETATM   16  C10 UNL     1      25.088   2.846  51.174  1.00  0.00     0.251 C 
HETATM   17  O2  UNL     1      24.187   2.632  50.321  1.00  0.00    -0.268 OA
HETATM   18  H20 UNL     1      26.537   4.374  51.584  1.00  0.00     0.163 HD
BRANCH  16  19
HETATM   19  C11 UNL     1      25.412   1.938  52.282  1.00  0.00     0.028 A 
HETATM   20  C12 UNL     1      24.500   1.035  52.558  1.00  0.00    -0.002 A 
HETATM   21  C13 UNL     1      24.663   0.034  53.650  1.00  0.00     0.111 A 
HETATM   22  C14 UNL     1      25.975   0.261  54.298  1.00  0.00     0.152 A 
HETATM   23  O3  UNL     1      26.150  -0.571  55.225  1.00  0.00    -0.293 OA
HETATM   24  C15 UNL     1      26.968   1.271  53.974  1.00  0.00     0.051 A 
HETATM   25  C16 UNL     1      26.662   2.083  52.974  1.00  0.00     0.020 A 
ENDBRANCH  16  19
ENDBRANCH   1  15
TORSDOF 8
ENDMDL
MODEL 7
REMARK VINA RESULT:      -6.3      2.119      5.636
REMARK  8 active torsions:
REMARK  status: ('A' for Active; 'I' for Inactive)
REMARK    1  A    between atoms: C2_2  and  N1_3 
REMARK    2  A    between atoms: N1_3  and  C3_4 
REMARK    3  A    between atoms: C3_4  and  C4_5 
REMARK    4  A    between atoms: C4_5  and  C5_6 
REMARK       I    between atoms: C5_6  and  N2_8 
REMARK    5  A    between atoms: N2_8  and  C6_9 
REMARK    6  A    between atoms: C6_9  and  C8_11 
REMARK    7  A    between atoms: C8_11  and  N3_13 
REMARK       I    between atoms: N3_13  and  C10_14 
REMARK    8  A    between atoms: C10_14  and  C11_16 
ROOT
HETATM    1  C8  UNL     1      22.199   1.367  52.241  1.00  0.00     0.103 C 
HETATM    2  C9  UNL     1      20.880   2.084  52.572  1.00  0.00     0.034 C 
ENDROOT
BRANCH   1   3
HETATM    3  C6  UNL     1      22.576   0.581  53.458  1.00  0.00     0.102 C 
HETATM    4  C7  UNL     1      21.322  -0.093  54.036  1.00  0.00     0.034 C 
BRANCH   3   5
HETATM    5  N2  UNL     1      23.505  -0.504  53.205  1.00  0.00    -0.355 N 
HETATM    6  C5  UNL     1      24.869  -0.127  53.335  1.00  0.00     0.219 C 
HETATM    7  O1  UNL     1      25.431   0.973  53.629  1.00  0.00    -0.274 OA
HETATM    8  H11 UNL     1      23.321  -1.494  52.948  1.00  0.00     0.162 HD
BRANCH   6   9
HETATM    9  C4  UNL     1      26.036  -1.077  53.126  1.00  0.00     0.132 C 
BRANCH   9  10
HETATM   10  C3  UNL     1      27.272  -0.250  53.191  1.00  0.00     0.278 C 
BRANCH  10  11
HETATM   11  N1  UNL     1      28.179  -0.433  54.236  1.00  0.00     0.083 N 
HETATM   12  H6  UNL     1      28.864  -1.174  53.971  1.00  0.00     0.315 HD
BRANCH  11  13
HETATM   13  C2  UNL     1      28.871   0.722  54.673  1.00  0.00     0.265 C 
HETATM   14  C1  UNL     1      28.734   1.851  53.710  1.00  0.00     0.037 C 
ENDBRANCH  11  13
ENDBRANCH  10  11
ENDBRANCH   9  10
ENDBRANCH   6   9
ENDBRANCH   3   5
ENDBRANCH   1   3
BRANCH   1  15
HETATM   15  N3  UNL     1      23.182   2.272  51.750  1.00  0.00    -0.351 N 
HETATM   16  C10 UNL     1      23.467   2.488  50.373  1.00  0.00     0.251 C 
HETATM   17  O2  UNL     1      22.740   1.776  49.633  1.00  0.00    -0.268 OA
HETATM   18  H20 UNL     1      23.729   2.815  52.477  1.00  0.00     0.163 HD
BRANCH  16  19
HETATM   19  C11 UNL     1      24.482   3.428  49.881  1.00  0.00     0.028 A 
HETATM   20  C12 UNL     1      24.019   4.561  49.404  1.00  0.00    -0.002 A 
HETATM   21  C13 UNL     1      24.907   5.628  48.862  1.00  0.00     0.111 A 
HETATM   22  C14 UNL     1      26.309   5.169  48.975  1.00  0.00     0.152 A 
HETATM   23  O3  UNL     1      27.091   6.050  48.529  1.00  0.00    -0.293 OA
HETATM   24  C15 UNL     1      26.796   3.908  49.505  1.00  0.00     0.051 A 
HETATM   25  C16 UNL     1      25.871   3.070  49.945  1.00  0.00     0.020 A 
ENDBRANCH  16  19
ENDBRANCH   1  15
TORSDOF 8
ENDMDL
MODEL 8
REMARK VINA RESULT:      -6.1      3.524      6.470
REMARK  8 active torsions:
REMARK  status: ('A' for Active; 'I' for Inactive)
REMARK    1  A    between atoms: C2_2  and  N1_3 
REMARK    2  A    between atoms: N1_3  and  C3_4 
REMARK    3  A    between atoms: C3_4  and  C4_5 
REMARK    4  A    between atoms: C4_5  and  C5_6 
REMARK       I    between atoms: C5_6  and  N2_8 
REMARK    5  A    between atoms: N2_8  and  C6_9 
REMARK    6  A    between atoms: C6_9  and  C8_11 
REMARK    7  A    between atoms: C8_11  and  N3_13 
REMARK       I    between atoms: N3_13  and  C10_14 
REMARK    8  A    between atoms: C10_14  and  C11_16 
ROOT
HETATM    1  C8  UNL     1      25.329   4.270  50.118  1.00  0.00     0.103 C 
HETATM    2  C9  UNL     1      24.250   3.715  49.174  1.00  0.00     0.034 C 
ENDROOT
BRANCH   1   3
HETATM    3  C6  UNL     1      26.032   5.359  49.368  1.00  0.00     0.102 C 
HETATM    4  C7  UNL     1      25.797   6.700  50.080  1.00  0.00     0.034 C 
BRANCH   3   5
HETATM    5  N2  UNL     1      27.474   5.210  49.312  1.00  0.00    -0.355 N 
HETATM    6  C5  UNL     1      28.092   6.021  48.322  1.00  0.00     0.219 C 
HETATM    7  O1  UNL     1      27.628   6.849  47.478  1.00  0.00    -0.274 OA
HETATM    8  H11 UNL     1      28.106   4.610  49.878  1.00  0.00     0.162 HD
BRANCH   6   9
HETATM    9  C4  UNL     1      29.589   6.053  48.063  1.00  0.00     0.132 C 
BRANCH   9  10
HETATM   10  C3  UNL     1      30.057   7.410  48.457  1.00  0.00     0.278 C 
BRANCH  10  11
HETATM   11  N1  UNL     1      29.314   8.169  49.362  1.00  0.00     0.083 N 
HETATM   12  H6  UNL     1      29.444   7.785  50.323  1.00  0.00     0.315 HD
BRANCH  11  13
HETATM   13  C2  UNL     1      29.568   9.562  49.366  1.00  0.00     0.265 C 
HETATM   14  C1  UNL     1      29.456  10.153  48.002  1.00  0.00     0.037 C 
ENDBRANCH  11  13
ENDBRANCH  10  11
ENDBRANCH   9  10
ENDBRANCH   6   9
ENDBRANCH   3   5
ENDBRANCH   1   3
BRANCH   1  15
HETATM   15  N3  UNL     1      26.154   3.237  50.642  1.00  0.00    -0.351 N 
HETATM   16  C10 UNL     1      25.877   2.505  51.830  1.00  0.00     0.251 C 
HETATM   17  O2  UNL     1      24.806   2.885  52.369  1.00  0.00    -0.268 OA
HETATM   18  H20 UNL     1      27.032   3.009  50.093  1.00  0.00     0.163 HD
BRANCH  16  19
HETATM   19  C11 UNL     1      26.736   1.437  52.357  1.00  0.00     0.028 A 
HETATM   20  C12 UNL     1      26.302   0.213  52.161  1.00  0.00    -0.002 A 
HETATM   21  C13 UNL     1      27.046  -0.990  52.630  1.00  0.00     0.111 A 
HETATM   22  C14 UNL     1      28.283  -0.538  53.306  1.00  0.00     0.152 A 
HETATM   23  O3  UNL     1      28.941  -1.530  53.714  1.00  0.00    -0.293 OA
HETATM   24  C15 UNL     1      28.741   0.825  53.512  1.00  0.00     0.051 A 
HETATM   25  C16 UNL     1      27.957   1.778  53.032  1.00  0.00     0.020 A 
ENDBRANCH  16  19
ENDBRANCH   1  15
TORSDOF 8
ENDMDL
MODEL 9
REMARK VINA RESULT:      -6.1      2.667      5.298
REMARK  8 active torsions:
REMARK  status: ('A' for Active; 'I' for Inactive)
REMARK    1  A    between atoms: C2_2  and  N1_3 
REMARK    2  A    between atoms: N1_3  and  C3_4 
REMARK    3  A    between atoms: C3_4  and  C4_5 
REMARK    4  A    between atoms: C4_5  and  C5_6 
REMARK       I    between atoms: C5_6  and  N2_8 
REMARK    5  A    between atoms: N2_8  and  C6_9 
REMARK    6  A    between atoms: C6_9  and  C8_11 
REMARK    7  A    between atoms: C8_11  and  N3_13 
REMARK       I    between atoms: N3_13  and  C10_14 
REMARK    8  A    between atoms: C10_14  and  C11_16 
ROOT
HETATM    1  C8  UNL     1      24.983   3.204  50.148  1.00  0.00     0.103 C 
HETATM    2  C9  UNL     1      26.459   3.239  49.717  1.00  0.00     0.034 C 
ENDROOT
BRANCH   1   3
HETATM    3  C6  UNL     1      24.551   4.629  50.305  1.00  0.00     0.102 C 
HETATM    4  C7  UNL     1      25.391   5.521  49.380  1.00  0.00     0.034 C 
BRANCH   3   5
HETATM    5  N2  UNL     1      23.174   4.880  49.923  1.00  0.00    -0.355 N 
HETATM    6  C5  UNL     1      22.261   4.816  51.010  1.00  0.00     0.219 C 
HETATM    7  O1  UNL     1      22.415   4.580  52.248  1.00  0.00    -0.274 OA
HETATM    8  H11 UNL     1      22.768   5.096  48.991  1.00  0.00     0.162 HD
BRANCH   6   9
HETATM    9  C4  UNL     1      20.765   5.045  50.877  1.00  0.00     0.132 C 
BRANCH   9  10
HETATM   10  C3  UNL     1      20.100   3.944  51.628  1.00  0.00     0.278 C 
BRANCH  10  11
HETATM   11  N1  UNL     1      20.061   2.657  51.089  1.00  0.00     0.083 N 
HETATM   12  H6  UNL     1      20.935   2.149  51.347  1.00  0.00     0.315 HD
BRANCH  11  13
HETATM   13  C2  UNL     1      18.933   1.871  51.429  1.00  0.00     0.265 C 
HETATM   14  C1  UNL     1      19.141   0.431  51.106  1.00  0.00     0.037 C 
ENDBRANCH  11  13
ENDBRANCH  10  11
ENDBRANCH   9  10
ENDBRANCH   6   9
ENDBRANCH   3   5
ENDBRANCH   1   3
BRANCH   1  15
HETATM   15  N3  UNL     1      24.783   2.360  51.275  1.00  0.00    -0.351 N 
HETATM   16  C10 UNL     1      23.669   1.492  51.449  1.00  0.00     0.251 C 
HETATM   17  O2  UNL     1      22.872   1.562  50.477  1.00  0.00    -0.268 OA
HETATM   18  H20 UNL     1      25.528   2.392  52.029  1.00  0.00     0.163 HD
BRANCH  16  19
HETATM   19  C11 UNL     1      23.476   0.623  52.616  1.00  0.00     0.028 A 
HETATM   20  C12 UNL     1      22.231   0.468  53.007  1.00  0.00    -0.002 A 
HETATM   21  C13 UNL     1      21.854  -0.379  54.173  1.00  0.00     0.111 A 
HETATM   22  C14 UNL     1      23.089  -0.961  54.745  1.00  0.00     0.152 A 
HETATM   23  O3  UNL     1      22.808  -1.688  55.734  1.00  0.00    -0.293 OA
HETATM   24  C15 UNL     1      24.457  -0.772  54.295  1.00  0.00     0.051 A 
HETATM   25  C16 UNL     1      24.616   0.014  53.242  1.00  0.00     0.020 A 
ENDBRANCH  16  19
ENDBRANCH   1  15
TORSDOF 8
ENDMDL
