MODEL 1
REMARK VINA RESULT:      -8.0      0.000      0.000
REMARK  5 active torsions:
REMARK  status: ('A' for Active; 'I' for Inactive)
REMARK    1  A    between atoms: O1_2  and  C2_3 
REMARK    2  A    between atoms: C5_6  and  C6_7 
REMARK    3  A    between atoms: C6_7  and  C7_8 
REMARK       I    between atoms: C7_8  and  N1_10 
REMARK    4  A    between atoms: N1_10  and  S1_11 
REMARK    5  A    between atoms: S1_11  and  C8_14 
ROOT
HETATM    1  C7  UNL     1      26.457   2.310  51.004  1.00  0.00     0.235 C 
HETATM    2  O2  UNL     1      27.515   2.791  51.489  1.00  0.00    -0.272 OA
HETATM    3  N1  UNL     1      25.532   1.478  51.650  1.00  0.00    -0.250 N 
HETATM    4  H8  UNL     1      24.716   1.189  51.068  1.00  0.00     0.181 HD
ENDROOT
BRANCH   3   5
HETATM    5  S1  UNL     1      25.967   1.118  53.294  1.00  0.00     0.268 S 
HETATM    6  O3  UNL     1      26.163   2.409  54.030  1.00  0.00    -0.200 OA
HETATM    7  O4  UNL     1      24.796   0.425  53.952  1.00  0.00    -0.200 OA
BRANCH   5   8
HETATM    8  C8  UNL     1      27.419   0.196  53.384  1.00  0.00     0.118 A 
HETATM    9  C9  UNL     1      28.554   0.766  53.922  1.00  0.00     0.028 A 
HETATM   10  C10 UNL     1      29.725   0.046  54.003  1.00  0.00     0.002 A 
HETATM   11  C11 UNL     1      29.742  -1.256  53.537  1.00  0.00     0.003 A 
HETATM   12  C12 UNL     1      28.599  -1.847  52.989  1.00  0.00     0.044 A 
HETATM   13  C13 UNL     1      27.449  -1.092  52.927  1.00  0.00     0.139 A 
HETATM   14  F1  UNL     1      26.299  -1.622  52.400  1.00  0.00    -0.204 F 
ENDBRANCH   5   8
ENDBRANCH   3   5
BRANCH   1  15
HETATM   15  C6  UNL     1      26.297   2.751  49.600  1.00  0.00     0.142 C 
BRANCH  15  16
HETATM   16  C5  UNL     1      26.327   4.230  49.520  1.00  0.00    -0.049 A 
HETATM   17  C4  UNL     1      27.362   4.760  48.741  1.00  0.00     0.010 A 
HETATM   18  C3  UNL     1      27.526   6.120  48.568  1.00  0.00     0.037 A 
HETATM   19  C2  UNL     1      26.669   7.011  49.161  1.00  0.00     0.068 A 
HETATM   20  C15 UNL     1      25.670   6.480  49.914  1.00  0.00     0.037 A 
HETATM   21  C14 UNL     1      25.468   5.131  50.116  1.00  0.00     0.010 A 
BRANCH  19  22
HETATM   22  O1  UNL     1      26.822   8.381  48.996  1.00  0.00    -0.356 OA
HETATM   23  C1  UNL     1      27.175   9.189  50.103  1.00  0.00     0.210 C 
ENDBRANCH  19  22
ENDBRANCH  15  16
ENDBRANCH   1  15
TORSDOF 5
ENDMDL
MODEL 2
REMARK VINA RESULT:      -7.9      3.895      6.284
REMARK  5 active torsions:
REMARK  status: ('A' for Active; 'I' for Inactive)
REMARK    1  A    between atoms: O1_2  and  C2_3 
REMARK    2  A    between atoms: C5_6  and  C6_7 
REMARK    3  A    between atoms: C6_7  and  C7_8 
REMARK       I    between atoms: C7_8  and  N1_10 
REMARK    4  A    between atoms: N1_10  and  S1_11 
REMARK    5  A    between atoms: S1_11  and  C8_14 
ROOT
HETATM    1  C7  UNL     1      24.991   2.483  52.317  1.00  0.00     0.235 C 
HETATM    2  O2  UNL     1      25.405   2.331  51.137  1.00  0.00    -0.272 OA
HETATM    3  N1  UNL     1      25.740   2.372  53.497  1.00  0.00    -0.250 N 
HETATM    4  H8  UNL     1      25.204   2.538  54.376  1.00  0.00     0.181 HD
ENDROOT
BRANCH   3   5
HETATM    5  S1  UNL     1      27.409   1.980  53.214  1.00  0.00     0.268 S 
HETATM    6  O3  UNL     1      27.842   2.628  51.933  1.00  0.00    -0.200 OA
HETATM    7  O4  UNL     1      28.235   2.610  54.311  1.00  0.00    -0.200 OA
BRANCH   5   8
HETATM    8  C8  UNL     1      27.655   0.279  53.092  1.00  0.00     0.118 A 
HETATM    9  C9  UNL     1      26.615  -0.531  52.690  1.00  0.00     0.028 A 
HETATM   10  C10 UNL     1      26.791  -1.893  52.586  1.00  0.00     0.002 A 
HETATM   11  C11 UNL     1      28.028  -2.431  52.890  1.00  0.00     0.003 A 
HETATM   12  C12 UNL     1      29.093  -1.622  53.299  1.00  0.00     0.044 A 
HETATM   13  C13 UNL     1      28.874  -0.265  53.390  1.00  0.00     0.139 A 
HETATM   14  F1  UNL     1      29.883   0.575  53.785  1.00  0.00    -0.204 F 
ENDBRANCH   5   8
ENDBRANCH   3   5
BRANCH   1  15
HETATM   15  C6  UNL     1      23.548   2.809  52.309  1.00  0.00     0.142 C 
BRANCH  15  16
HETATM   16  C5  UNL     1      22.752   1.623  52.703  1.00  0.00    -0.049 A 
HETATM   17  C4  UNL     1      21.383   1.859  52.875  1.00  0.00     0.010 A 
HETATM   18  C3  UNL     1      20.507   0.856  53.242  1.00  0.00     0.037 A 
HETATM   19  C2  UNL     1      20.954  -0.422  53.454  1.00  0.00     0.068 A 
HETATM   20  C15 UNL     1      22.285  -0.634  53.284  1.00  0.00     0.037 A 
HETATM   21  C14 UNL     1      23.196   0.334  52.919  1.00  0.00     0.010 A 
BRANCH  19  22
HETATM   22  O1  UNL     1      20.085  -1.441  53.824  1.00  0.00    -0.356 OA
HETATM   23  C1  UNL     1      18.723  -1.379  53.442  1.00  0.00     0.210 C 
ENDBRANCH  19  22
ENDBRANCH  15  16
ENDBRANCH   1  15
TORSDOF 5
ENDMDL
MODEL 3
REMARK VINA RESULT:      -7.7      0.586      1.152
REMARK  5 active torsions:
REMARK  status: ('A' for Active; 'I' for Inactive)
REMARK    1  A    between atoms: O1_2  and  C2_3 
REMARK    2  A    between atoms: C5_6  and  C6_7 
REMARK    3  A    between atoms: C6_7  and  C7_8 
REMARK       I    between atoms: C7_8  and  N1_10 
REMARK    4  A    between atoms: N1_10  and  S1_11 
REMARK    5  A    between atoms: S1_11  and  C8_14 
ROOT
HETATM    1  C7  UNL     1      26.456   2.268  50.972  1.00  0.00     0.235 C 
HETATM    2  O2  UNL     1      27.507   2.759  51.461  1.00  0.00    -0.272 OA
HETATM    3  N1  UNL     1      25.522   1.450  51.624  1.00  0.00    -0.250 N 
HETATM    4  H8  UNL     1      24.715   1.148  51.037  1.00  0.00     0.181 HD
ENDROOT
BRANCH   3   5
HETATM    5  S1  UNL     1      25.934   1.128  53.281  1.00  0.00     0.268 S 
HETATM    6  O3  UNL     1      26.074   2.434  54.002  1.00  0.00    -0.200 OA
HETATM    7  O4  UNL     1      24.773   0.406  53.925  1.00  0.00    -0.200 OA
BRANCH   5   8
HETATM    8  C8  UNL     1      27.413   0.254  53.415  1.00  0.00     0.118 A 
HETATM    9  C9  UNL     1      28.505   0.852  54.005  1.00  0.00     0.028 A 
HETATM   10  C10 UNL     1      29.697   0.172  54.121  1.00  0.00     0.002 A 
HETATM   11  C11 UNL     1      29.777  -1.121  53.637  1.00  0.00     0.003 A 
HETATM   12  C12 UNL     1      28.678  -1.741  53.035  1.00  0.00     0.044 A 
HETATM   13  C13 UNL     1      27.505  -1.025  52.939  1.00  0.00     0.139 A 
HETATM   14  F1  UNL     1      26.396  -1.585  52.359  1.00  0.00    -0.204 F 
ENDBRANCH   5   8
ENDBRANCH   3   5
BRANCH   1  15
HETATM   15  C6  UNL     1      26.316   2.676  49.557  1.00  0.00     0.142 C 
BRANCH  15  16
HETATM   16  C5  UNL     1      26.383   4.151  49.440  1.00  0.00    -0.049 A 
HETATM   17  C4  UNL     1      25.378   4.847  50.123  1.00  0.00     0.010 A 
HETATM   18  C3  UNL     1      25.303   6.225  50.112  1.00  0.00     0.037 A 
HETATM   19  C2  UNL     1      26.222   6.972  49.422  1.00  0.00     0.068 A 
HETATM   20  C15 UNL     1      27.190   6.282  48.763  1.00  0.00     0.037 A 
HETATM   21  C14 UNL     1      27.305   4.909  48.746  1.00  0.00     0.010 A 
BRANCH  19  22
HETATM   22  O1  UNL     1      26.159   8.359  49.400  1.00  0.00    -0.356 OA
HETATM   23  C1  UNL     1      24.921   9.005  49.164  1.00  0.00     0.210 C 
ENDBRANCH  19  22
ENDBRANCH  15  16
ENDBRANCH   1  15
TORSDOF 5
ENDMDL
MODEL 4
REMARK VINA RESULT:      -7.5      4.100      6.587
REMARK  5 active torsions:
REMARK  status: ('A' for Active; 'I' for Inactive)
REMARK    1  A    between atoms: O1_2  and  C2_3 
REMARK    2  A    between atoms: C5_6  and  C6_7 
REMARK    3  A    between atoms: C6_7  and  C7_8 
REMARK       I    between atoms: C7_8  and  N1_10 
REMARK    4  A    between atoms: N1_10  and  S1_11 
REMARK    5  A    between atoms: S1_11  and  C8_14 
ROOT
HETATM    1  C7  UNL     1      24.613   2.830  51.489  1.00  0.00     0.235 C 
HETATM    2  O2  UNL     1      24.427   3.316  52.635  1.00  0.00    -0.272 OA
HETATM    3  N1  UNL     1      23.645   2.284  50.634  1.00  0.00    -0.250 N 
HETATM    4  H8  UNL     1      24.009   1.934  49.722  1.00  0.00     0.181 HD
ENDROOT
BRANCH   3   5
HETATM    5  S1  UNL     1      22.042   2.320  51.305  1.00  0.00     0.268 S 
HETATM    6  O3  UNL     1      21.779   3.694  51.842  1.00  0.00    -0.200 OA
HETATM    7  O4  UNL     1      21.055   2.103  50.181  1.00  0.00    -0.200 OA
BRANCH   5   8
HETATM    8  C8  UNL     1      21.857   1.176  52.580  1.00  0.00     0.118 A 
HETATM    9  C9  UNL     1      22.894   0.320  52.882  1.00  0.00     0.028 A 
HETATM   10  C10 UNL     1      22.766  -0.601  53.897  1.00  0.00     0.002 A 
HETATM   11  C11 UNL     1      21.581  -0.651  54.608  1.00  0.00     0.003 A 
HETATM   12  C12 UNL     1      20.519   0.210  54.313  1.00  0.00     0.044 A 
HETATM   13  C13 UNL     1      20.689   1.116  53.290  1.00  0.00     0.139 A 
HETATM   14  F1  UNL     1      19.681   1.985  52.958  1.00  0.00    -0.204 F 
ENDBRANCH   5   8
ENDBRANCH   3   5
BRANCH   1  15
HETATM   15  C6  UNL     1      26.047   2.908  51.132  1.00  0.00     0.142 C 
BRANCH  15  16
HETATM   16  C5  UNL     1      26.829   1.940  51.937  1.00  0.00    -0.049 A 
HETATM   17  C4  UNL     1      26.469   0.598  51.764  1.00  0.00     0.010 A 
HETATM   18  C3  UNL     1      27.102  -0.424  52.443  1.00  0.00     0.037 A 
HETATM   19  C2  UNL     1      28.120  -0.156  53.322  1.00  0.00     0.068 A 
HETATM   20  C15 UNL     1      28.457   1.151  53.479  1.00  0.00     0.037 A 
HETATM   21  C14 UNL     1      27.853   2.204  52.824  1.00  0.00     0.010 A 
BRANCH  19  22
HETATM   22  O1  UNL     1      28.766  -1.174  54.013  1.00  0.00    -0.356 OA
HETATM   23  C1  UNL     1      30.156  -1.374  53.834  1.00  0.00     0.210 C 
ENDBRANCH  19  22
ENDBRANCH  15  16
ENDBRANCH   1  15
TORSDOF 5
ENDMDL
MODEL 5
REMARK VINA RESULT:      -7.4      2.833      7.151
REMARK  5 active torsions:
REMARK  status: ('A' for Active; 'I' for Inactive)
REMARK    1  A    between atoms: O1_2  and  C2_3 
REMARK    2  A    between atoms: C5_6  and  C6_7 
REMARK    3  A    between atoms: C6_7  and  C7_8 
REMARK       I    between atoms: C7_8  and  N1_10 
REMARK    4  A    between atoms: N1_10  and  S1_11 
REMARK    5  A    between atoms: S1_11  and  C8_14 
ROOT
HETATM    1  C7  UNL     1      24.011   2.608  51.664  1.00  0.00     0.235 C 
HETATM    2  O2  UNL     1      23.336   1.897  50.875  1.00  0.00    -0.272 OA
HETATM    3  N1  UNL     1      24.640   3.828  51.376  1.00  0.00    -0.250 N 
HETATM    4  H8  UNL     1      25.152   4.260  52.175  1.00  0.00     0.181 HD
ENDROOT
BRANCH   3   5
HETATM    5  S1  UNL     1      24.414   4.342  49.731  1.00  0.00     0.268 S 
HETATM    6  O3  UNL     1      24.098   3.140  48.894  1.00  0.00    -0.200 OA
HETATM    7  O4  UNL     1      23.194   5.233  49.679  1.00  0.00    -0.200 OA
BRANCH   5   8
HETATM    8  C8  UNL     1      25.822   5.109  49.101  1.00  0.00     0.118 A 
HETATM    9  C9  UNL     1      25.744   6.409  48.649  1.00  0.00     0.028 A 
HETATM   10  C10 UNL     1      26.858   7.040  48.141  1.00  0.00     0.002 A 
HETATM   11  C11 UNL     1      28.054   6.347  48.095  1.00  0.00     0.003 A 
HETATM   12  C12 UNL     1      28.149   5.028  48.550  1.00  0.00     0.044 A 
HETATM   13  C13 UNL     1      27.011   4.435  49.050  1.00  0.00     0.139 A 
HETATM   14  F1  UNL     1      27.047   3.144  49.510  1.00  0.00    -0.204 F 
ENDBRANCH   5   8
ENDBRANCH   3   5
BRANCH   1  15
HETATM   15  C6  UNL     1      24.066   1.972  52.999  1.00  0.00     0.142 C 
BRANCH  15  16
HETATM   16  C5  UNL     1      25.292   1.150  53.126  1.00  0.00    -0.049 A 
HETATM   17  C4  UNL     1      25.736   0.947  54.438  1.00  0.00     0.010 A 
HETATM   18  C3  UNL     1      26.864   0.203  54.723  1.00  0.00     0.037 A 
HETATM   19  C2  UNL     1      27.598  -0.370  53.717  1.00  0.00     0.068 A 
HETATM   20  C15 UNL     1      27.154  -0.163  52.449  1.00  0.00     0.037 A 
HETATM   21  C14 UNL     1      26.035   0.571  52.117  1.00  0.00     0.010 A 
BRANCH  19  22
HETATM   22  O1  UNL     1      28.736  -1.120  53.988  1.00  0.00    -0.356 OA
HETATM   23  C1  UNL     1      29.985  -0.726  53.450  1.00  0.00     0.210 C 
ENDBRANCH  19  22
ENDBRANCH  15  16
ENDBRANCH   1  15
TORSDOF 5
ENDMDL
MODEL 6
REMARK VINA RESULT:      -7.4      2.980      4.305
REMARK  5 active torsions:
REMARK  status: ('A' for Active; 'I' for Inactive)
REMARK    1  A    between atoms: O1_2  and  C2_3 
REMARK    2  A    between atoms: C5_6  and  C6_7 
REMARK    3  A    between atoms: C6_7  and  C7_8 
REMARK       I    between atoms: C7_8  and  N1_10 
REMARK    4  A    between atoms: N1_10  and  S1_11 
REMARK    5  A    between atoms: S1_11  and  C8_14 
ROOT
HETATM    1  C7  UNL     1      26.142   2.378  51.738  1.00  0.00     0.235 C 
HETATM    2  O2  UNL     1      27.354   2.589  51.471  1.00  0.00    -0.272 OA
HETATM    3  N1  UNL     1      25.621   1.783  52.896  1.00  0.00    -0.250 N 
HETATM    4  H8  UNL     1      24.582   1.701  52.920  1.00  0.00     0.181 HD
ENDROOT
BRANCH   3   5
HETATM    5  S1  UNL     1      26.848   1.315  54.035  1.00  0.00     0.268 S 
HETATM    6  O3  UNL     1      27.881   2.399  54.097  1.00  0.00    -0.200 OA
HETATM    7  O4  UNL     1      26.217   1.247  55.407  1.00  0.00    -0.200 OA
BRANCH   5   8
HETATM    8  C8  UNL     1      27.612  -0.161  53.582  1.00  0.00     0.118 A 
HETATM    9  C9  UNL     1      28.967  -0.313  53.779  1.00  0.00     0.028 A 
HETATM   10  C10 UNL     1      29.598  -1.485  53.424  1.00  0.00     0.002 A 
HETATM   11  C11 UNL     1      28.846  -2.505  52.869  1.00  0.00     0.003 A 
HETATM   12  C12 UNL     1      27.470  -2.365  52.663  1.00  0.00     0.044 A 
HETATM   13  C13 UNL     1      26.880  -1.177  53.032  1.00  0.00     0.139 A 
HETATM   14  F1  UNL     1      25.534  -0.987  52.854  1.00  0.00    -0.204 F 
ENDBRANCH   5   8
ENDBRANCH   3   5
BRANCH   1  15
HETATM   15  C6  UNL     1      25.288   2.856  50.627  1.00  0.00     0.142 C 
BRANCH  15  16
HETATM   16  C5  UNL     1      23.867   2.877  51.045  1.00  0.00    -0.049 A 
HETATM   17  C4  UNL     1      23.476   4.017  51.757  1.00  0.00     0.010 A 
HETATM   18  C3  UNL     1      22.184   4.187  52.216  1.00  0.00     0.037 A 
HETATM   19  C2  UNL     1      21.228   3.232  51.987  1.00  0.00     0.068 A 
HETATM   20  C15 UNL     1      21.624   2.132  51.295  1.00  0.00     0.037 A 
HETATM   21  C14 UNL     1      22.900   1.919  50.818  1.00  0.00     0.010 A 
BRANCH  19  22
HETATM   22  O1  UNL     1      19.925   3.389  52.443  1.00  0.00    -0.356 OA
HETATM   23  C1  UNL     1      18.852   2.818  51.719  1.00  0.00     0.210 C 
ENDBRANCH  19  22
ENDBRANCH  15  16
ENDBRANCH   1  15
TORSDOF 5
ENDMDL
MODEL 7
REMARK VINA RESULT:      -7.4      3.070      3.845
REMARK  5 active torsions:
REMARK  status: ('A' for Active; 'I' for Inactive)
REMARK    1  A    between atoms: O1_2  and  C2_3 
REMARK    2  A    between atoms: C5_6  and  C6_7 
REMARK    3  A    between atoms: C6_7  and  C7_8 
REMARK       I    between atoms: C7_8  and  N1_10 
REMARK    4  A    between atoms: N1_10  and  S1_11 
REMARK    5  A    between atoms: S1_11  and  C8_14 
ROOT
HETATM    1  C7  UNL     1      26.213   2.594  50.781  1.00  0.00     0.235 C 
HETATM    2  O2  UNL     1      27.216   2.738  51.528  1.00  0.00    -0.272 OA
HETATM    3  N1  UNL     1      24.942   2.132  51.152  1.00  0.00    -0.250 N 
HETATM    4  H8  UNL     1      24.246   2.087  50.376  1.00  0.00     0.181 HD
ENDROOT
BRANCH   3   5
HETATM    5  S1  UNL     1      24.822   1.741  52.840  1.00  0.00     0.268 S 
HETATM    6  O3  UNL     1      26.015   0.920  53.227  1.00  0.00    -0.200 OA
HETATM    7  O4  UNL     1      24.912   3.025  53.631  1.00  0.00    -0.200 OA
BRANCH   5   8
HETATM    8  C8  UNL     1      23.391   0.846  53.189  1.00  0.00     0.118 A 
HETATM    9  C9  UNL     1      23.494  -0.420  53.724  1.00  0.00     0.028 A 
HETATM   10  C10 UNL     1      22.363  -1.151  54.010  1.00  0.00     0.002 A 
HETATM   11  C11 UNL     1      21.124  -0.593  53.753  1.00  0.00     0.003 A 
HETATM   12  C12 UNL     1      21.004   0.690  53.211  1.00  0.00     0.044 A 
HETATM   13  C13 UNL     1      22.160   1.388  52.939  1.00  0.00     0.139 A 
HETATM   14  F1  UNL     1      22.100   2.650  52.408  1.00  0.00    -0.204 F 
ENDBRANCH   5   8
ENDBRANCH   3   5
BRANCH   1  15
HETATM   15  C6  UNL     1      26.552   2.987  49.395  1.00  0.00     0.142 C 
BRANCH  15  16
HETATM   16  C5  UNL     1      26.618   4.463  49.283  1.00  0.00    -0.049 A 
HETATM   17  C4  UNL     1      27.739   4.956  48.604  1.00  0.00     0.010 A 
HETATM   18  C3  UNL     1      27.945   6.309  48.416  1.00  0.00     0.037 A 
HETATM   19  C2  UNL     1      27.048   7.228  48.894  1.00  0.00     0.068 A 
HETATM   20  C15 UNL     1      25.966   6.733  49.551  1.00  0.00     0.037 A 
HETATM   21  C14 UNL     1      25.718   5.393  49.763  1.00  0.00     0.010 A 
BRANCH  19  22
HETATM   22  O1  UNL     1      27.242   8.591  48.713  1.00  0.00    -0.356 OA
HETATM   23  C1  UNL     1      28.354   9.230  49.312  1.00  0.00     0.210 C 
ENDBRANCH  19  22
ENDBRANCH  15  16
ENDBRANCH   1  15
TORSDOF 5
ENDMDL
MODEL 8
REMARK VINA RESULT:      -7.3      3.381      7.298
REMARK  5 active torsions:
REMARK  status: ('A' for Active; 'I' for Inactive)
REMARK    1  A    between atoms: O1_2  and  C2_3 
REMARK    2  A    between atoms: C5_6  and  C6_7 
REMARK    3  A    between atoms: C6_7  and  C7_8 
REMARK       I    between atoms: C7_8  and  N1_10 
REMARK    4  A    between atoms: N1_10  and  S1_11 
REMARK    5  A    between atoms: S1_11  and  C8_14 
ROOT
HETATM    1  C7  UNL     1      23.490   2.819  51.835  1.00  0.00     0.235 C 
HETATM    2  O2  UNL     1      22.604   3.562  52.334  1.00  0.00    -0.272 OA
HETATM    3  N1  UNL     1      24.443   3.172  50.868  1.00  0.00    -0.250 N 
HETATM    4  H8  UNL     1      25.092   2.404  50.588  1.00  0.00     0.181 HD
ENDROOT
BRANCH   3   5
HETATM    5  S1  UNL     1      24.319   4.828  50.358  1.00  0.00     0.268 S 
HETATM    6  O3  UNL     1      23.141   4.959  49.441  1.00  0.00    -0.200 OA
HETATM    7  O4  UNL     1      24.014   5.675  51.572  1.00  0.00    -0.200 OA
BRANCH   5   8
HETATM    8  C8  UNL     1      25.735   5.349  49.526  1.00  0.00     0.118 A 
HETATM    9  C9  UNL     1      26.731   4.439  49.242  1.00  0.00     0.028 A 
HETATM   10  C10 UNL     1      27.871   4.834  48.579  1.00  0.00     0.002 A 
HETATM   11  C11 UNL     1      27.997   6.159  48.201  1.00  0.00     0.003 A 
HETATM   12  C12 UNL     1      26.996   7.094  48.482  1.00  0.00     0.044 A 
HETATM   13  C13 UNL     1      25.873   6.656  49.148  1.00  0.00     0.139 A 
HETATM   14  F1  UNL     1      24.860   7.530  49.448  1.00  0.00    -0.204 F 
ENDBRANCH   5   8
ENDBRANCH   3   5
BRANCH   1  15
HETATM   15  C6  UNL     1      23.403   1.462  52.418  1.00  0.00     0.142 C 
BRANCH  15  16
HETATM   16  C5  UNL     1      24.691   1.089  53.046  1.00  0.00    -0.049 A 
HETATM   17  C4  UNL     1      24.991  -0.278  53.018  1.00  0.00     0.010 A 
HETATM   18  C3  UNL     1      26.155  -0.785  53.561  1.00  0.00     0.037 A 
HETATM   19  C2  UNL     1      27.069   0.044  54.156  1.00  0.00     0.068 A 
HETATM   20  C15 UNL     1      26.764   1.369  54.176  1.00  0.00     0.037 A 
HETATM   21  C14 UNL     1      25.616   1.920  53.647  1.00  0.00     0.010 A 
BRANCH  19  22
HETATM   22  O1  UNL     1      28.244  -0.451  54.708  1.00  0.00    -0.356 OA
HETATM   23  C1  UNL     1      29.391  -0.616  53.894  1.00  0.00     0.210 C 
ENDBRANCH  19  22
ENDBRANCH  15  16
ENDBRANCH   1  15
TORSDOF 5
ENDMDL
MODEL 9
REMARK VINA RESULT:      -7.2      3.682      7.263
REMARK  5 active torsions:
REMARK  status: ('A' for Active; 'I' for Inactive)
REMARK    1  A    between atoms: O1_2  and  C2_3 
REMARK    2  A    between atoms: C5_6  and  C6_7 
REMARK    3  A    between atoms: C6_7  and  C7_8 
REMARK       I    between atoms: C7_8  and  N1_10 
REMARK    4  A    between atoms: N1_10  and  S1_11 
REMARK    5  A    between atoms: S1_11  and  C8_14 
ROOT
HETATM    1  C7  UNL     1      22.962   2.419  51.677  1.00  0.00     0.235 C 
HETATM    2  O2  UNL     1      23.232   3.432  52.374  1.00  0.00    -0.272 OA
HETATM    3  N1  UNL     1      22.752   2.377  50.291  1.00  0.00    -0.250 N 
HETATM    4  H8  UNL     1      22.540   1.431  49.907  1.00  0.00     0.181 HD
ENDROOT
BRANCH   3   5
HETATM    5  S1  UNL     1      22.897   3.932  49.530  1.00  0.00     0.268 S 
HETATM    6  O3  UNL     1      22.197   3.883  48.205  1.00  0.00    -0.200 OA
HETATM    7  O4  UNL     1      22.150   4.941  50.371  1.00  0.00    -0.200 OA
BRANCH   5   8
HETATM    8  C8  UNL     1      24.544   4.369  49.277  1.00  0.00     0.118 A 
HETATM    9  C9  UNL     1      25.539   3.454  49.545  1.00  0.00     0.028 A 
HETATM   10  C10 UNL     1      26.862   3.783  49.350  1.00  0.00     0.002 A 
HETATM   11  C11 UNL     1      27.173   5.047  48.880  1.00  0.00     0.003 A 
HETATM   12  C12 UNL     1      26.174   5.986  48.604  1.00  0.00     0.044 A 
HETATM   13  C13 UNL     1      24.865   5.615  48.813  1.00  0.00     0.139 A 
HETATM   14  F1  UNL     1      23.845   6.496  48.558  1.00  0.00    -0.204 F 
ENDBRANCH   5   8
ENDBRANCH   3   5
BRANCH   1  15
HETATM   15  C6  UNL     1      22.890   1.217  52.538  1.00  0.00     0.142 C 
BRANCH  15  16
HETATM   16  C5  UNL     1      24.242   0.645  52.734  1.00  0.00    -0.049 A 
HETATM   17  C4  UNL     1      24.344  -0.292  53.770  1.00  0.00     0.010 A 
HETATM   18  C3  UNL     1      25.537  -0.916  54.079  1.00  0.00     0.037 A 
HETATM   19  C2  UNL     1      26.678  -0.635  53.374  1.00  0.00     0.068 A 
HETATM   20  C15 UNL     1      26.562   0.277  52.372  1.00  0.00     0.037 A 
HETATM   21  C14 UNL     1      25.395   0.924  52.028  1.00  0.00     0.010 A 
BRANCH  19  22
HETATM   22  O1  UNL     1      27.885  -1.253  53.673  1.00  0.00    -0.356 OA
HETATM   23  C1  UNL     1      29.105  -0.589  53.400  1.00  0.00     0.210 C 
ENDBRANCH  19  22
ENDBRANCH  15  16
ENDBRANCH   1  15
TORSDOF 5
ENDMDL
