MODEL 1
REMARK VINA RESULT:      -8.3      0.000      0.000
REMARK  1 active torsions:
REMARK  status: ('A' for Active; 'I' for Inactive)
REMARK    1  A    between atoms: C7_10  and  O3_11 
ROOT
HETATM    1  C1  UNL     1      22.101   0.655  52.296  1.00  0.00     0.159 C 
HETATM    2  N1  UNL     1      23.501   0.896  52.347  1.00  0.00    -0.317 N 
HETATM    3  C2  UNL     1      24.198   1.669  51.459  1.00  0.00     0.046 A 
HETATM    4  C3  UNL     1      25.540   1.864  51.565  1.00  0.00     0.026 A 
HETATM    5  C4  UNL     1      26.272   1.282  52.586  1.00  0.00     0.110 A 
HETATM    6  O1  UNL     1      27.578   1.478  52.677  1.00  0.00    -0.273 OA
HETATM    7  C5  UNL     1      28.258   0.930  53.636  1.00  0.00     0.290 A 
HETATM    8  O2  UNL     1      29.492   1.115  53.724  1.00  0.00    -0.260 OA
HETATM    9  C6  UNL     1      27.682   0.127  54.600  1.00  0.00     0.120 A 
HETATM   10  C7  UNL     1      26.324  -0.100  54.537  1.00  0.00     0.090 A 
HETATM   11  C8  UNL     1      25.639   0.496  53.509  1.00  0.00     0.100 A 
HETATM   12  C9  UNL     1      24.299   0.359  53.327  1.00  0.00     0.263 A 
HETATM   13  O4  UNL     1      23.734  -0.372  54.193  1.00  0.00    -0.267 OA
HETATM   14  C10 UNL     1      26.435   2.558  50.888  1.00  0.00     0.017 C 
HETATM   15  C11 UNL     1      26.565   3.447  49.749  1.00  0.00     0.014 C 
HETATM   16  C12 UNL     1      25.771   4.483  49.536  1.00  0.00    -0.015 C 
HETATM   17  P1  UNL     1      24.148   4.371  49.512  1.00  0.00    -0.045 P 
HETATM   18  C13 UNL     1      23.058   2.870  49.394  1.00  0.00     0.073 C 
HETATM   19  C14 UNL     1      23.285   2.069  50.607  1.00  0.00     0.009 C 
ENDROOT
BRANCH  10  20
HETATM   20  O3  UNL     1      25.618  -0.894  55.453  1.00  0.00    -0.359 OA
HETATM   21  H5  UNL     1      25.161  -0.429  56.228  1.00  0.00     0.217 HD
ENDBRANCH  10  20
TORSDOF 1
ENDMDL
MODEL 2
REMARK VINA RESULT:      -8.2      2.127      3.203
REMARK  1 active torsions:
REMARK  status: ('A' for Active; 'I' for Inactive)
REMARK    1  A    between atoms: C7_10  and  O3_11 
ROOT
HETATM    1  C1  UNL     1      22.509  -1.637  55.002  1.00  0.00     0.159 C 
HETATM    2  N1  UNL     1      23.243  -0.730  54.192  1.00  0.00    -0.317 N 
HETATM    3  C2  UNL     1      22.708   0.056  53.207  1.00  0.00     0.046 A 
HETATM    4  C3  UNL     1      23.465   0.909  52.467  1.00  0.00     0.026 A 
HETATM    5  C4  UNL     1      24.830   1.022  52.675  1.00  0.00     0.110 A 
HETATM    6  O1  UNL     1      25.556   1.854  51.946  1.00  0.00    -0.273 OA
HETATM    7  C5  UNL     1      26.834   1.956  52.145  1.00  0.00     0.290 A 
HETATM    8  O2  UNL     1      27.522   2.743  51.458  1.00  0.00    -0.260 OA
HETATM    9  C6  UNL     1      27.504   1.223  53.104  1.00  0.00     0.120 A 
HETATM   10  C7  UNL     1      26.780   0.345  53.882  1.00  0.00     0.090 A 
HETATM   11  C8  UNL     1      25.432   0.265  53.642  1.00  0.00     0.100 A 
HETATM   12  C9  UNL     1      24.598  -0.556  54.333  1.00  0.00     0.263 A 
HETATM   13  O4  UNL     1      25.177  -1.246  55.223  1.00  0.00    -0.267 OA
HETATM   14  C10 UNL     1      23.218   1.776  51.503  1.00  0.00     0.017 C 
HETATM   15  C11 UNL     1      22.131   2.319  50.711  1.00  0.00     0.014 C 
HETATM   16  C12 UNL     1      20.989   2.743  51.228  1.00  0.00    -0.015 C 
HETATM   17  P1  UNL     1      20.073   1.839  52.222  1.00  0.00    -0.045 P 
HETATM   18  C13 UNL     1      20.137   0.015  52.576  1.00  0.00     0.073 C 
HETATM   19  C14 UNL     1      21.435  -0.260  53.212  1.00  0.00     0.009 C 
ENDROOT
BRANCH  10  20
HETATM   20  O3  UNL     1      27.338  -0.456  54.889  1.00  0.00    -0.359 OA
HETATM   21  H5  UNL     1      27.606  -0.007  55.756  1.00  0.00     0.217 HD
ENDBRANCH  10  20
TORSDOF 1
ENDMDL
MODEL 3
REMARK VINA RESULT:      -8.1      2.392      4.352
REMARK  1 active torsions:
REMARK  status: ('A' for Active; 'I' for Inactive)
REMARK    1  A    between atoms: C7_10  and  O3_11 
ROOT
HETATM    1  C1  UNL     1      22.585   3.345  51.341  1.00  0.00     0.159 C 
HETATM    2  N1  UNL     1      23.427   2.447  52.050  1.00  0.00    -0.317 N 
HETATM    3  C2  UNL     1      22.991   1.444  52.874  1.00  0.00     0.046 A 
HETATM    4  C3  UNL     1      23.850   0.614  53.523  1.00  0.00     0.026 A 
HETATM    5  C4  UNL     1      25.221   0.745  53.382  1.00  0.00     0.110 A 
HETATM    6  O1  UNL     1      26.047  -0.068  54.021  1.00  0.00    -0.273 OA
HETATM    7  C5  UNL     1      27.330   0.060  53.884  1.00  0.00     0.290 A 
HETATM    8  O2  UNL     1      28.112  -0.709  54.486  1.00  0.00    -0.260 OA
HETATM    9  C6  UNL     1      27.906   1.027  53.085  1.00  0.00     0.120 A 
HETATM   10  C7  UNL     1      27.078   1.893  52.404  1.00  0.00     0.090 A 
HETATM   11  C8  UNL     1      25.727   1.727  52.574  1.00  0.00     0.100 A 
HETATM   12  C9  UNL     1      24.797   2.507  51.964  1.00  0.00     0.263 A 
HETATM   13  O4  UNL     1      25.288   3.407  51.221  1.00  0.00    -0.267 OA
HETATM   14  C10 UNL     1      23.712  -0.420  54.332  1.00  0.00     0.017 C 
HETATM   15  C11 UNL     1      22.700  -1.240  54.970  1.00  0.00     0.014 C 
HETATM   16  C12 UNL     1      21.660  -1.749  54.330  1.00  0.00    -0.015 C 
HETATM   17  P1  UNL     1      20.645  -0.854  53.429  1.00  0.00    -0.045 P 
HETATM   18  C13 UNL     1      20.428   0.992  53.353  1.00  0.00     0.073 C 
HETATM   19  C14 UNL     1      21.685   1.558  52.842  1.00  0.00     0.009 C 
ENDROOT
BRANCH  10  20
HETATM   20  O3  UNL     1      27.535   2.917  51.562  1.00  0.00    -0.359 OA
HETATM   21  H5  UNL     1      27.946   2.651  50.675  1.00  0.00     0.217 HD
ENDBRANCH  10  20
TORSDOF 1
ENDMDL
MODEL 4
REMARK VINA RESULT:      -8.0      1.418      3.688
REMARK  1 active torsions:
REMARK  status: ('A' for Active; 'I' for Inactive)
REMARK    1  A    between atoms: C7_10  and  O3_11 
ROOT
HETATM    1  C1  UNL     1      26.118   3.528  50.105  1.00  0.00     0.159 C 
HETATM    2  N1  UNL     1      25.706   2.620  51.117  1.00  0.00    -0.317 N 
HETATM    3  C2  UNL     1      24.429   2.158  51.286  1.00  0.00     0.046 A 
HETATM    4  C3  UNL     1      24.098   1.285  52.274  1.00  0.00     0.026 A 
HETATM    5  C4  UNL     1      25.048   0.818  53.167  1.00  0.00     0.110 A 
HETATM    6  O1  UNL     1      24.713  -0.031  54.126  1.00  0.00    -0.273 OA
HETATM    7  C5  UNL     1      25.607  -0.465  54.959  1.00  0.00     0.290 A 
HETATM    8  O2  UNL     1      25.292  -1.267  55.866  1.00  0.00    -0.260 OA
HETATM    9  C6  UNL     1      26.932  -0.082  54.904  1.00  0.00     0.120 A 
HETATM   10  C7  UNL     1      27.318   0.802  53.919  1.00  0.00     0.090 A 
HETATM   11  C8  UNL     1      26.345   1.238  53.057  1.00  0.00     0.100 A 
HETATM   12  C9  UNL     1      26.583   2.108  52.040  1.00  0.00     0.263 A 
HETATM   13  O4  UNL     1      27.791   2.483  51.958  1.00  0.00    -0.267 OA
HETATM   14  C10 UNL     1      22.988   0.674  52.643  1.00  0.00     0.017 C 
HETATM   15  C11 UNL     1      21.587   0.543  52.288  1.00  0.00     0.014 C 
HETATM   16  C12 UNL     1      21.162   0.323  51.056  1.00  0.00    -0.015 C 
HETATM   17  P1  UNL     1      21.600   1.241  49.786  1.00  0.00    -0.045 P 
HETATM   18  C13 UNL     1      22.412   2.913  49.746  1.00  0.00     0.073 C 
HETATM   19  C14 UNL     1      23.749   2.763  50.341  1.00  0.00     0.009 C 
ENDROOT
BRANCH  10  20
HETATM   20  O3  UNL     1      28.630   1.269  53.754  1.00  0.00    -0.359 OA
HETATM   21  H5  UNL     1      29.384   0.595  53.822  1.00  0.00     0.217 HD
ENDBRANCH  10  20
TORSDOF 1
ENDMDL
MODEL 5
REMARK VINA RESULT:      -7.9      1.576      2.125
REMARK  1 active torsions:
REMARK  status: ('A' for Active; 'I' for Inactive)
REMARK    1  A    between atoms: C7_10  and  O3_11 
ROOT
HETATM    1  C1  UNL     1      20.536   0.252  51.732  1.00  0.00     0.159 C 
HETATM    2  N1  UNL     1      21.872   0.322  52.210  1.00  0.00    -0.317 N 
HETATM    3  C2  UNL     1      22.877   1.049  51.631  1.00  0.00     0.046 A 
HETATM    4  C3  UNL     1      24.137   1.078  52.140  1.00  0.00     0.026 A 
HETATM    5  C4  UNL     1      24.468   0.363  53.279  1.00  0.00     0.110 A 
HETATM    6  O1  UNL     1      25.699   0.398  53.764  1.00  0.00    -0.273 OA
HETATM    7  C5  UNL     1      26.003  -0.274  54.831  1.00  0.00     0.290 A 
HETATM    8  O2  UNL     1      27.166  -0.242  55.291  1.00  0.00    -0.260 OA
HETATM    9  C6  UNL     1      25.088  -1.049  55.515  1.00  0.00     0.120 A 
HETATM   10  C7  UNL     1      23.796  -1.110  55.039  1.00  0.00     0.090 A 
HETATM   11  C8  UNL     1      23.513  -0.387  53.909  1.00  0.00     0.100 A 
HETATM   12  C9  UNL     1      22.283  -0.354  53.332  1.00  0.00     0.263 A 
HETATM   13  O4  UNL     1      21.415  -1.054  53.932  1.00  0.00    -0.267 OA
HETATM   14  C10 UNL     1      25.259   1.693  51.814  1.00  0.00     0.017 C 
HETATM   15  C11 UNL     1      25.811   2.615  50.841  1.00  0.00     0.014 C 
HETATM   16  C12 UNL     1      25.224   3.748  50.491  1.00  0.00    -0.015 C 
HETATM   17  P1  UNL     1      23.681   3.831  49.984  1.00  0.00    -0.045 P 
HETATM   18  C13 UNL     1      22.533   2.478  49.429  1.00  0.00     0.073 C 
HETATM   19  C14 UNL     1      22.305   1.597  50.585  1.00  0.00     0.009 C 
ENDROOT
BRANCH  10  20
HETATM   20  O3  UNL     1      22.773  -1.859  55.639  1.00  0.00    -0.359 OA
HETATM   21  H5  UNL     1      23.038  -2.671  56.184  1.00  0.00     0.217 HD
ENDBRANCH  10  20
TORSDOF 1
ENDMDL
MODEL 6
REMARK VINA RESULT:      -7.8      2.757      5.139
REMARK  1 active torsions:
REMARK  status: ('A' for Active; 'I' for Inactive)
REMARK    1  A    between atoms: C7_10  and  O3_11 
ROOT
HETATM    1  C1  UNL     1      23.740   3.791  50.789  1.00  0.00     0.159 C 
HETATM    2  N1  UNL     1      23.546   2.660  51.626  1.00  0.00    -0.317 N 
HETATM    3  C2  UNL     1      24.549   1.890  52.153  1.00  0.00     0.046 A 
HETATM    4  C3  UNL     1      24.297   0.820  52.952  1.00  0.00     0.026 A 
HETATM    5  C4  UNL     1      23.002   0.452  53.274  1.00  0.00     0.110 A 
HETATM    6  O1  UNL     1      22.770  -0.594  54.052  1.00  0.00    -0.273 OA
HETATM    7  C5  UNL     1      21.555  -0.933  54.349  1.00  0.00     0.290 A 
HETATM    8  O2  UNL     1      21.334  -1.921  55.085  1.00  0.00    -0.260 OA
HETATM    9  C6  UNL     1      20.450  -0.247  53.887  1.00  0.00     0.120 A 
HETATM   10  C7  UNL     1      20.652   0.848  53.074  1.00  0.00     0.090 A 
HETATM   11  C8  UNL     1      21.951   1.176  52.782  1.00  0.00     0.100 A 
HETATM   12  C9  UNL     1      22.296   2.228  51.994  1.00  0.00     0.263 A 
HETATM   13  O4  UNL     1      21.307   2.884  51.551  1.00  0.00    -0.267 OA
HETATM   14  C10 UNL     1      25.045  -0.055  53.599  1.00  0.00     0.017 C 
HETATM   15  C11 UNL     1      26.431  -0.403  53.851  1.00  0.00     0.014 C 
HETATM   16  C12 UNL     1      27.352   0.476  54.210  1.00  0.00    -0.015 C 
HETATM   17  P1  UNL     1      27.643   1.847  53.384  1.00  0.00    -0.045 P 
HETATM   18  C13 UNL     1      27.112   2.346  51.674  1.00  0.00     0.073 C 
HETATM   19  C14 UNL     1      25.644   2.438  51.682  1.00  0.00     0.009 C 
ENDROOT
BRANCH  10  20
HETATM   20  O3  UNL     1      19.617   1.630  52.539  1.00  0.00    -0.359 OA
HETATM   21  H5  UNL     1      19.813   2.161  51.699  1.00  0.00     0.217 HD
ENDBRANCH  10  20
TORSDOF 1
ENDMDL
MODEL 7
REMARK VINA RESULT:      -7.2      3.436      6.244
REMARK  1 active torsions:
REMARK  status: ('A' for Active; 'I' for Inactive)
REMARK    1  A    between atoms: C7_10  and  O3_11 
ROOT
HETATM    1  C1  UNL     1      26.682   3.091  50.673  1.00  0.00     0.159 C 
HETATM    2  N1  UNL     1      25.340   2.904  51.102  1.00  0.00    -0.317 N 
HETATM    3  C2  UNL     1      24.875   1.807  51.775  1.00  0.00     0.046 A 
HETATM    4  C3  UNL     1      23.577   1.690  52.161  1.00  0.00     0.026 A 
HETATM    5  C4  UNL     1      22.653   2.685  51.887  1.00  0.00     0.110 A 
HETATM    6  O1  UNL     1      21.392   2.557  52.267  1.00  0.00    -0.273 OA
HETATM    7  C5  UNL     1      20.531   3.493  52.008  1.00  0.00     0.290 A 
HETATM    8  O2  UNL     1      19.339   3.375  52.366  1.00  0.00    -0.260 OA
HETATM    9  C6  UNL     1      20.864   4.652  51.336  1.00  0.00     0.120 A 
HETATM   10  C7  UNL     1      22.168   4.819  50.924  1.00  0.00     0.090 A 
HETATM   11  C8  UNL     1      23.049   3.809  51.216  1.00  0.00     0.100 A 
HETATM   12  C9  UNL     1      24.363   3.841  50.872  1.00  0.00     0.263 A 
HETATM   13  O4  UNL     1      24.706   4.891  50.253  1.00  0.00    -0.267 OA
HETATM   14  C10 UNL     1      22.882   0.785  52.824  1.00  0.00     0.017 C 
HETATM   15  C11 UNL     1      23.021  -0.497  53.488  1.00  0.00     0.014 C 
HETATM   16  C12 UNL     1      23.984  -0.774  54.350  1.00  0.00    -0.015 C 
HETATM   17  P1  UNL     1      25.562  -0.552  54.023  1.00  0.00    -0.045 P 
HETATM   18  C13 UNL     1      26.413  -0.256  52.397  1.00  0.00     0.073 C 
HETATM   19  C14 UNL     1      25.929   1.034  51.880  1.00  0.00     0.009 C 
ENDROOT
BRANCH  10  20
HETATM   20  O3  UNL     1      22.635   5.948  50.234  1.00  0.00    -0.359 OA
HETATM   21  H5  UNL     1      22.869   5.839  49.254  1.00  0.00     0.217 HD
ENDBRANCH  10  20
TORSDOF 1
ENDMDL
MODEL 8
REMARK VINA RESULT:      -6.9      1.436      2.040
REMARK  1 active torsions:
REMARK  status: ('A' for Active; 'I' for Inactive)
REMARK    1  A    between atoms: C7_10  and  O3_11 
ROOT
HETATM    1  C1  UNL     1      21.181   1.129  50.028  1.00  0.00     0.159 C 
HETATM    2  N1  UNL     1      22.436   1.530  50.560  1.00  0.00    -0.317 N 
HETATM    3  C2  UNL     1      23.235   2.511  50.036  1.00  0.00     0.046 A 
HETATM    4  C3  UNL     1      24.426   2.852  50.595  1.00  0.00     0.026 A 
HETATM    5  C4  UNL     1      24.894   2.215  51.732  1.00  0.00     0.110 A 
HETATM    6  O1  UNL     1      26.057   2.555  52.266  1.00  0.00    -0.273 OA
HETATM    7  C5  UNL     1      26.490   1.955  53.331  1.00  0.00     0.290 A 
HETATM    8  O2  UNL     1      27.588   2.275  53.837  1.00  0.00    -0.260 OA
HETATM    9  C6  UNL     1      25.787   0.949  53.963  1.00  0.00     0.120 A 
HETATM   10  C7  UNL     1      24.572   0.568  53.435  1.00  0.00     0.090 A 
HETATM   11  C8  UNL     1      24.148   1.225  52.309  1.00  0.00     0.100 A 
HETATM   12  C9  UNL     1      22.972   0.953  51.684  1.00  0.00     0.263 A 
HETATM   13  O4  UNL     1      22.298   0.033  52.236  1.00  0.00    -0.267 OA
HETATM   14  C10 UNL     1      25.358   3.747  50.326  1.00  0.00     0.017 C 
HETATM   15  C11 UNL     1      25.682   4.809  49.393  1.00  0.00     0.014 C 
HETATM   16  C12 UNL     1      24.831   5.759  49.042  1.00  0.00    -0.015 C 
HETATM   17  P1  UNL     1      23.338   5.452  48.476  1.00  0.00    -0.045 P 
HETATM   18  C13 UNL     1      22.602   3.864  47.850  1.00  0.00     0.073 C 
HETATM   19  C14 UNL     1      22.575   2.921  48.979  1.00  0.00     0.009 C 
ENDROOT
BRANCH  10  20
HETATM   20  O3  UNL     1      23.761  -0.439  53.980  1.00  0.00    -0.359 OA
HETATM   21  H5  UNL     1      23.146  -0.188  54.745  1.00  0.00     0.217 HD
ENDBRANCH  10  20
TORSDOF 1
ENDMDL
MODEL 9
REMARK VINA RESULT:      -6.8      7.163      9.551
REMARK  1 active torsions:
REMARK  status: ('A' for Active; 'I' for Inactive)
REMARK    1  A    between atoms: C7_10  and  O3_11 
ROOT
HETATM    1  C1  UNL     1      31.427   9.873  48.571  1.00  0.00     0.159 C 
HETATM    2  N1  UNL     1      31.254   8.489  48.299  1.00  0.00    -0.317 N 
HETATM    3  C2  UNL     1      30.101   7.784  48.513  1.00  0.00     0.046 A 
HETATM    4  C3  UNL     1      29.998   6.459  48.228  1.00  0.00     0.026 A 
HETATM    5  C4  UNL     1      31.067   5.751  47.704  1.00  0.00     0.110 A 
HETATM    6  O1  UNL     1      30.955   4.461  47.432  1.00  0.00    -0.273 OA
HETATM    7  C5  UNL     1      31.959   3.804  46.941  1.00  0.00     0.290 A 
HETATM    8  O2  UNL     1      31.855   2.585  46.683  1.00  0.00    -0.260 OA
HETATM    9  C6  UNL     1      33.181   4.390  46.676  1.00  0.00     0.120 A 
HETATM   10  C7  UNL     1      33.336   5.733  46.946  1.00  0.00     0.090 A 
HETATM   11  C8  UNL     1      32.251   6.393  47.465  1.00  0.00     0.100 A 
HETATM   12  C9  UNL     1      32.262   7.716  47.777  1.00  0.00     0.263 A 
HETATM   13  O4  UNL     1      33.368   8.289  47.547  1.00  0.00    -0.267 OA
HETATM   14  C10 UNL     1      29.033   5.562  48.307  1.00  0.00     0.017 C 
HETATM   15  C11 UNL     1      27.641   5.417  48.690  1.00  0.00     0.014 C 
HETATM   16  C12 UNL     1      26.685   6.243  48.300  1.00  0.00    -0.015 C 
HETATM   17  P1  UNL     1      26.771   7.856  48.488  1.00  0.00    -0.045 P 
HETATM   18  C13 UNL     1      27.918   8.875  49.538  1.00  0.00     0.073 C 
HETATM   19  C14 UNL     1      29.280   8.672  49.021  1.00  0.00     0.009 C 
ENDROOT
BRANCH  10  20
HETATM   20  O3  UNL     1      34.522   6.447  46.723  1.00  0.00    -0.359 OA
HETATM   21  H5  UNL     1      35.399   5.954  46.837  1.00  0.00     0.217 HD
ENDBRANCH  10  20
TORSDOF 1
ENDMDL
