MODEL 1
REMARK VINA RESULT:      -9.1      0.000      0.000
REMARK  8 active torsions:
REMARK  status: ('A' for Active; 'I' for Inactive)
REMARK    1  A    between atoms: N1_1  and  C1_2 
REMARK    2  A    between atoms: C1_2  and  C2_3 
REMARK    3  A    between atoms: C4_6  and  N3_7 
REMARK    4  A    between atoms: N3_7  and  C5_8 
REMARK    5  A    between atoms: C8_11  and  C9_12 
REMARK    6  A    between atoms: C9_12  and  O2_14 
REMARK    7  A    between atoms: C12_18  and  C13_19 
REMARK    8  A    between atoms: C14_20  and  C15_21 
ROOT
HETATM    1  C2  UNL     1      21.893   3.185  52.311  1.00  0.00     0.018 A 
HETATM    2  C3  UNL     1      22.743   4.200  51.950  1.00  0.00     0.147 A 
HETATM    3  N2  UNL     1      24.065   4.023  51.918  1.00  0.00    -0.074 NA
HETATM    4  C4  UNL     1      24.663   2.841  52.238  1.00  0.00     0.727 A 
HETATM    5  N4  UNL     1      23.856   1.832  52.595  1.00  0.00    -0.062 NA
HETATM    6  C12 UNL     1      22.521   1.974  52.638  1.00  0.00     0.095 A 
ENDROOT
BRANCH   4   7
HETATM    7  N3  UNL     1      26.078   2.772  52.153  1.00  0.00    -0.188 N 
HETATM    8  H6  UNL     1      26.591   3.660  51.873  1.00  0.00     0.184 HD
BRANCH   7   9
HETATM    9  C5  UNL     1      26.736   1.548  52.444  1.00  0.00     0.049 A 
HETATM   10  C6  UNL     1      26.362   0.281  52.020  1.00  0.00     0.031 A 
HETATM   11  C7  UNL     1      27.104  -0.838  52.334  1.00  0.00     0.020 A 
HETATM   12  C8  UNL     1      28.259  -0.764  53.084  1.00  0.00     0.037 A 
HETATM   13  C10 UNL     1      28.658   0.503  53.524  1.00  0.00     0.020 A 
HETATM   14  C11 UNL     1      27.910   1.622  53.207  1.00  0.00     0.031 A 
BRANCH  12  15
HETATM   15  C9  UNL     1      29.103  -1.894  53.457  1.00  0.00     0.176 C 
HETATM   16  O1  UNL     1      30.289  -1.755  53.854  1.00  0.00    -0.646 OA
BRANCH  15  17
HETATM   17  O2  UNL     1      28.668  -3.217  53.406  1.00  0.00    -0.773 OA
HETATM   18  H9  UNL     1      27.825  -3.543  53.881  1.00  0.00     0.167 HD
ENDBRANCH  15  17
ENDBRANCH  12  15
ENDBRANCH   7   9
ENDBRANCH   4   7
BRANCH   6  19
HETATM   19  C13 UNL     1      21.622   0.896  53.037  1.00  0.00     0.020 A 
HETATM   20  C14 UNL     1      20.514   0.117  53.023  1.00  0.00     0.005 A 
HETATM   21  C21 UNL     1      21.551  -0.211  54.017  1.00  0.00     0.241 A 
HETATM   22  F2  UNL     1      21.233   0.117  55.333  1.00  0.00    -0.239 F 
BRANCH  20  23
HETATM   23  C15 UNL     1      19.205  -0.212  52.462  1.00  0.00     0.013 A 
HETATM   24  C16 UNL     1      18.269  -0.937  53.175  1.00  0.00     0.015 A 
HETATM   25  C17 UNL     1      17.035  -1.267  52.705  1.00  0.00     0.001 A 
HETATM   26  C18 UNL     1      16.654  -0.868  51.440  1.00  0.00     0.003 A 
HETATM   27  C19 UNL     1      17.568  -0.143  50.707  1.00  0.00     0.043 A 
HETATM   28  C20 UNL     1      18.812   0.177  51.206  1.00  0.00     0.127 A 
HETATM   29  F1  UNL     1      19.677   0.895  50.456  1.00  0.00    -0.205 F 
ENDBRANCH  20  23
ENDBRANCH   6  19
BRANCH   1  30
HETATM   30  C1  UNL     1      20.433   3.357  52.332  1.00  0.00     0.309 C 
BRANCH  30  31
HETATM   31  N1  UNL     1      19.883   4.116  51.265  1.00  0.00     0.082 N 
HETATM   32  H1  UNL     1      19.921   3.611  50.351  1.00  0.00     0.313 HD
HETATM   33  H2  UNL     1      20.313   5.050  51.235  1.00  0.00     0.313 HD
ENDBRANCH  30  31
ENDBRANCH   1  30
TORSDOF 8
ENDMDL
MODEL 2
REMARK VINA RESULT:      -9.0      4.112      7.149
REMARK  8 active torsions:
REMARK  status: ('A' for Active; 'I' for Inactive)
REMARK    1  A    between atoms: N1_1  and  C1_2 
REMARK    2  A    between atoms: C1_2  and  C2_3 
REMARK    3  A    between atoms: C4_6  and  N3_7 
REMARK    4  A    between atoms: N3_7  and  C5_8 
REMARK    5  A    between atoms: C8_11  and  C9_12 
REMARK    6  A    between atoms: C9_12  and  O2_14 
REMARK    7  A    between atoms: C12_18  and  C13_19 
REMARK    8  A    between atoms: C14_20  and  C15_21 
ROOT
HETATM    1  C2  UNL     1      23.103   3.197  49.478  1.00  0.00     0.018 A 
HETATM    2  C3  UNL     1      22.587   1.996  49.897  1.00  0.00     0.147 A 
HETATM    3  N2  UNL     1      22.968   1.437  51.047  1.00  0.00    -0.074 NA
HETATM    4  C4  UNL     1      23.885   2.007  51.879  1.00  0.00     0.727 A 
HETATM    5  N4  UNL     1      24.405   3.180  51.495  1.00  0.00    -0.062 NA
HETATM    6  C12 UNL     1      24.045   3.771  50.344  1.00  0.00     0.095 A 
ENDROOT
BRANCH   4   7
HETATM    7  N3  UNL     1      24.198   1.322  53.083  1.00  0.00    -0.188 N 
HETATM    8  H6  UNL     1      23.474   1.351  53.861  1.00  0.00     0.184 HD
BRANCH   7   9
HETATM    9  C5  UNL     1      25.436   0.636  53.193  1.00  0.00     0.049 A 
HETATM   10  C6  UNL     1      26.592   1.099  53.806  1.00  0.00     0.031 A 
HETATM   11  C7  UNL     1      27.730   0.325  53.888  1.00  0.00     0.020 A 
HETATM   12  C8  UNL     1      27.787  -0.952  53.369  1.00  0.00     0.037 A 
HETATM   13  C10 UNL     1      26.634  -1.443  52.746  1.00  0.00     0.020 A 
HETATM   14  C11 UNL     1      25.495  -0.662  52.666  1.00  0.00     0.031 A 
BRANCH  12  15
HETATM   15  C9  UNL     1      28.945  -1.837  53.415  1.00  0.00     0.176 C 
HETATM   16  O1  UNL     1      30.127  -1.409  53.472  1.00  0.00    -0.646 OA
BRANCH  15  17
HETATM   17  O2  UNL     1      28.840  -3.227  53.399  1.00  0.00    -0.773 OA
HETATM   18  H9  UNL     1      29.076  -3.811  54.202  1.00  0.00     0.167 HD
ENDBRANCH  15  17
ENDBRANCH  12  15
ENDBRANCH   7   9
ENDBRANCH   4   7
BRANCH   6  19
HETATM   19  C13 UNL     1      24.608   5.041  49.896  1.00  0.00     0.020 A 
HETATM   20  C14 UNL     1      25.521   5.892  49.370  1.00  0.00     0.005 A 
HETATM   21  C21 UNL     1      24.244   6.474  49.818  1.00  0.00     0.241 A 
HETATM   22  F2  UNL     1      24.314   7.217  50.994  1.00  0.00    -0.239 F 
BRANCH  20  23
HETATM   23  C15 UNL     1      26.836   6.129  48.776  1.00  0.00     0.013 A 
HETATM   24  C16 UNL     1      27.236   7.388  48.375  1.00  0.00     0.015 A 
HETATM   25  C17 UNL     1      28.448   7.668  47.822  1.00  0.00     0.001 A 
HETATM   26  C18 UNL     1      29.367   6.654  47.635  1.00  0.00     0.003 A 
HETATM   27  C19 UNL     1      28.993   5.387  48.027  1.00  0.00     0.043 A 
HETATM   28  C20 UNL     1      27.758   5.132  48.584  1.00  0.00     0.127 A 
HETATM   29  F1  UNL     1      27.434   3.875  48.960  1.00  0.00    -0.205 F 
ENDBRANCH  20  23
ENDBRANCH   6  19
BRANCH   1  30
HETATM   30  C1  UNL     1      22.680   3.836  48.223  1.00  0.00     0.309 C 
BRANCH  30  31
HETATM   31  N1  UNL     1      21.906   3.029  47.347  1.00  0.00     0.082 N 
HETATM   32  H1  UNL     1      21.071   3.530  46.971  1.00  0.00     0.313 HD
HETATM   33  H2  UNL     1      21.677   2.134  47.799  1.00  0.00     0.313 HD
ENDBRANCH  30  31
ENDBRANCH   1  30
TORSDOF 8
ENDMDL
MODEL 3
REMARK VINA RESULT:      -8.9      4.806      9.176
REMARK  8 active torsions:
REMARK  status: ('A' for Active; 'I' for Inactive)
REMARK    1  A    between atoms: N1_1  and  C1_2 
REMARK    2  A    between atoms: C1_2  and  C2_3 
REMARK    3  A    between atoms: C4_6  and  N3_7 
REMARK    4  A    between atoms: N3_7  and  C5_8 
REMARK    5  A    between atoms: C8_11  and  C9_12 
REMARK    6  A    between atoms: C9_12  and  O2_14 
REMARK    7  A    between atoms: C12_18  and  C13_19 
REMARK    8  A    between atoms: C14_20  and  C15_21 
ROOT
HETATM    1  C2  UNL     1      23.183  -0.599  53.907  1.00  0.00     0.018 A 
HETATM    2  C3  UNL     1      21.901  -1.091  53.892  1.00  0.00     0.147 A 
HETATM    3  N2  UNL     1      21.032  -0.745  52.941  1.00  0.00    -0.074 NA
HETATM    4  C4  UNL     1      21.346   0.112  51.928  1.00  0.00     0.727 A 
HETATM    5  N4  UNL     1      22.590   0.607  51.917  1.00  0.00    -0.062 NA
HETATM    6  C12 UNL     1      23.491   0.279  52.859  1.00  0.00     0.095 A 
ENDROOT
BRANCH   4   7
HETATM    7  N3  UNL     1      20.340   0.393  50.967  1.00  0.00    -0.188 N 
HETATM    8  H6  UNL     1      20.354  -0.175  50.068  1.00  0.00     0.184 HD
BRANCH   7   9
HETATM    9  C5  UNL     1      19.372   1.394  51.242  1.00  0.00     0.049 A 
HETATM   10  C6  UNL     1      19.606   2.751  51.420  1.00  0.00     0.031 A 
HETATM   11  C7  UNL     1      18.578   3.641  51.645  1.00  0.00     0.020 A 
HETATM   12  C8  UNL     1      17.260   3.239  51.705  1.00  0.00     0.037 A 
HETATM   13  C10 UNL     1      16.997   1.876  51.528  1.00  0.00     0.020 A 
HETATM   14  C11 UNL     1      18.032   0.987  51.303  1.00  0.00     0.031 A 
BRANCH  12  15
HETATM   15  C9  UNL     1      16.115   4.112  51.935  1.00  0.00     0.176 C 
HETATM   16  O1  UNL     1      15.302   4.422  51.026  1.00  0.00    -0.646 OA
BRANCH  15  17
HETATM   17  O2  UNL     1      15.826   4.676  53.176  1.00  0.00    -0.773 OA
HETATM   18  H9  UNL     1      15.172   5.450  53.296  1.00  0.00     0.167 HD
ENDBRANCH  15  17
ENDBRANCH  12  15
ENDBRANCH   7   9
ENDBRANCH   4   7
BRANCH   6  19
HETATM   19  C13 UNL     1      24.848   0.817  52.878  1.00  0.00     0.020 A 
HETATM   20  C14 UNL     1      26.200   0.806  52.962  1.00  0.00     0.005 A 
HETATM   21  C21 UNL     1      25.551   2.115  52.770  1.00  0.00     0.241 A 
HETATM   22  F2  UNL     1      25.545   2.942  53.891  1.00  0.00    -0.239 F 
BRANCH  20  23
HETATM   23  C15 UNL     1      27.452   0.071  53.127  1.00  0.00     0.013 A 
HETATM   24  C16 UNL     1      28.614   0.695  53.538  1.00  0.00     0.015 A 
HETATM   25  C17 UNL     1      29.805   0.061  53.713  1.00  0.00     0.001 A 
HETATM   26  C18 UNL     1      29.900  -1.297  53.478  1.00  0.00     0.003 A 
HETATM   27  C19 UNL     1      28.755  -1.945  53.067  1.00  0.00     0.043 A 
HETATM   28  C20 UNL     1      27.562  -1.277  52.897  1.00  0.00     0.127 A 
HETATM   29  F1  UNL     1      26.461  -1.953  52.499  1.00  0.00    -0.205 F 
ENDBRANCH  20  23
ENDBRANCH   6  19
BRANCH   1  30
HETATM   30  C1  UNL     1      24.158  -0.987  54.937  1.00  0.00     0.309 C 
BRANCH  30  31
HETATM   31  N1  UNL     1      23.643  -1.739  56.026  1.00  0.00     0.082 N 
HETATM   32  H1  UNL     1      23.708  -2.769  55.869  1.00  0.00     0.313 HD
HETATM   33  H2  UNL     1      22.694  -1.419  56.261  1.00  0.00     0.313 HD
ENDBRANCH  30  31
ENDBRANCH   1  30
TORSDOF 8
ENDMDL
MODEL 4
REMARK VINA RESULT:      -8.9      2.995      5.840
REMARK  8 active torsions:
REMARK  status: ('A' for Active; 'I' for Inactive)
REMARK    1  A    between atoms: N1_1  and  C1_2 
REMARK    2  A    between atoms: C1_2  and  C2_3 
REMARK    3  A    between atoms: C4_6  and  N3_7 
REMARK    4  A    between atoms: N3_7  and  C5_8 
REMARK    5  A    between atoms: C8_11  and  C9_12 
REMARK    6  A    between atoms: C9_12  and  O2_14 
REMARK    7  A    between atoms: C12_18  and  C13_19 
REMARK    8  A    between atoms: C14_20  and  C15_21 
ROOT
HETATM    1  C2  UNL     1      21.476   2.113  51.873  1.00  0.00     0.018 A 
HETATM    2  C3  UNL     1      21.120   1.480  53.038  1.00  0.00     0.147 A 
HETATM    3  N2  UNL     1      21.928   0.594  53.624  1.00  0.00    -0.074 NA
HETATM    4  C4  UNL     1      23.148   0.256  53.120  1.00  0.00     0.727 A 
HETATM    5  N4  UNL     1      23.521   0.859  51.984  1.00  0.00    -0.062 NA
HETATM    6  C12 UNL     1      22.733   1.755  51.365  1.00  0.00     0.095 A 
ENDROOT
BRANCH   4   7
HETATM    7  N3  UNL     1      23.922  -0.688  53.843  1.00  0.00    -0.188 N 
HETATM    8  H6  UNL     1      23.399  -1.478  54.326  1.00  0.00     0.184 HD
BRANCH   7   9
HETATM    9  C5  UNL     1      25.334  -0.548  53.885  1.00  0.00     0.049 A 
HETATM   10  C6  UNL     1      26.070   0.180  54.810  1.00  0.00     0.031 A 
HETATM   11  C7  UNL     1      27.448   0.214  54.777  1.00  0.00     0.020 A 
HETATM   12  C8  UNL     1      28.175  -0.472  53.826  1.00  0.00     0.037 A 
HETATM   13  C10 UNL     1      27.456  -1.214  52.882  1.00  0.00     0.020 A 
HETATM   14  C11 UNL     1      26.074  -1.245  52.920  1.00  0.00     0.031 A 
BRANCH  12  15
HETATM   15  C9  UNL     1      29.629  -0.494  53.721  1.00  0.00     0.176 C 
HETATM   16  O1  UNL     1      30.306  -1.547  53.854  1.00  0.00    -0.646 OA
BRANCH  15  17
HETATM   17  O2  UNL     1      30.389   0.646  53.466  1.00  0.00    -0.773 OA
HETATM   18  H9  UNL     1      30.198   1.278  52.687  1.00  0.00     0.167 HD
ENDBRANCH  15  17
ENDBRANCH  12  15
ENDBRANCH   7   9
ENDBRANCH   4   7
BRANCH   6  19
HETATM   19  C13 UNL     1      23.111   2.415  50.119  1.00  0.00     0.020 A 
HETATM   20  C14 UNL     1      23.797   3.245  49.298  1.00  0.00     0.005 A 
HETATM   21  C21 UNL     1      22.725   2.437  48.690  1.00  0.00     0.241 A 
HETATM   22  F2  UNL     1      21.574   3.143  48.349  1.00  0.00    -0.239 F 
BRANCH  20  23
HETATM   23  C15 UNL     1      24.844   4.244  49.095  1.00  0.00     0.013 A 
HETATM   24  C16 UNL     1      24.547   5.558  48.788  1.00  0.00     0.015 A 
HETATM   25  C17 UNL     1      25.479   6.530  48.594  1.00  0.00     0.001 A 
HETATM   26  C18 UNL     1      26.821   6.225  48.703  1.00  0.00     0.003 A 
HETATM   27  C19 UNL     1      27.146   4.921  49.008  1.00  0.00     0.043 A 
HETATM   28  C20 UNL     1      26.181   3.955  49.199  1.00  0.00     0.127 A 
HETATM   29  F1  UNL     1      26.543   2.689  49.504  1.00  0.00    -0.205 F 
ENDBRANCH  20  23
ENDBRANCH   6  19
BRANCH   1  30
HETATM   30  C1  UNL     1      20.607   3.105  51.224  1.00  0.00     0.309 C 
BRANCH  30  31
HETATM   31  N1  UNL     1      19.235   2.751  51.115  1.00  0.00     0.082 N 
HETATM   32  H1  UNL     1      18.679   3.037  51.951  1.00  0.00     0.313 HD
HETATM   33  H2  UNL     1      19.144   1.752  50.885  1.00  0.00     0.313 HD
ENDBRANCH  30  31
ENDBRANCH   1  30
TORSDOF 8
ENDMDL
MODEL 5
REMARK VINA RESULT:      -8.8      4.458      6.240
REMARK  8 active torsions:
REMARK  status: ('A' for Active; 'I' for Inactive)
REMARK    1  A    between atoms: N1_1  and  C1_2 
REMARK    2  A    between atoms: C1_2  and  C2_3 
REMARK    3  A    between atoms: C4_6  and  N3_7 
REMARK    4  A    between atoms: N3_7  and  C5_8 
REMARK    5  A    between atoms: C8_11  and  C9_12 
REMARK    6  A    between atoms: C9_12  and  O2_14 
REMARK    7  A    between atoms: C12_18  and  C13_19 
REMARK    8  A    between atoms: C14_20  and  C15_21 
ROOT
HETATM    1  C2  UNL     1      26.223   1.244  52.526  1.00  0.00     0.018 A 
HETATM    2  C3  UNL     1      27.129   2.091  51.938  1.00  0.00     0.147 A 
HETATM    3  N2  UNL     1      26.776   2.908  50.944  1.00  0.00    -0.074 NA
HETATM    4  C4  UNL     1      25.509   2.963  50.445  1.00  0.00     0.727 A 
HETATM    5  N4  UNL     1      24.604   2.147  51.000  1.00  0.00    -0.062 NA
HETATM    6  C12 UNL     1      24.924   1.311  52.002  1.00  0.00     0.095 A 
ENDROOT
BRANCH   4   7
HETATM    7  N3  UNL     1      25.253   3.884  49.396  1.00  0.00    -0.188 N 
HETATM    8  H6  UNL     1      24.697   3.529  48.562  1.00  0.00     0.184 HD
BRANCH   7   9
HETATM    9  C5  UNL     1      25.732   5.216  49.504  1.00  0.00     0.049 A 
HETATM   10  C6  UNL     1      26.755   5.794  48.764  1.00  0.00     0.031 A 
HETATM   11  C7  UNL     1      27.111   7.116  48.928  1.00  0.00     0.020 A 
HETATM   12  C8  UNL     1      26.474   7.939  49.833  1.00  0.00     0.037 A 
HETATM   13  C10 UNL     1      25.439   7.380  50.591  1.00  0.00     0.020 A 
HETATM   14  C11 UNL     1      25.086   6.054  50.423  1.00  0.00     0.031 A 
BRANCH  12  15
HETATM   15  C9  UNL     1      26.785   9.345  50.067  1.00  0.00     0.176 C 
HETATM   16  O1  UNL     1      26.334  10.271  49.344  1.00  0.00    -0.646 OA
BRANCH  15  17
HETATM   17  O2  UNL     1      27.606   9.779  51.106  1.00  0.00    -0.773 OA
HETATM   18  H9  UNL     1      27.934   9.161  51.849  1.00  0.00     0.167 HD
ENDBRANCH  15  17
ENDBRANCH  12  15
ENDBRANCH   7   9
ENDBRANCH   4   7
BRANCH   6  19
HETATM   19  C13 UNL     1      23.959   0.402  52.614  1.00  0.00     0.020 A 
HETATM   20  C14 UNL     1      22.752  -0.150  52.882  1.00  0.00     0.005 A 
HETATM   21  C21 UNL     1      23.920  -0.727  53.570  1.00  0.00     0.241 A 
HETATM   22  F2  UNL     1      24.017  -0.421  54.926  1.00  0.00    -0.239 F 
BRANCH  20  23
HETATM   23  C15 UNL     1      21.305  -0.190  52.678  1.00  0.00     0.013 A 
HETATM   24  C16 UNL     1      20.712   0.364  51.560  1.00  0.00     0.015 A 
HETATM   25  C17 UNL     1      19.373   0.351  51.317  1.00  0.00     0.001 A 
HETATM   26  C18 UNL     1      18.517  -0.246  52.221  1.00  0.00     0.003 A 
HETATM   27  C19 UNL     1      19.083  -0.807  53.346  1.00  0.00     0.043 A 
HETATM   28  C20 UNL     1      20.443  -0.779  53.568  1.00  0.00     0.127 A 
HETATM   29  F1  UNL     1      20.957  -1.346  54.682  1.00  0.00    -0.205 F 
ENDBRANCH  20  23
ENDBRANCH   6  19
BRANCH   1  30
HETATM   30  C1  UNL     1      26.591   0.351  53.635  1.00  0.00     0.309 C 
BRANCH  30  31
HETATM   31  N1  UNL     1      27.107   0.986  54.796  1.00  0.00     0.082 N 
HETATM   32  H1  UNL     1      27.286   0.314  55.575  1.00  0.00     0.313 HD
HETATM   33  H2  UNL     1      26.504   1.775  55.066  1.00  0.00     0.313 HD
ENDBRANCH  30  31
ENDBRANCH   1  30
TORSDOF 8
ENDMDL
MODEL 6
REMARK VINA RESULT:      -8.7      6.194      9.846
REMARK  8 active torsions:
REMARK  status: ('A' for Active; 'I' for Inactive)
REMARK    1  A    between atoms: N1_1  and  C1_2 
REMARK    2  A    between atoms: C1_2  and  C2_3 
REMARK    3  A    between atoms: C4_6  and  N3_7 
REMARK    4  A    between atoms: N3_7  and  C5_8 
REMARK    5  A    between atoms: C8_11  and  C9_12 
REMARK    6  A    between atoms: C9_12  and  O2_14 
REMARK    7  A    between atoms: C12_18  and  C13_19 
REMARK    8  A    between atoms: C14_20  and  C15_21 
ROOT
HETATM    1  C2  UNL     1      26.340   7.371  49.692  1.00  0.00     0.018 A 
HETATM    2  C3  UNL     1      25.267   6.955  50.440  1.00  0.00     0.147 A 
HETATM    3  N2  UNL     1      24.872   5.680  50.444  1.00  0.00    -0.074 NA
HETATM    4  C4  UNL     1      25.494   4.711  49.715  1.00  0.00     0.727 A 
HETATM    5  N4  UNL     1      26.544   5.089  48.975  1.00  0.00    -0.062 NA
HETATM    6  C12 UNL     1      26.969   6.364  48.948  1.00  0.00     0.095 A 
ENDROOT
BRANCH   4   7
HETATM    7  N3  UNL     1      24.989   3.387  49.812  1.00  0.00    -0.188 N 
HETATM    8  H6  UNL     1      24.436   3.016  48.984  1.00  0.00     0.184 HD
BRANCH   7   9
HETATM    9  C5  UNL     1      25.245   2.627  50.983  1.00  0.00     0.049 A 
HETATM   10  C6  UNL     1      24.310   1.956  51.760  1.00  0.00     0.031 A 
HETATM   11  C7  UNL     1      24.680   1.213  52.860  1.00  0.00     0.020 A 
HETATM   12  C8  UNL     1      25.997   1.091  53.253  1.00  0.00     0.037 A 
HETATM   13  C10 UNL     1      26.959   1.758  52.487  1.00  0.00     0.020 A 
HETATM   14  C11 UNL     1      26.583   2.503  51.384  1.00  0.00     0.031 A 
BRANCH  12  15
HETATM   15  C9  UNL     1      26.474   0.325  54.398  1.00  0.00     0.176 C 
HETATM   16  O1  UNL     1      27.546   0.596  55.000  1.00  0.00    -0.646 OA
BRANCH  15  17
HETATM   17  O2  UNL     1      25.786  -0.769  54.921  1.00  0.00    -0.773 OA
HETATM   18  H9  UNL     1      25.544  -1.590  54.365  1.00  0.00     0.167 HD
ENDBRANCH  15  17
ENDBRANCH  12  15
ENDBRANCH   7   9
ENDBRANCH   4   7
BRANCH   6  19
HETATM   19  C13 UNL     1      28.101   6.804  48.139  1.00  0.00     0.020 A 
HETATM   20  C14 UNL     1      29.397   6.969  47.780  1.00  0.00     0.005 A 
HETATM   21  C21 UNL     1      28.376   7.546  46.888  1.00  0.00     0.241 A 
HETATM   22  F2  UNL     1      28.270   8.934  46.930  1.00  0.00    -0.239 F 
BRANCH  20  23
HETATM   23  C15 UNL     1      30.820   6.760  48.041  1.00  0.00     0.013 A 
HETATM   24  C16 UNL     1      31.645   7.791  48.444  1.00  0.00     0.015 A 
HETATM   25  C17 UNL     1      32.973   7.653  48.706  1.00  0.00     0.001 A 
HETATM   26  C18 UNL     1      33.573   6.417  48.574  1.00  0.00     0.003 A 
HETATM   27  C19 UNL     1      32.772   5.369  48.173  1.00  0.00     0.043 A 
HETATM   28  C20 UNL     1      31.429   5.537  47.914  1.00  0.00     0.127 A 
HETATM   29  F1  UNL     1      30.678   4.482  47.529  1.00  0.00    -0.205 F 
ENDBRANCH  20  23
ENDBRANCH   6  19
BRANCH   1  30
HETATM   30  C1  UNL     1      26.799   8.768  49.692  1.00  0.00     0.309 C 
BRANCH  30  31
HETATM   31  N1  UNL     1      27.534   9.178  50.837  1.00  0.00     0.082 N 
HETATM   32  H1  UNL     1      27.872  10.164  50.765  1.00  0.00     0.313 HD
HETATM   33  H2  UNL     1      28.282   8.502  51.039  1.00  0.00     0.313 HD
ENDBRANCH  30  31
ENDBRANCH   1  30
TORSDOF 8
ENDMDL
MODEL 7
REMARK VINA RESULT:      -8.7      3.965      8.326
REMARK  8 active torsions:
REMARK  status: ('A' for Active; 'I' for Inactive)
REMARK    1  A    between atoms: N1_1  and  C1_2 
REMARK    2  A    between atoms: C1_2  and  C2_3 
REMARK    3  A    between atoms: C4_6  and  N3_7 
REMARK    4  A    between atoms: N3_7  and  C5_8 
REMARK    5  A    between atoms: C8_11  and  C9_12 
REMARK    6  A    between atoms: C9_12  and  O2_14 
REMARK    7  A    between atoms: C12_18  and  C13_19 
REMARK    8  A    between atoms: C14_20  and  C15_21 
ROOT
HETATM    1  C2  UNL     1      24.690   2.464  50.890  1.00  0.00     0.018 A 
HETATM    2  C3  UNL     1      24.029   3.124  49.883  1.00  0.00     0.147 A 
HETATM    3  N2  UNL     1      22.780   2.802  49.541  1.00  0.00    -0.074 NA
HETATM    4  C4  UNL     1      22.077   1.808  50.155  1.00  0.00     0.727 A 
HETATM    5  N4  UNL     1      22.697   1.148  51.141  1.00  0.00    -0.062 NA
HETATM    6  C12 UNL     1      23.954   1.445  51.512  1.00  0.00     0.095 A 
ENDROOT
BRANCH   4   7
HETATM    7  N3  UNL     1      20.750   1.569  49.711  1.00  0.00    -0.188 N 
HETATM    8  H6  UNL     1      20.486   1.933  48.748  1.00  0.00     0.184 HD
BRANCH   7   9
HETATM    9  C5  UNL     1      19.850   0.863  50.552  1.00  0.00     0.049 A 
HETATM   10  C6  UNL     1      20.099   0.405  51.838  1.00  0.00     0.031 A 
HETATM   11  C7  UNL     1      19.130  -0.239  52.579  1.00  0.00     0.020 A 
HETATM   12  C8  UNL     1      17.861  -0.463  52.089  1.00  0.00     0.037 A 
HETATM   13  C10 UNL     1      17.584  -0.010  50.794  1.00  0.00     0.020 A 
HETATM   14  C11 UNL     1      18.559   0.634  50.054  1.00  0.00     0.031 A 
BRANCH  12  15
HETATM   15  C9  UNL     1      16.779  -1.130  52.804  1.00  0.00     0.176 C 
HETATM   16  O1  UNL     1      16.690  -2.383  52.889  1.00  0.00    -0.646 OA
BRANCH  15  17
HETATM   17  O2  UNL     1      15.757  -0.439  53.452  1.00  0.00    -0.773 OA
HETATM   18  H9  UNL     1      14.930  -0.900  53.834  1.00  0.00     0.167 HD
ENDBRANCH  15  17
ENDBRANCH  12  15
ENDBRANCH   7   9
ENDBRANCH   4   7
BRANCH   6  19
HETATM   19  C13 UNL     1      24.657   0.730  52.572  1.00  0.00     0.020 A 
HETATM   20  C14 UNL     1      25.702   0.174  53.230  1.00  0.00     0.005 A 
HETATM   21  C21 UNL     1      24.376   0.063  53.864  1.00  0.00     0.241 A 
HETATM   22  F2  UNL     1      23.804  -1.206  53.818  1.00  0.00    -0.239 F 
BRANCH  20  23
HETATM   23  C15 UNL     1      27.129  -0.134  53.310  1.00  0.00     0.013 A 
HETATM   24  C16 UNL     1      28.054   0.804  53.726  1.00  0.00     0.015 A 
HETATM   25  C17 UNL     1      29.391   0.572  53.824  1.00  0.00     0.001 A 
HETATM   26  C18 UNL     1      29.897  -0.671  53.498  1.00  0.00     0.003 A 
HETATM   27  C19 UNL     1      28.995  -1.626  53.080  1.00  0.00     0.043 A 
HETATM   28  C20 UNL     1      27.646  -1.363  52.988  1.00  0.00     0.127 A 
HETATM   29  F1  UNL     1      26.795  -2.331  52.580  1.00  0.00    -0.205 F 
ENDBRANCH  20  23
ENDBRANCH   6  19
BRANCH   1  30
HETATM   30  C1  UNL     1      26.058   2.819  51.292  1.00  0.00     0.309 C 
BRANCH  30  31
HETATM   31  N1  UNL     1      26.703   3.804  50.496  1.00  0.00     0.082 N 
HETATM   32  H1  UNL     1      26.987   3.440  49.559  1.00  0.00     0.313 HD
HETATM   33  H2  UNL     1      27.476   4.234  51.020  1.00  0.00     0.313 HD
ENDBRANCH  30  31
ENDBRANCH   1  30
TORSDOF 8
ENDMDL
MODEL 8
REMARK VINA RESULT:      -8.7      4.612      8.310
REMARK  8 active torsions:
REMARK  status: ('A' for Active; 'I' for Inactive)
REMARK    1  A    between atoms: N1_1  and  C1_2 
REMARK    2  A    between atoms: C1_2  and  C2_3 
REMARK    3  A    between atoms: C4_6  and  N3_7 
REMARK    4  A    between atoms: N3_7  and  C5_8 
REMARK    5  A    between atoms: C8_11  and  C9_12 
REMARK    6  A    between atoms: C9_12  and  O2_14 
REMARK    7  A    between atoms: C12_18  and  C13_19 
REMARK    8  A    between atoms: C14_20  and  C15_21 
ROOT
HETATM    1  C2  UNL     1      23.131  -0.479  53.828  1.00  0.00     0.018 A 
HETATM    2  C3  UNL     1      21.800  -0.809  53.764  1.00  0.00     0.147 A 
HETATM    3  N2  UNL     1      21.006  -0.320  52.810  1.00  0.00    -0.074 NA
HETATM    4  C4  UNL     1      21.449   0.532  51.842  1.00  0.00     0.727 A 
HETATM    5  N4  UNL     1      22.744   0.870  51.880  1.00  0.00    -0.062 NA
HETATM    6  C12 UNL     1      23.573   0.396  52.827  1.00  0.00     0.095 A 
ENDROOT
BRANCH   4   7
HETATM    7  N3  UNL     1      20.511   0.973  50.872  1.00  0.00    -0.188 N 
HETATM    8  H6  UNL     1      19.486   0.761  51.055  1.00  0.00     0.184 HD
BRANCH   7   9
HETATM    9  C5  UNL     1      20.971   1.672  49.725  1.00  0.00     0.049 A 
HETATM   10  C6  UNL     1      21.706   1.147  48.671  1.00  0.00     0.031 A 
HETATM   11  C7  UNL     1      22.065   1.915  47.583  1.00  0.00     0.020 A 
HETATM   12  C8  UNL     1      21.715   3.245  47.478  1.00  0.00     0.037 A 
HETATM   13  C10 UNL     1      20.973   3.798  48.527  1.00  0.00     0.020 A 
HETATM   14  C11 UNL     1      20.615   3.024  49.616  1.00  0.00     0.031 A 
BRANCH  12  15
HETATM   15  C9  UNL     1      22.050   4.125  46.365  1.00  0.00     0.176 C 
HETATM   16  O1  UNL     1      22.415   5.319  46.527  1.00  0.00    -0.646 OA
BRANCH  15  17
HETATM   17  O2  UNL     1      21.993   3.721  45.032  1.00  0.00    -0.773 OA
HETATM   18  H9  UNL     1      21.666   4.330  44.281  1.00  0.00     0.167 HD
ENDBRANCH  15  17
ENDBRANCH  12  15
ENDBRANCH   7   9
ENDBRANCH   4   7
BRANCH   6  19
HETATM   19  C13 UNL     1      24.984   0.761  52.899  1.00  0.00     0.020 A 
HETATM   20  C14 UNL     1      26.323   0.579  52.989  1.00  0.00     0.005 A 
HETATM   21  C21 UNL     1      25.840   1.969  52.906  1.00  0.00     0.241 A 
HETATM   22  F2  UNL     1      25.916   2.693  54.094  1.00  0.00    -0.239 F 
BRANCH  20  23
HETATM   23  C15 UNL     1      27.475  -0.314  53.098  1.00  0.00     0.013 A 
HETATM   24  C16 UNL     1      27.368  -1.671  52.863  1.00  0.00     0.015 A 
HETATM   25  C17 UNL     1      28.406  -2.547  52.945  1.00  0.00     0.001 A 
HETATM   26  C18 UNL     1      29.665  -2.090  53.279  1.00  0.00     0.003 A 
HETATM   27  C19 UNL     1      29.800  -0.739  53.519  1.00  0.00     0.043 A 
HETATM   28  C20 UNL     1      28.731   0.126  53.430  1.00  0.00     0.127 A 
HETATM   29  F1  UNL     1      28.908   1.445  53.666  1.00  0.00    -0.205 F 
ENDBRANCH  20  23
ENDBRANCH   6  19
BRANCH   1  30
HETATM   30  C1  UNL     1      24.023  -1.025  54.862  1.00  0.00     0.309 C 
BRANCH  30  31
HETATM   31  N1  UNL     1      23.392  -1.760  55.901  1.00  0.00     0.082 N 
HETATM   32  H1  UNL     1      23.916  -2.625  56.158  1.00  0.00     0.313 HD
HETATM   33  H2  UNL     1      22.406  -1.933  55.664  1.00  0.00     0.313 HD
ENDBRANCH  30  31
ENDBRANCH   1  30
TORSDOF 8
ENDMDL
MODEL 9
REMARK VINA RESULT:      -8.6      4.189      7.417
REMARK  8 active torsions:
REMARK  status: ('A' for Active; 'I' for Inactive)
REMARK    1  A    between atoms: N1_1  and  C1_2 
REMARK    2  A    between atoms: C1_2  and  C2_3 
REMARK    3  A    between atoms: C4_6  and  N3_7 
REMARK    4  A    between atoms: N3_7  and  C5_8 
REMARK    5  A    between atoms: C8_11  and  C9_12 
REMARK    6  A    between atoms: C9_12  and  O2_14 
REMARK    7  A    between atoms: C12_18  and  C13_19 
REMARK    8  A    between atoms: C14_20  and  C15_21 
ROOT
HETATM    1  C2  UNL     1      23.201   5.497  51.336  1.00  0.00     0.018 A 
HETATM    2  C3  UNL     1      22.633   4.827  52.392  1.00  0.00     0.147 A 
HETATM    3  N2  UNL     1      22.790   3.511  52.548  1.00  0.00    -0.074 NA
HETATM    4  C4  UNL     1      23.513   2.744  51.684  1.00  0.00     0.727 A 
HETATM    5  N4  UNL     1      24.078   3.371  50.645  1.00  0.00    -0.062 NA
HETATM    6  C12 UNL     1      23.941   4.695  50.456  1.00  0.00     0.095 A 
ENDROOT
BRANCH   4   7
HETATM    7  N3  UNL     1      23.619   1.356  51.965  1.00  0.00    -0.188 N 
HETATM    8  H6  UNL     1      22.722   0.787  51.946  1.00  0.00     0.184 HD
BRANCH   7   9
HETATM    9  C5  UNL     1      24.893   0.797  52.246  1.00  0.00     0.049 A 
HETATM   10  C6  UNL     1      26.125   1.277  51.823  1.00  0.00     0.031 A 
HETATM   11  C7  UNL     1      27.306   0.670  52.193  1.00  0.00     0.020 A 
HETATM   12  C8  UNL     1      27.335  -0.445  53.003  1.00  0.00     0.037 A 
HETATM   13  C10 UNL     1      26.106  -0.950  53.443  1.00  0.00     0.020 A 
HETATM   14  C11 UNL     1      24.924  -0.338  53.070  1.00  0.00     0.031 A 
BRANCH  12  15
HETATM   15  C9  UNL     1      28.536  -1.145  53.442  1.00  0.00     0.176 C 
HETATM   16  O1  UNL     1      28.681  -2.390  53.324  1.00  0.00    -0.646 OA
BRANCH  15  17
HETATM   17  O2  UNL     1      29.621  -0.497  54.030  1.00  0.00    -0.773 OA
HETATM   18  H9  UNL     1      30.443  -0.993  54.377  1.00  0.00     0.167 HD
ENDBRANCH  15  17
ENDBRANCH  12  15
ENDBRANCH   7   9
ENDBRANCH   4   7
BRANCH   6  19
HETATM   19  C13 UNL     1      24.535   5.399  49.324  1.00  0.00     0.020 A 
HETATM   20  C14 UNL     1      25.510   5.936  48.553  1.00  0.00     0.005 A 
HETATM   21  C21 UNL     1      24.124   6.076  48.074  1.00  0.00     0.241 A 
HETATM   22  F2  UNL     1      23.587   7.357  48.185  1.00  0.00    -0.239 F 
BRANCH  20  23
HETATM   23  C15 UNL     1      26.925   6.214  48.313  1.00  0.00     0.013 A 
HETATM   24  C16 UNL     1      27.367   7.470  47.944  1.00  0.00     0.015 A 
HETATM   25  C17 UNL     1      28.670   7.787  47.713  1.00  0.00     0.001 A 
HETATM   26  C18 UNL     1      29.646   6.819  47.848  1.00  0.00     0.003 A 
HETATM   27  C19 UNL     1      29.232   5.556  48.215  1.00  0.00     0.043 A 
HETATM   28  C20 UNL     1      27.905   5.263  48.442  1.00  0.00     0.127 A 
HETATM   29  F1  UNL     1      27.543   4.013  48.808  1.00  0.00    -0.205 F 
ENDBRANCH  20  23
ENDBRANCH   6  19
BRANCH   1  30
HETATM   30  C1  UNL     1      23.054   6.949  51.161  1.00  0.00     0.309 C 
BRANCH  30  31
HETATM   31  N1  UNL     1      24.161   7.738  51.572  1.00  0.00     0.082 N 
HETATM   32  H1  UNL     1      24.834   7.922  50.795  1.00  0.00     0.313 HD
HETATM   33  H2  UNL     1      24.600   7.326  52.406  1.00  0.00     0.313 HD
ENDBRANCH  30  31
ENDBRANCH   1  30
TORSDOF 8
ENDMDL
