MODEL 1
REMARK VINA RESULT:      -7.6      0.000      0.000
REMARK  6 active torsions:
REMARK  status: ('A' for Active; 'I' for Inactive)
REMARK    1  A    between atoms: C2_3  and  C3_4 
REMARK    2  A    between atoms: C4_5  and  N1_6 
REMARK    3  A    between atoms: N1_6  and  C5_7 
REMARK    4  A    between atoms: C10_14  and  N4_15 
REMARK    5  A    between atoms: N4_15  and  C11_16 
REMARK    6  A    between atoms: C11_16  and  C12_17 
ROOT
HETATM    1 CL1  UNL     1      28.167   5.040  48.580  1.00  0.00    -0.262 Cl
HETATM    2  C1  UNL     1      26.622   4.361  49.004  1.00  0.00     0.202 C 
HETATM    3  C2  UNL     1      25.460   3.819  49.422  1.00  0.00     0.064 C 
ENDROOT
BRANCH   3   4
HETATM    4  C3  UNL     1      25.679   3.458  50.807  1.00  0.00     0.039 C 
HETATM    5  C4  UNL     1      26.598   2.650  51.297  1.00  0.00     0.068 C 
BRANCH   5   6
HETATM    6  N1  UNL     1      26.127   2.852  52.654  1.00  0.00    -0.353 N 
HETATM    7  H5  UNL     1      25.847   3.804  52.971  1.00  0.00     0.166 HD
BRANCH   6   8
HETATM    8  C5  UNL     1      26.095   1.668  53.448  1.00  0.00     0.141 A 
HETATM    9  N2  UNL     1      27.192   1.288  54.108  1.00  0.00    -0.224 NA
HETATM   10  C6  UNL     1      27.210   0.160  54.881  1.00  0.00     0.236 A 
HETATM   11  N3  UNL     1      26.121  -0.631  55.022  1.00  0.00    -0.241 NA
HETATM   12  C7  UNL     1      24.994  -0.286  54.375  1.00  0.00     0.072 A 
HETATM   13  C8  UNL     1      23.878  -1.083  54.509  1.00  0.00     0.035 A 
HETATM   14  C19 UNL     1      25.007   0.840  53.613  1.00  0.00     0.041 A 
HETATM   15  C9  UNL     1      22.724  -0.726  53.844  1.00  0.00     0.031 A 
HETATM   16  C10 UNL     1      22.691   0.423  53.050  1.00  0.00     0.029 A 
HETATM   17  C18 UNL     1      23.842   1.174  52.960  1.00  0.00     0.046 A 
BRANCH  16  18
HETATM   18  N4  UNL     1      21.500   0.795  52.362  1.00  0.00    -0.386 N 
HETATM   19  H9  UNL     1      20.769   1.324  52.884  1.00  0.00     0.160 HD
BRANCH  18  20
HETATM   20  C11 UNL     1      21.340   0.430  50.968  1.00  0.00     0.158 C 
BRANCH  20  21
HETATM   21  C12 UNL     1      21.566   1.552  50.042  1.00  0.00    -0.041 A 
HETATM   22  C13 UNL     1      21.540   2.873  50.384  1.00  0.00     0.010 A 
HETATM   23  C14 UNL     1      21.773   3.830  49.398  1.00  0.00     0.024 A 
HETATM   24  C15 UNL     1      22.032   3.502  48.082  1.00  0.00     0.034 A 
HETATM   25 CL2  UNL     1      22.315   4.769  46.900  1.00  0.00    -0.084 Cl
HETATM   26  C16 UNL     1      22.059   2.168  47.734  1.00  0.00     0.024 A 
HETATM   27  C17 UNL     1      21.826   1.239  48.722  1.00  0.00     0.010 A 
ENDBRANCH  20  21
ENDBRANCH  18  20
ENDBRANCH  16  18
ENDBRANCH   6   8
ENDBRANCH   5   6
ENDBRANCH   3   4
TORSDOF 6
ENDMDL
MODEL 2
REMARK VINA RESULT:      -7.3      2.426      3.564
REMARK  6 active torsions:
REMARK  status: ('A' for Active; 'I' for Inactive)
REMARK    1  A    between atoms: C2_3  and  C3_4 
REMARK    2  A    between atoms: C4_5  and  N1_6 
REMARK    3  A    between atoms: N1_6  and  C5_7 
REMARK    4  A    between atoms: C10_14  and  N4_15 
REMARK    5  A    between atoms: N4_15  and  C11_16 
REMARK    6  A    between atoms: C11_16  and  C12_17 
ROOT
HETATM    1 CL1  UNL     1      22.554   6.229  50.675  1.00  0.00    -0.262 Cl
HETATM    2  C1  UNL     1      24.118   5.863  50.006  1.00  0.00     0.202 C 
HETATM    3  C2  UNL     1      25.325   5.492  49.532  1.00  0.00     0.064 C 
ENDROOT
BRANCH   3   4
HETATM    4  C3  UNL     1      25.559   4.167  50.066  1.00  0.00     0.039 C 
HETATM    5  C4  UNL     1      24.970   3.594  51.097  1.00  0.00     0.068 C 
BRANCH   5   6
HETATM    6  N1  UNL     1      25.747   2.380  50.933  1.00  0.00    -0.353 N 
HETATM    7  H5  UNL     1      25.731   1.872  50.023  1.00  0.00     0.166 HD
BRANCH   6   8
HETATM    8  C5  UNL     1      26.484   1.993  52.090  1.00  0.00     0.141 A 
HETATM    9  N2  UNL     1      27.697   2.510  52.302  1.00  0.00    -0.224 NA
HETATM   10  C6  UNL     1      28.442   2.169  53.397  1.00  0.00     0.236 A 
HETATM   11  N3  UNL     1      27.993   1.294  54.325  1.00  0.00    -0.241 NA
HETATM   12  C7  UNL     1      26.776   0.749  54.153  1.00  0.00     0.072 A 
HETATM   13  C8  UNL     1      26.307  -0.144  55.092  1.00  0.00     0.035 A 
HETATM   14  C19 UNL     1      26.059   1.106  53.054  1.00  0.00     0.041 A 
HETATM   15  C9  UNL     1      25.058  -0.701  54.911  1.00  0.00     0.031 A 
HETATM   16  C10 UNL     1      24.286  -0.364  53.797  1.00  0.00     0.029 A 
HETATM   17  C18 UNL     1      24.816   0.536  52.899  1.00  0.00     0.046 A 
BRANCH  16  18
HETATM   18  N4  UNL     1      22.996  -0.937  53.608  1.00  0.00    -0.386 N 
HETATM   19  H9  UNL     1      22.930  -1.873  53.154  1.00  0.00     0.160 HD
BRANCH  18  20
HETATM   20  C11 UNL     1      21.822  -0.209  54.048  1.00  0.00     0.158 C 
BRANCH  20  21
HETATM   21  C12 UNL     1      20.794  -0.074  53.002  1.00  0.00    -0.041 A 
HETATM   22  C13 UNL     1      20.992   0.478  51.771  1.00  0.00     0.010 A 
HETATM   23  C14 UNL     1      19.923   0.540  50.879  1.00  0.00     0.024 A 
HETATM   24  C15 UNL     1      18.663   0.065  51.186  1.00  0.00     0.034 A 
HETATM   25 CL2  UNL     1      17.368   0.182  50.006  1.00  0.00    -0.084 Cl
HETATM   26  C16 UNL     1      18.460  -0.493  52.431  1.00  0.00     0.024 A 
HETATM   27  C17 UNL     1      19.529  -0.544  53.296  1.00  0.00     0.010 A 
ENDBRANCH  20  21
ENDBRANCH  18  20
ENDBRANCH  16  18
ENDBRANCH   6   8
ENDBRANCH   5   6
ENDBRANCH   3   4
TORSDOF 6
ENDMDL
MODEL 3
REMARK VINA RESULT:      -7.2      2.553      5.530
REMARK  6 active torsions:
REMARK  status: ('A' for Active; 'I' for Inactive)
REMARK    1  A    between atoms: C2_3  and  C3_4 
REMARK    2  A    between atoms: C4_5  and  N1_6 
REMARK    3  A    between atoms: N1_6  and  C5_7 
REMARK    4  A    between atoms: C10_14  and  N4_15 
REMARK    5  A    between atoms: N4_15  and  C11_16 
REMARK    6  A    between atoms: C11_16  and  C12_17 
ROOT
HETATM    1 CL1  UNL     1      18.022  -0.250  51.200  1.00  0.00    -0.262 Cl
HETATM    2  C1  UNL     1      18.983  -0.473  52.634  1.00  0.00     0.202 C 
HETATM    3  C2  UNL     1      19.805  -0.619  53.693  1.00  0.00     0.064 C 
ENDROOT
BRANCH   3   4
HETATM    4  C3  UNL     1      21.124  -0.271  53.207  1.00  0.00     0.039 C 
HETATM    5  C4  UNL     1      21.735   0.895  53.287  1.00  0.00     0.068 C 
BRANCH   5   6
HETATM    6  N1  UNL     1      22.911   0.385  52.607  1.00  0.00    -0.353 N 
HETATM    7  H5  UNL     1      22.900   0.262  51.573  1.00  0.00     0.166 HD
BRANCH   6   8
HETATM    8  C5  UNL     1      24.008   0.095  53.469  1.00  0.00     0.141 A 
HETATM    9  N2  UNL     1      23.853  -0.788  54.459  1.00  0.00    -0.224 NA
HETATM   10  C6  UNL     1      24.876  -1.100  55.311  1.00  0.00     0.236 A 
HETATM   11  N3  UNL     1      26.100  -0.533  55.199  1.00  0.00    -0.241 NA
HETATM   12  C7  UNL     1      26.302   0.362  54.217  1.00  0.00     0.072 A 
HETATM   13  C8  UNL     1      27.543   0.946  54.092  1.00  0.00     0.035 A 
HETATM   14  C19 UNL     1      25.265   0.651  53.385  1.00  0.00     0.041 A 
HETATM   15  C9  UNL     1      27.746   1.863  53.082  1.00  0.00     0.031 A 
HETATM   16  C10 UNL     1      26.710   2.192  52.205  1.00  0.00     0.029 A 
HETATM   17  C18 UNL     1      25.495   1.570  52.386  1.00  0.00     0.046 A 
BRANCH  16  18
HETATM   18  N4  UNL     1      26.917   3.139  51.161  1.00  0.00    -0.386 N 
HETATM   19  H9  UNL     1      27.723   3.796  51.238  1.00  0.00     0.160 HD
BRANCH  18  20
HETATM   20  C11 UNL     1      26.009   3.162  50.031  1.00  0.00     0.158 C 
BRANCH  20  21
HETATM   21  C12 UNL     1      25.908   4.485  49.391  1.00  0.00    -0.041 A 
HETATM   22  C13 UNL     1      24.755   5.198  49.236  1.00  0.00     0.010 A 
HETATM   23  C14 UNL     1      24.811   6.441  48.608  1.00  0.00     0.024 A 
HETATM   24  C15 UNL     1      25.986   6.988  48.132  1.00  0.00     0.034 A 
HETATM   25 CL2  UNL     1      25.971   8.562  47.352  1.00  0.00    -0.084 Cl
HETATM   26  C16 UNL     1      27.152   6.269  48.288  1.00  0.00     0.024 A 
HETATM   27  C17 UNL     1      27.076   5.044  48.910  1.00  0.00     0.010 A 
ENDBRANCH  20  21
ENDBRANCH  18  20
ENDBRANCH  16  18
ENDBRANCH   6   8
ENDBRANCH   5   6
ENDBRANCH   3   4
TORSDOF 6
ENDMDL
MODEL 4
REMARK VINA RESULT:      -6.9      3.597      4.611
REMARK  6 active torsions:
REMARK  status: ('A' for Active; 'I' for Inactive)
REMARK    1  A    between atoms: C2_3  and  C3_4 
REMARK    2  A    between atoms: C4_5  and  N1_6 
REMARK    3  A    between atoms: N1_6  and  C5_7 
REMARK    4  A    between atoms: C10_14  and  N4_15 
REMARK    5  A    between atoms: N4_15  and  C11_16 
REMARK    6  A    between atoms: C11_16  and  C12_17 
ROOT
HETATM    1 CL1  UNL     1      22.951   5.161  48.118  1.00  0.00    -0.262 Cl
HETATM    2  C1  UNL     1      24.407   4.830  49.010  1.00  0.00     0.202 C 
HETATM    3  C2  UNL     1      25.493   4.493  49.736  1.00  0.00     0.064 C 
ENDROOT
BRANCH   3   4
HETATM    4  C3  UNL     1      25.138   3.263  50.413  1.00  0.00     0.039 C 
HETATM    5  C4  UNL     1      25.715   2.723  51.468  1.00  0.00     0.068 C 
BRANCH   5   6
HETATM    6  N1  UNL     1      24.793   1.603  51.465  1.00  0.00    -0.353 N 
HETATM    7  H5  UNL     1      24.058   1.537  50.730  1.00  0.00     0.166 HD
BRANCH   6   8
HETATM    8  C5  UNL     1      25.003   0.668  52.520  1.00  0.00     0.141 A 
HETATM    9  N2  UNL     1      26.232   0.198  52.750  1.00  0.00    -0.224 NA
HETATM   10  C6  UNL     1      26.482  -0.701  53.750  1.00  0.00     0.236 A 
HETATM   11  N3  UNL     1      25.502  -1.162  54.561  1.00  0.00    -0.241 NA
HETATM   12  C7  UNL     1      24.249  -0.716  54.366  1.00  0.00     0.072 A 
HETATM   13  C8  UNL     1      23.242  -1.178  55.185  1.00  0.00     0.035 A 
HETATM   14  C19 UNL     1      24.031   0.177  53.364  1.00  0.00     0.041 A 
HETATM   15  C9  UNL     1      21.958  -0.718  54.982  1.00  0.00     0.031 A 
HETATM   16  C10 UNL     1      21.687   0.200  53.964  1.00  0.00     0.029 A 
HETATM   17  C18 UNL     1      22.741   0.620  53.183  1.00  0.00     0.046 A 
BRANCH  16  18
HETATM   18  N4  UNL     1      20.362   0.677  53.752  1.00  0.00    -0.386 N 
HETATM   19  H9  UNL     1      19.879   1.169  54.535  1.00  0.00     0.160 HD
BRANCH  18  20
HETATM   20  C11 UNL     1      19.727   0.467  52.466  1.00  0.00     0.158 C 
BRANCH  20  21
HETATM   21  C12 UNL     1      18.594  -0.471  52.520  1.00  0.00    -0.041 A 
HETATM   22  C13 UNL     1      17.437  -0.350  51.806  1.00  0.00     0.010 A 
HETATM   23  C14 UNL     1      16.446  -1.318  51.959  1.00  0.00     0.024 A 
HETATM   24  C15 UNL     1      16.581  -2.401  52.805  1.00  0.00     0.034 A 
HETATM   25 CL2  UNL     1      15.284  -3.577  52.940  1.00  0.00    -0.084 Cl
HETATM   26  C16 UNL     1      17.749  -2.525  53.527  1.00  0.00     0.024 A 
HETATM   27  C17 UNL     1      18.715  -1.559  53.362  1.00  0.00     0.010 A 
ENDBRANCH  20  21
ENDBRANCH  18  20
ENDBRANCH  16  18
ENDBRANCH   6   8
ENDBRANCH   5   6
ENDBRANCH   3   4
TORSDOF 6
ENDMDL
MODEL 5
REMARK VINA RESULT:      -6.9      2.301      4.606
REMARK  6 active torsions:
REMARK  status: ('A' for Active; 'I' for Inactive)
REMARK    1  A    between atoms: C2_3  and  C3_4 
REMARK    2  A    between atoms: C4_5  and  N1_6 
REMARK    3  A    between atoms: N1_6  and  C5_7 
REMARK    4  A    between atoms: C10_14  and  N4_15 
REMARK    5  A    between atoms: N4_15  and  C11_16 
REMARK    6  A    between atoms: C11_16  and  C12_17 
ROOT
HETATM    1 CL1  UNL     1      29.341   1.491  54.837  1.00  0.00    -0.262 Cl
HETATM    2  C1  UNL     1      28.646   0.208  53.890  1.00  0.00     0.202 C 
HETATM    3  C2  UNL     1      28.022  -0.739  53.159  1.00  0.00     0.064 C 
ENDROOT
BRANCH   3   4
HETATM    4  C3  UNL     1      26.651  -0.291  53.037  1.00  0.00     0.039 C 
HETATM    5  C4  UNL     1      25.697  -0.347  53.945  1.00  0.00     0.068 C 
BRANCH   5   6
HETATM    6  N1  UNL     1      24.735   0.268  53.050  1.00  0.00    -0.353 N 
HETATM    7  H5  UNL     1      25.063   0.914  52.300  1.00  0.00     0.166 HD
BRANCH   6   8
HETATM    8  C5  UNL     1      23.380  -0.095  53.304  1.00  0.00     0.141 A 
HETATM    9  N2  UNL     1      23.113  -1.096  54.147  1.00  0.00    -0.224 NA
HETATM   10  C6  UNL     1      21.829  -1.480  54.421  1.00  0.00     0.236 A 
HETATM   11  N3  UNL     1      20.762  -0.869  53.858  1.00  0.00    -0.241 NA
HETATM   12  C7  UNL     1      20.984   0.144  53.003  1.00  0.00     0.072 A 
HETATM   13  C8  UNL     1      19.905   0.775  52.422  1.00  0.00     0.035 A 
HETATM   14  C19 UNL     1      22.271   0.504  52.749  1.00  0.00     0.041 A 
HETATM   15  C9  UNL     1      20.138   1.815  51.545  1.00  0.00     0.031 A 
HETATM   16  C10 UNL     1      21.443   2.217  51.254  1.00  0.00     0.029 A 
HETATM   17  C18 UNL     1      22.475   1.544  51.871  1.00  0.00     0.046 A 
BRANCH  16  18
HETATM   18  N4  UNL     1      21.686   3.290  50.349  1.00  0.00    -0.386 N 
HETATM   19  H9  UNL     1      21.351   3.197  49.366  1.00  0.00     0.160 HD
BRANCH  18  20
HETATM   20  C11 UNL     1      22.386   4.471  50.816  1.00  0.00     0.158 C 
BRANCH  20  21
HETATM   21  C12 UNL     1      23.719   4.636  50.212  1.00  0.00    -0.041 A 
HETATM   22  C13 UNL     1      24.061   5.606  49.316  1.00  0.00     0.010 A 
HETATM   23  C14 UNL     1      25.365   5.641  48.825  1.00  0.00     0.024 A 
HETATM   24  C15 UNL     1      26.334   4.734  49.206  1.00  0.00     0.034 A 
HETATM   25 CL2  UNL     1      27.955   4.846  48.540  1.00  0.00    -0.084 Cl
HETATM   26  C16 UNL     1      25.990   3.752  50.111  1.00  0.00     0.024 A 
HETATM   27  C17 UNL     1      24.697   3.735  50.583  1.00  0.00     0.010 A 
ENDBRANCH  20  21
ENDBRANCH  18  20
ENDBRANCH  16  18
ENDBRANCH   6   8
ENDBRANCH   5   6
ENDBRANCH   3   4
TORSDOF 6
ENDMDL
MODEL 6
REMARK VINA RESULT:      -6.7      4.851      7.771
REMARK  6 active torsions:
REMARK  status: ('A' for Active; 'I' for Inactive)
REMARK    1  A    between atoms: C2_3  and  C3_4 
REMARK    2  A    between atoms: C4_5  and  N1_6 
REMARK    3  A    between atoms: N1_6  and  C5_7 
REMARK    4  A    between atoms: C10_14  and  N4_15 
REMARK    5  A    between atoms: N4_15  and  C11_16 
REMARK    6  A    between atoms: C11_16  and  C12_17 
ROOT
HETATM    1 CL1  UNL     1      35.567   6.694  48.608  1.00  0.00    -0.262 Cl
HETATM    2  C1  UNL     1      34.804   5.269  47.965  1.00  0.00     0.202 C 
HETATM    3  C2  UNL     1      34.127   4.203  47.490  1.00  0.00     0.064 C 
ENDROOT
BRANCH   3   4
HETATM    4  C3  UNL     1      32.729   4.501  47.721  1.00  0.00     0.039 C 
HETATM    5  C4  UNL     1      31.857   5.005  46.870  1.00  0.00     0.068 C 
BRANCH   5   6
HETATM    6  N1  UNL     1      30.794   4.971  47.857  1.00  0.00    -0.353 N 
HETATM    7  H5  UNL     1      30.720   4.165  48.513  1.00  0.00     0.166 HD
BRANCH   6   8
HETATM    8  C5  UNL     1      29.923   6.099  47.821  1.00  0.00     0.141 A 
HETATM    9  N2  UNL     1      30.392   7.281  47.414  1.00  0.00    -0.224 NA
HETATM   10  C6  UNL     1      29.595   8.391  47.363  1.00  0.00     0.236 A 
HETATM   11  N3  UNL     1      28.291   8.354  47.720  1.00  0.00    -0.241 NA
HETATM   12  C7  UNL     1      27.776   7.184  48.136  1.00  0.00     0.072 A 
HETATM   13  C8  UNL     1      26.448   7.133  48.502  1.00  0.00     0.035 A 
HETATM   14  C19 UNL     1      28.592   6.098  48.177  1.00  0.00     0.041 A 
HETATM   15  C9  UNL     1      25.923   5.931  48.928  1.00  0.00     0.031 A 
HETATM   16  C10 UNL     1      26.726   4.789  48.986  1.00  0.00     0.029 A 
HETATM   17  C18 UNL     1      28.044   4.911  48.605  1.00  0.00     0.046 A 
BRANCH  16  18
HETATM   18  N4  UNL     1      26.187   3.546  49.426  1.00  0.00    -0.386 N 
HETATM   19  H9  UNL     1      25.575   3.010  48.773  1.00  0.00     0.160 HD
BRANCH  18  20
HETATM   20  C11 UNL     1      26.501   3.064  50.756  1.00  0.00     0.158 C 
BRANCH  20  21
HETATM   21  C12 UNL     1      25.432   2.241  51.347  1.00  0.00    -0.041 A 
HETATM   22  C13 UNL     1      25.587   1.391  52.403  1.00  0.00     0.010 A 
HETATM   23  C14 UNL     1      24.482   0.673  52.857  1.00  0.00     0.024 A 
HETATM   24  C15 UNL     1      23.230   0.782  52.285  1.00  0.00     0.034 A 
HETATM   25 CL2  UNL     1      21.889  -0.159  52.917  1.00  0.00    -0.084 Cl
HETATM   26  C16 UNL     1      23.072   1.640  51.217  1.00  0.00     0.024 A 
HETATM   27  C17 UNL     1      24.175   2.340  50.784  1.00  0.00     0.010 A 
ENDBRANCH  20  21
ENDBRANCH  18  20
ENDBRANCH  16  18
ENDBRANCH   6   8
ENDBRANCH   5   6
ENDBRANCH   3   4
TORSDOF 6
ENDMDL
MODEL 7
REMARK VINA RESULT:      -6.7      3.062      6.345
REMARK  6 active torsions:
REMARK  status: ('A' for Active; 'I' for Inactive)
REMARK    1  A    between atoms: C2_3  and  C3_4 
REMARK    2  A    between atoms: C4_5  and  N1_6 
REMARK    3  A    between atoms: N1_6  and  C5_7 
REMARK    4  A    between atoms: C10_14  and  N4_15 
REMARK    5  A    between atoms: N4_15  and  C11_16 
REMARK    6  A    between atoms: C11_16  and  C12_17 
ROOT
HETATM    1 CL1  UNL     1      14.512  -0.185  51.295  1.00  0.00    -0.262 Cl
HETATM    2  C1  UNL     1      16.100  -0.127  50.586  1.00  0.00     0.202 C 
HETATM    3  C2  UNL     1      17.366  -0.066  50.126  1.00  0.00     0.064 C 
ENDROOT
BRANCH   3   4
HETATM    4  C3  UNL     1      18.188   0.186  51.291  1.00  0.00     0.039 C 
HETATM    5  C4  UNL     1      18.467  -0.641  52.280  1.00  0.00     0.068 C 
BRANCH   5   6
HETATM    6  N1  UNL     1      19.283   0.353  52.951  1.00  0.00    -0.353 N 
HETATM    7  H5  UNL     1      18.919   1.320  53.084  1.00  0.00     0.166 HD
BRANCH   6   8
HETATM    8  C5  UNL     1      20.558  -0.124  53.376  1.00  0.00     0.141 A 
HETATM    9  N2  UNL     1      20.629  -1.195  54.170  1.00  0.00    -0.224 NA
HETATM   10  C6  UNL     1      21.828  -1.689  54.604  1.00  0.00     0.236 A 
HETATM   11  N3  UNL     1      23.006  -1.124  54.253  1.00  0.00    -0.241 NA
HETATM   12  C7  UNL     1      22.982  -0.043  53.454  1.00  0.00     0.072 A 
HETATM   13  C8  UNL     1      24.175   0.543  53.089  1.00  0.00     0.035 A 
HETATM   14  C19 UNL     1      21.775   0.426  53.039  1.00  0.00     0.041 A 
HETATM   15  C9  UNL     1      24.146   1.652  52.269  1.00  0.00     0.031 A 
HETATM   16  C10 UNL     1      22.928   2.168  51.818  1.00  0.00     0.029 A 
HETATM   17  C18 UNL     1      21.774   1.533  52.221  1.00  0.00     0.046 A 
BRANCH  16  18
HETATM   18  N4  UNL     1      22.895   3.313  50.971  1.00  0.00    -0.386 N 
HETATM   19  H9  UNL     1      22.542   4.212  51.364  1.00  0.00     0.160 HD
BRANCH  18  20
HETATM   20  C11 UNL     1      23.348   3.197  49.599  1.00  0.00     0.158 C 
BRANCH  20  21
HETATM   21  C12 UNL     1      24.606   3.915  49.337  1.00  0.00    -0.041 A 
HETATM   22  C13 UNL     1      25.855   3.376  49.438  1.00  0.00     0.010 A 
HETATM   23  C14 UNL     1      26.961   4.178  49.159  1.00  0.00     0.024 A 
HETATM   24  C15 UNL     1      26.850   5.501  48.782  1.00  0.00     0.034 A 
HETATM   25 CL2  UNL     1      28.293   6.444  48.448  1.00  0.00    -0.084 Cl
HETATM   26  C16 UNL     1      25.588   6.049  48.680  1.00  0.00     0.024 A 
HETATM   27  C17 UNL     1      24.510   5.240  48.960  1.00  0.00     0.010 A 
ENDBRANCH  20  21
ENDBRANCH  18  20
ENDBRANCH  16  18
ENDBRANCH   6   8
ENDBRANCH   5   6
ENDBRANCH   3   4
TORSDOF 6
ENDMDL
MODEL 8
REMARK VINA RESULT:      -6.7      1.771      2.275
REMARK  6 active torsions:
REMARK  status: ('A' for Active; 'I' for Inactive)
REMARK    1  A    between atoms: C2_3  and  C3_4 
REMARK    2  A    between atoms: C4_5  and  N1_6 
REMARK    3  A    between atoms: N1_6  and  C5_7 
REMARK    4  A    between atoms: C10_14  and  N4_15 
REMARK    5  A    between atoms: N4_15  and  C11_16 
REMARK    6  A    between atoms: C11_16  and  C12_17 
ROOT
HETATM    1 CL1  UNL     1      28.435   5.636  48.311  1.00  0.00    -0.262 Cl
HETATM    2  C1  UNL     1      26.737   5.497  48.664  1.00  0.00     0.202 C 
HETATM    3  C2  UNL     1      25.445   5.337  49.018  1.00  0.00     0.064 C 
ENDROOT
BRANCH   3   4
HETATM    4  C3  UNL     1      25.471   4.540  50.226  1.00  0.00     0.039 C 
HETATM    5  C4  UNL     1      26.105   3.402  50.432  1.00  0.00     0.068 C 
BRANCH   5   6
HETATM    6  N1  UNL     1      25.622   3.319  51.797  1.00  0.00    -0.353 N 
HETATM    7  H5  UNL     1      25.344   4.187  52.304  1.00  0.00     0.166 HD
BRANCH   6   8
HETATM    8  C5  UNL     1      25.577   1.996  52.325  1.00  0.00     0.141 A 
HETATM    9  N2  UNL     1      26.713   1.391  52.684  1.00  0.00    -0.224 NA
HETATM   10  C6  UNL     1      26.720   0.122  53.195  1.00  0.00     0.236 A 
HETATM   11  N3  UNL     1      25.581  -0.588  53.367  1.00  0.00    -0.241 NA
HETATM   12  C7  UNL     1      24.415  -0.018  53.020  1.00  0.00     0.072 A 
HETATM   13  C8  UNL     1      23.248  -0.731  53.189  1.00  0.00     0.035 A 
HETATM   14  C19 UNL     1      24.439   1.244  52.514  1.00  0.00     0.041 A 
HETATM   15  C9  UNL     1      22.052  -0.142  52.832  1.00  0.00     0.031 A 
HETATM   16  C10 UNL     1      22.030   1.152  52.308  1.00  0.00     0.029 A 
HETATM   17  C18 UNL     1      23.233   1.808  52.165  1.00  0.00     0.046 A 
BRANCH  16  18
HETATM   18  N4  UNL     1      20.797   1.763  51.937  1.00  0.00    -0.386 N 
HETATM   19  H9  UNL     1      20.127   1.217  51.355  1.00  0.00     0.160 HD
BRANCH  18  20
HETATM   20  C11 UNL     1      20.512   3.114  52.377  1.00  0.00     0.158 C 
BRANCH  20  21
HETATM   21  C12 UNL     1      20.937   4.144  51.413  1.00  0.00    -0.041 A 
HETATM   22  C13 UNL     1      20.601   4.170  50.091  1.00  0.00     0.010 A 
HETATM   23  C14 UNL     1      21.078   5.209  49.295  1.00  0.00     0.024 A 
HETATM   24  C15 UNL     1      21.880   6.221  49.784  1.00  0.00     0.034 A 
HETATM   25 CL2  UNL     1      22.439   7.496  48.714  1.00  0.00    -0.084 Cl
HETATM   26  C16 UNL     1      22.221   6.197  51.121  1.00  0.00     0.024 A 
HETATM   27  C17 UNL     1      21.740   5.161  51.889  1.00  0.00     0.010 A 
ENDBRANCH  20  21
ENDBRANCH  18  20
ENDBRANCH  16  18
ENDBRANCH   6   8
ENDBRANCH   5   6
ENDBRANCH   3   4
TORSDOF 6
ENDMDL
MODEL 9
REMARK VINA RESULT:      -6.7      3.301      7.342
REMARK  6 active torsions:
REMARK  status: ('A' for Active; 'I' for Inactive)
REMARK    1  A    between atoms: C2_3  and  C3_4 
REMARK    2  A    between atoms: C4_5  and  N1_6 
REMARK    3  A    between atoms: N1_6  and  C5_7 
REMARK    4  A    between atoms: C10_14  and  N4_15 
REMARK    5  A    between atoms: N4_15  and  C11_16 
REMARK    6  A    between atoms: C11_16  and  C12_17 
ROOT
HETATM    1 CL1  UNL     1      29.990  -0.054  53.891  1.00  0.00    -0.262 Cl
HETATM    2  C1  UNL     1      28.333   0.144  54.385  1.00  0.00     0.202 C 
HETATM    3  C2  UNL     1      27.029   0.324  54.677  1.00  0.00     0.064 C 
ENDROOT
BRANCH   3   4
HETATM    4  C3  UNL     1      26.413   0.759  53.440  1.00  0.00     0.039 C 
HETATM    5  C4  UNL     1      25.177   1.177  53.254  1.00  0.00     0.068 C 
BRANCH   5   6
HETATM    6  N1  UNL     1      25.406   1.388  51.837  1.00  0.00    -0.353 N 
HETATM    7  H5  UNL     1      26.319   1.120  51.413  1.00  0.00     0.166 HD
BRANCH   6   8
HETATM    8  C5  UNL     1      24.303   1.967  51.145  1.00  0.00     0.141 A 
HETATM    9  N2  UNL     1      23.105   1.378  51.202  1.00  0.00    -0.224 NA
HETATM   10  C6  UNL     1      22.018   1.896  50.554  1.00  0.00     0.236 A 
HETATM   11  N3  UNL     1      22.093   3.031  49.823  1.00  0.00    -0.241 NA
HETATM   12  C7  UNL     1      23.279   3.659  49.737  1.00  0.00     0.072 A 
HETATM   13  C8  UNL     1      23.369   4.817  48.995  1.00  0.00     0.035 A 
HETATM   14  C19 UNL     1      24.342   3.120  50.392  1.00  0.00     0.041 A 
HETATM   15  C9  UNL     1      24.588   5.457  48.911  1.00  0.00     0.031 A 
HETATM   16  C10 UNL     1      25.707   4.940  49.566  1.00  0.00     0.029 A 
HETATM   17  C18 UNL     1      25.546   3.779  50.291  1.00  0.00     0.046 A 
BRANCH  16  18
HETATM   18  N4  UNL     1      26.967   5.599  49.481  1.00  0.00    -0.386 N 
HETATM   19  H9  UNL     1      27.668   5.431  50.235  1.00  0.00     0.160 HD
BRANCH  18  20
HETATM   20  C11 UNL     1      27.237   6.477  48.360  1.00  0.00     0.158 C 
BRANCH  20  21
HETATM   21  C12 UNL     1      28.639   6.434  47.910  1.00  0.00    -0.041 A 
HETATM   22  C13 UNL     1      29.525   5.435  48.190  1.00  0.00     0.010 A 
HETATM   23  C14 UNL     1      30.825   5.529  47.696  1.00  0.00     0.024 A 
HETATM   24  C15 UNL     1      31.260   6.592  46.930  1.00  0.00     0.034 A 
HETATM   25 CL2  UNL     1      32.916   6.634  46.346  1.00  0.00    -0.084 Cl
HETATM   26  C16 UNL     1      30.366   7.603  46.646  1.00  0.00     0.024 A 
HETATM   27  C17 UNL     1      29.088   7.491  47.144  1.00  0.00     0.010 A 
ENDBRANCH  20  21
ENDBRANCH  18  20
ENDBRANCH  16  18
ENDBRANCH   6   8
ENDBRANCH   5   6
ENDBRANCH   3   4
TORSDOF 6
ENDMDL
