MODEL 1
REMARK VINA RESULT:      -8.3      0.000      0.000
REMARK  4 active torsions:
REMARK  status: ('A' for Active; 'I' for Inactive)
REMARK    1  A    between atoms: C2_2  and  C3_3 
REMARK    2  A    between atoms: C4_4  and  C5_5 
REMARK    3  A    between atoms: C14_15  and  C15_16 
REMARK    4  A    between atoms: C22_26  and  N4_28 
ROOT
HETATM    1  C5  UNL     1      21.823   1.334  51.492  1.00  0.00     0.048 C 
HETATM    2  C6  UNL     1      21.180   0.199  50.701  1.00  0.00     0.028 C 
HETATM    3  C7  UNL     1      23.176   1.075  51.912  1.00  0.00     0.021 C 
HETATM    4  C8  UNL     1      24.482   1.247  51.980  1.00  0.00     0.035 A 
HETATM    5  C9  UNL     1      25.202   0.319  52.839  1.00  0.00     0.029 A 
HETATM    6  C10 UNL     1      26.495   0.278  53.066  1.00  0.00     0.004 A 
HETATM    7  C11 UNL     1      27.271   1.287  52.368  1.00  0.00     0.018 A 
HETATM    8  C12 UNL     1      26.680   2.163  51.570  1.00  0.00     0.096 A 
HETATM    9  N1  UNL     1      25.259   2.225  51.307  1.00  0.00    -0.331 N 
HETATM   10  C13 UNL     1      25.121   3.314  50.407  1.00  0.00     0.129 C 
HETATM   11  C14 UNL     1      24.686   4.552  50.482  1.00  0.00     0.084 C 
HETATM   12  N2  UNL     1      24.250   4.822  51.805  1.00  0.00    -0.242 NA
HETATM   13  C21 UNL     1      23.045   4.401  52.106  1.00  0.00     0.205 C 
HETATM   14  N3  UNL     1      22.066   3.712  51.348  1.00  0.00    -0.350 N 
HETATM   15  C22 UNL     1      21.649   2.571  50.612  1.00  0.00     0.238 C 
HETATM   16  C23 UNL     1      20.143   2.694  50.348  1.00  0.00     0.075 C 
HETATM   17  H20 UNL     1      21.378   4.523  51.428  1.00  0.00     0.162 HD
ENDROOT
BRANCH  11  18
HETATM   18  C15 UNL     1      24.635   5.516  49.405  1.00  0.00    -0.006 A 
HETATM   19  C16 UNL     1      25.844   6.145  49.109  1.00  0.00     0.017 A 
HETATM   20  C17 UNL     1      25.765   7.072  48.063  1.00  0.00     0.043 A 
HETATM   21  C18 UNL     1      24.637   7.370  47.366  1.00  0.00     0.116 A 
HETATM   22  F1  UNL     1      24.677   8.290  46.368  1.00  0.00    -0.206 F 
HETATM   23  C19 UNL     1      23.475   6.735  47.685  1.00  0.00     0.043 A 
HETATM   24  C20 UNL     1      23.485   5.803  48.713  1.00  0.00     0.017 A 
ENDBRANCH  11  18
BRANCH  15  25
HETATM   25  N4  UNL     1      22.268   2.471  49.333  1.00  0.00     0.108 N 
HETATM   26  H24 UNL     1      22.201   1.491  48.987  1.00  0.00     0.316 HD
HETATM   27  H25 UNL     1      23.301   2.670  49.352  1.00  0.00     0.316 HD
ENDBRANCH  15  25
BRANCH   1  28
HETATM   28  C4  UNL     1      20.918   1.610  52.670  1.00  0.00    -0.009 C 
HETATM   29  C3  UNL     1      20.635   0.900  53.755  1.00  0.00    -0.004 C 
BRANCH  29  30
HETATM   30  C2  UNL     1      21.014  -0.381  54.312  1.00  0.00    -0.011 C 
HETATM   31  C1  UNL     1      22.093  -0.942  54.878  1.00  0.00     0.011 C 
ENDBRANCH  29  30
ENDBRANCH   1  28
TORSDOF 4
ENDMDL
MODEL 2
REMARK VINA RESULT:      -8.3      2.121      5.013
REMARK  4 active torsions:
REMARK  status: ('A' for Active; 'I' for Inactive)
REMARK    1  A    between atoms: C2_2  and  C3_3 
REMARK    2  A    between atoms: C4_4  and  C5_5 
REMARK    3  A    between atoms: C14_15  and  C15_16 
REMARK    4  A    between atoms: C22_26  and  N4_28 
ROOT
HETATM    1  C5  UNL     1      25.568   0.582  53.354  1.00  0.00     0.048 C 
HETATM    2  C6  UNL     1      26.382   0.662  54.642  1.00  0.00     0.028 C 
HETATM    3  C7  UNL     1      24.216   0.119  53.532  1.00  0.00     0.021 C 
HETATM    4  C8  UNL     1      22.898   0.177  53.515  1.00  0.00     0.035 A 
HETATM    5  C9  UNL     1      22.202  -1.021  53.960  1.00  0.00     0.029 A 
HETATM    6  C10 UNL     1      20.905  -1.209  54.043  1.00  0.00     0.004 A 
HETATM    7  C11 UNL     1      20.096  -0.073  53.636  1.00  0.00     0.018 A 
HETATM    8  C12 UNL     1      20.663   1.048  53.221  1.00  0.00     0.096 A 
HETATM    9  N1  UNL     1      22.089   1.275  53.123  1.00  0.00    -0.331 N 
HETATM   10  C13 UNL     1      22.195   2.604  52.636  1.00  0.00     0.129 C 
HETATM   11  C14 UNL     1      22.500   3.167  51.488  1.00  0.00     0.084 C 
HETATM   12  N2  UNL     1      22.796   2.163  50.530  1.00  0.00    -0.242 NA
HETATM   13  C21 UNL     1      24.006   1.662  50.583  1.00  0.00     0.205 C 
HETATM   14  N3  UNL     1      25.108   1.936  51.433  1.00  0.00    -0.350 N 
HETATM   15  C22 UNL     1      25.694   1.969  52.726  1.00  0.00     0.238 C 
HETATM   16  C23 UNL     1      27.198   2.226  52.565  1.00  0.00     0.075 C 
HETATM   17  H20 UNL     1      25.705   2.270  50.614  1.00  0.00     0.162 HD
ENDROOT
BRANCH  11  18
HETATM   18  C15 UNL     1      22.547   4.586  51.208  1.00  0.00    -0.006 A 
HETATM   19  C16 UNL     1      21.315   5.183  50.944  1.00  0.00     0.017 A 
HETATM   20  C17 UNL     1      21.391   6.555  50.677  1.00  0.00     0.043 A 
HETATM   21  C18 UNL     1      22.536   7.287  50.663  1.00  0.00     0.116 A 
HETATM   22  F1  UNL     1      22.491   8.617  50.390  1.00  0.00    -0.206 F 
HETATM   23  C19 UNL     1      23.720   6.667  50.927  1.00  0.00     0.043 A 
HETATM   24  C20 UNL     1      23.715   5.307  51.200  1.00  0.00     0.017 A 
ENDBRANCH  11  18
BRANCH  15  25
HETATM   25  N4  UNL     1      25.197   3.028  53.540  1.00  0.00     0.108 N 
HETATM   26  H24 UNL     1      25.317   3.936  53.044  1.00  0.00     0.316 HD
HETATM   27  H25 UNL     1      25.730   3.151  54.438  1.00  0.00     0.316 HD
ENDBRANCH  15  25
BRANCH   1  28
HETATM   28  C4  UNL     1      26.340  -0.305  52.406  1.00  0.00    -0.009 C 
HETATM   29  C3  UNL     1      27.505  -0.928  52.527  1.00  0.00    -0.004 C 
BRANCH  29  30
HETATM   30  C2  UNL     1      28.535  -1.064  53.535  1.00  0.00    -0.011 C 
HETATM   31  C1  UNL     1      29.868  -0.936  53.622  1.00  0.00     0.011 C 
ENDBRANCH  29  30
ENDBRANCH   1  28
TORSDOF 4
ENDMDL
MODEL 3
REMARK VINA RESULT:      -8.2      3.452      6.672
REMARK  4 active torsions:
REMARK  status: ('A' for Active; 'I' for Inactive)
REMARK    1  A    between atoms: C2_2  and  C3_3 
REMARK    2  A    between atoms: C4_4  and  C5_5 
REMARK    3  A    between atoms: C14_15  and  C15_16 
REMARK    4  A    between atoms: C22_26  and  N4_28 
ROOT
HETATM    1  C5  UNL     1      23.898   3.110  50.897  1.00  0.00     0.048 C 
HETATM    2  C6  UNL     1      23.660   3.022  49.392  1.00  0.00     0.028 C 
HETATM    3  C7  UNL     1      22.992   2.319  51.689  1.00  0.00     0.021 C 
HETATM    4  C8  UNL     1      22.619   1.371  52.528  1.00  0.00     0.035 A 
HETATM    5  C9  UNL     1      21.194   1.300  52.816  1.00  0.00     0.029 A 
HETATM    6  C10 UNL     1      20.578   0.448  53.604  1.00  0.00     0.004 A 
HETATM    7  C11 UNL     1      21.444  -0.523  54.249  1.00  0.00     0.018 A 
HETATM    8  C12 UNL     1      22.750  -0.516  54.032  1.00  0.00     0.096 A 
HETATM    9  N1  UNL     1      23.446   0.412  53.169  1.00  0.00    -0.331 N 
HETATM   10  C13 UNL     1      24.807   0.020  53.265  1.00  0.00     0.129 C 
HETATM   11  C14 UNL     1      25.884   0.488  53.856  1.00  0.00     0.084 C 
HETATM   12  N2  UNL     1      25.565   1.683  54.550  1.00  0.00    -0.242 NA
HETATM   13  C21 UNL     1      25.517   2.772  53.820  1.00  0.00     0.205 C 
HETATM   14  N3  UNL     1      25.729   2.994  52.437  1.00  0.00    -0.350 N 
HETATM   15  C22 UNL     1      25.376   2.768  51.079  1.00  0.00     0.238 C 
HETATM   16  C23 UNL     1      26.151   3.766  50.209  1.00  0.00     0.075 C 
HETATM   17  H20 UNL     1      26.564   3.629  52.628  1.00  0.00     0.162 HD
ENDROOT
BRANCH  11  18
HETATM   18  C15 UNL     1      27.209  -0.092  53.819  1.00  0.00    -0.006 A 
HETATM   19  C16 UNL     1      28.170   0.563  54.589  1.00  0.00     0.017 A 
HETATM   20  C17 UNL     1      29.441  -0.020  54.535  1.00  0.00     0.043 A 
HETATM   21  C18 UNL     1      29.764  -1.125  53.813  1.00  0.00     0.116 A 
HETATM   22  F1  UNL     1      31.035  -1.605  53.836  1.00  0.00    -0.206 F 
HETATM   23  C19 UNL     1      28.798  -1.738  53.074  1.00  0.00     0.043 A 
HETATM   24  C20 UNL     1      27.515  -1.210  53.084  1.00  0.00     0.017 A 
ENDBRANCH  11  18
BRANCH  15  25
HETATM   25  N4  UNL     1      25.739   1.472  50.614  1.00  0.00     0.108 N 
HETATM   26  H24 UNL     1      26.692   1.505  50.194  1.00  0.00     0.316 HD
HETATM   27  H25 UNL     1      25.126   1.119  49.835  1.00  0.00     0.316 HD
ENDBRANCH  15  25
BRANCH   1  28
HETATM   28  C4  UNL     1      23.827   4.573  51.264  1.00  0.00    -0.009 C 
HETATM   29  C3  UNL     1      22.832   5.450  51.218  1.00  0.00    -0.004 C 
BRANCH  29  30
HETATM   30  C2  UNL     1      21.438   5.453  50.829  1.00  0.00    -0.011 C 
HETATM   31  C1  UNL     1      20.364   4.660  50.966  1.00  0.00     0.011 C 
ENDBRANCH  29  30
ENDBRANCH   1  28
TORSDOF 4
ENDMDL
MODEL 4
REMARK VINA RESULT:      -8.1      3.433      6.776
REMARK  4 active torsions:
REMARK  status: ('A' for Active; 'I' for Inactive)
REMARK    1  A    between atoms: C2_2  and  C3_3 
REMARK    2  A    between atoms: C4_4  and  C5_5 
REMARK    3  A    between atoms: C14_15  and  C15_16 
REMARK    4  A    between atoms: C22_26  and  N4_28 
ROOT
HETATM    1  C5  UNL     1      22.808   4.120  51.081  1.00  0.00     0.048 C 
HETATM    2  C6  UNL     1      22.846   5.430  51.862  1.00  0.00     0.028 C 
HETATM    3  C7  UNL     1      23.659   3.086  51.610  1.00  0.00     0.021 C 
HETATM    4  C8  UNL     1      23.968   1.923  52.151  1.00  0.00     0.035 A 
HETATM    5  C9  UNL     1      25.386   1.681  52.374  1.00  0.00     0.029 A 
HETATM    6  C10 UNL     1      25.942   0.614  52.901  1.00  0.00     0.004 A 
HETATM    7  C11 UNL     1      25.012  -0.428  53.297  1.00  0.00     0.018 A 
HETATM    8  C12 UNL     1      23.708  -0.274  53.124  1.00  0.00     0.096 A 
HETATM    9  N1  UNL     1      23.076   0.892  52.546  1.00  0.00    -0.331 N 
HETATM   10  C13 UNL     1      21.691   0.584  52.574  1.00  0.00     0.129 C 
HETATM   11  C14 UNL     1      20.784   0.233  51.690  1.00  0.00     0.084 C 
HETATM   12  N2  UNL     1      21.376   0.164  50.403  1.00  0.00    -0.242 NA
HETATM   13  C21 UNL     1      21.516   1.307  49.776  1.00  0.00     0.205 C 
HETATM   14  N3  UNL     1      21.180   2.635  50.143  1.00  0.00    -0.350 N 
HETATM   15  C22 UNL     1      21.326   3.755  51.003  1.00  0.00     0.238 C 
HETATM   16  C23 UNL     1      20.628   4.955  50.352  1.00  0.00     0.075 C 
HETATM   17  H20 UNL     1      20.490   2.724  49.334  1.00  0.00     0.162 HD
ENDROOT
BRANCH  11  18
HETATM   18  C15 UNL     1      19.387  -0.039  51.949  1.00  0.00    -0.006 A 
HETATM   19  C16 UNL     1      19.130  -0.841  53.060  1.00  0.00     0.017 A 
HETATM   20  C17 UNL     1      17.771  -1.088  53.286  1.00  0.00     0.043 A 
HETATM   21  C18 UNL     1      16.753  -0.614  52.521  1.00  0.00     0.116 A 
HETATM   22  F1  UNL     1      15.467  -0.919  52.834  1.00  0.00    -0.206 F 
HETATM   23  C19 UNL     1      17.043   0.167  51.443  1.00  0.00     0.043 A 
HETATM   24  C20 UNL     1      18.373   0.450  51.163  1.00  0.00     0.017 A 
ENDBRANCH  11  18
BRANCH  15  25
HETATM   25  N4  UNL     1      20.701   3.573  52.271  1.00  0.00     0.108 N 
HETATM   26  H24 UNL     1      19.844   2.991  52.158  1.00  0.00     0.316 HD
HETATM   27  H25 UNL     1      20.351   4.469  52.697  1.00  0.00     0.316 HD
ENDBRANCH  15  25
BRANCH   1  28
HETATM   28  C4  UNL     1      23.162   4.455  49.651  1.00  0.00    -0.009 C 
HETATM   29  C3  UNL     1      24.330   4.644  49.050  1.00  0.00    -0.004 C 
BRANCH  29  30
HETATM   30  C2  UNL     1      25.729   4.626  49.421  1.00  0.00    -0.011 C 
HETATM   31  C1  UNL     1      26.749   3.754  49.422  1.00  0.00     0.011 C 
ENDBRANCH  29  30
ENDBRANCH   1  28
TORSDOF 4
ENDMDL
MODEL 5
REMARK VINA RESULT:      -8.1      2.838      6.367
REMARK  4 active torsions:
REMARK  status: ('A' for Active; 'I' for Inactive)
REMARK    1  A    between atoms: C2_2  and  C3_3 
REMARK    2  A    between atoms: C4_4  and  C5_5 
REMARK    3  A    between atoms: C14_15  and  C15_16 
REMARK    4  A    between atoms: C22_26  and  N4_28 
ROOT
HETATM    1  C5  UNL     1      23.211   4.827  49.808  1.00  0.00     0.048 C 
HETATM    2  C6  UNL     1      23.407   5.128  48.326  1.00  0.00     0.028 C 
HETATM    3  C7  UNL     1      22.226   3.814  50.084  1.00  0.00     0.021 C 
HETATM    4  C8  UNL     1      21.755   2.661  50.523  1.00  0.00     0.035 A 
HETATM    5  C9  UNL     1      20.325   2.451  50.351  1.00  0.00     0.029 A 
HETATM    6  C10 UNL     1      19.626   1.393  50.694  1.00  0.00     0.004 A 
HETATM    7  C11 UNL     1      20.392   0.328  51.315  1.00  0.00     0.018 A 
HETATM    8  C12 UNL     1      21.697   0.453  51.502  1.00  0.00     0.096 A 
HETATM    9  N1  UNL     1      22.485   1.607  51.131  1.00  0.00    -0.331 N 
HETATM   10  C13 UNL     1      23.805   1.268  51.529  1.00  0.00     0.129 C 
HETATM   11  C14 UNL     1      24.614   1.613  52.506  1.00  0.00     0.084 C 
HETATM   12  N2  UNL     1      23.975   2.566  53.339  1.00  0.00    -0.242 NA
HETATM   13  C21 UNL     1      23.996   3.805  52.910  1.00  0.00     0.205 C 
HETATM   14  N3  UNL     1      24.551   4.394  51.746  1.00  0.00    -0.350 N 
HETATM   15  C22 UNL     1      24.613   4.519  50.332  1.00  0.00     0.238 C 
HETATM   16  C23 UNL     1      25.470   5.746  49.995  1.00  0.00     0.075 C 
HETATM   17  H20 UNL     1      25.218   4.996  52.322  1.00  0.00     0.162 HD
ENDROOT
BRANCH  11  18
HETATM   18  C15 UNL     1      25.959   1.125  52.725  1.00  0.00    -0.006 A 
HETATM   19  C16 UNL     1      26.121  -0.254  52.606  1.00  0.00     0.017 A 
HETATM   20  C17 UNL     1      27.431  -0.697  52.823  1.00  0.00     0.043 A 
HETATM   21  C18 UNL     1      28.486   0.103  53.127  1.00  0.00     0.116 A 
HETATM   22  F1  UNL     1      29.718  -0.437  53.317  1.00  0.00    -0.206 F 
HETATM   23  C19 UNL     1      28.288   1.447  53.234  1.00  0.00     0.043 A 
HETATM   24  C20 UNL     1      27.012   1.951  53.031  1.00  0.00     0.017 A 
ENDBRANCH  11  18
BRANCH  15  25
HETATM   25  N4  UNL     1      25.244   3.409  49.700  1.00  0.00     0.108 N 
HETATM   26  H24 UNL     1      25.304   3.579  48.673  1.00  0.00     0.316 HD
HETATM   27  H25 UNL     1      24.699   2.514  49.783  1.00  0.00     0.316 HD
ENDBRANCH  15  25
BRANCH   1  28
HETATM   28  C4  UNL     1      22.865   6.137  50.476  1.00  0.00    -0.009 C 
HETATM   29  C3  UNL     1      21.806   6.930  50.375  1.00  0.00    -0.004 C 
BRANCH  29  30
HETATM   30  C2  UNL     1      20.559   6.944  49.642  1.00  0.00    -0.011 C 
HETATM   31  C1  UNL     1      19.491   6.149  49.475  1.00  0.00     0.011 C 
ENDBRANCH  29  30
ENDBRANCH   1  28
TORSDOF 4
ENDMDL
MODEL 6
REMARK VINA RESULT:      -7.9      6.906     11.064
REMARK  4 active torsions:
REMARK  status: ('A' for Active; 'I' for Inactive)
REMARK    1  A    between atoms: C2_2  and  C3_3 
REMARK    2  A    between atoms: C4_4  and  C5_5 
REMARK    3  A    between atoms: C14_15  and  C15_16 
REMARK    4  A    between atoms: C22_26  and  N4_28 
ROOT
HETATM    1  C5  UNL     1      30.481  10.170  47.544  1.00  0.00     0.048 C 
HETATM    2  C6  UNL     1      30.256  11.045  46.315  1.00  0.00     0.028 C 
HETATM    3  C7  UNL     1      29.341   9.378  47.928  1.00  0.00     0.021 C 
HETATM    4  C8  UNL     1      28.644   8.282  48.162  1.00  0.00     0.035 A 
HETATM    5  C9  UNL     1      27.280   8.483  48.628  1.00  0.00     0.029 A 
HETATM    6  C10 UNL     1      26.391   7.561  48.919  1.00  0.00     0.004 A 
HETATM    7  C11 UNL     1      26.849   6.194  48.750  1.00  0.00     0.018 A 
HETATM    8  C12 UNL     1      28.078   5.939  48.329  1.00  0.00     0.096 A 
HETATM    9  N1  UNL     1      29.071   6.938  48.003  1.00  0.00    -0.331 N 
HETATM   10  C13 UNL     1      30.207   6.182  47.609  1.00  0.00     0.129 C 
HETATM   11  C14 UNL     1      31.368   5.877  48.143  1.00  0.00     0.084 C 
HETATM   12  N2  UNL     1      31.476   6.477  49.424  1.00  0.00    -0.242 NA
HETATM   13  C21 UNL     1      31.825   7.741  49.435  1.00  0.00     0.205 C 
HETATM   14  N3  UNL     1      32.127   8.648  48.389  1.00  0.00    -0.350 N 
HETATM   15  C22 UNL     1      31.743   9.368  47.226  1.00  0.00     0.238 C 
HETATM   16  C23 UNL     1      32.834  10.400  46.918  1.00  0.00     0.075 C 
HETATM   17  H20 UNL     1      33.128   8.774  48.735  1.00  0.00     0.162 HD
ENDROOT
BRANCH  11  18
HETATM   18  C15 UNL     1      32.406   5.066  47.545  1.00  0.00    -0.006 A 
HETATM   19  C16 UNL     1      31.988   3.831  47.050  1.00  0.00     0.017 A 
HETATM   20  C17 UNL     1      33.013   3.068  46.478  1.00  0.00     0.043 A 
HETATM   21  C18 UNL     1      34.314   3.449  46.388  1.00  0.00     0.116 A 
HETATM   22  F1  UNL     1      35.226   2.625  45.810  1.00  0.00    -0.206 F 
HETATM   23  C19 UNL     1      34.684   4.663  46.883  1.00  0.00     0.043 A 
HETATM   24  C20 UNL     1      33.715   5.469  47.464  1.00  0.00     0.017 A 
ENDBRANCH  11  18
BRANCH  15  25
HETATM   25  N4  UNL     1      31.637   8.545  46.068  1.00  0.00     0.108 N 
HETATM   26  H24 UNL     1      32.576   8.436  45.630  1.00  0.00     0.316 HD
HETATM   27  H25 UNL     1      31.044   8.967  45.308  1.00  0.00     0.316 HD
ENDBRANCH  15  25
BRANCH   1  28
HETATM   28  C4  UNL     1      30.921  11.090  48.659  1.00  0.00    -0.009 C 
HETATM   29  C3  UNL     1      30.361  12.170  49.188  1.00  0.00    -0.004 C 
BRANCH  29  30
HETATM   30  C2  UNL     1      29.156  12.946  48.987  1.00  0.00    -0.011 C 
HETATM   31  C1  UNL     1      27.887  12.735  48.602  1.00  0.00     0.011 C 
ENDBRANCH  29  30
ENDBRANCH   1  28
TORSDOF 4
ENDMDL
MODEL 7
REMARK VINA RESULT:      -7.9      2.717      5.686
REMARK  4 active torsions:
REMARK  status: ('A' for Active; 'I' for Inactive)
REMARK    1  A    between atoms: C2_2  and  C3_3 
REMARK    2  A    between atoms: C4_4  and  C5_5 
REMARK    3  A    between atoms: C14_15  and  C15_16 
REMARK    4  A    between atoms: C22_26  and  N4_28 
ROOT
HETATM    1  C5  UNL     1      26.064   1.483  52.229  1.00  0.00     0.048 C 
HETATM    2  C6  UNL     1      26.534   0.101  51.785  1.00  0.00     0.028 C 
HETATM    3  C7  UNL     1      26.288   2.527  51.263  1.00  0.00     0.021 C 
HETATM    4  C8  UNL     1      25.972   3.482  50.409  1.00  0.00     0.035 A 
HETATM    5  C9  UNL     1      27.089   4.139  49.747  1.00  0.00     0.029 A 
HETATM    6  C10 UNL     1      27.037   5.105  48.858  1.00  0.00     0.004 A 
HETATM    7  C11 UNL     1      25.698   5.549  48.516  1.00  0.00     0.018 A 
HETATM    8  C12 UNL     1      24.636   4.995  49.080  1.00  0.00     0.096 A 
HETATM    9  N1  UNL     1      24.672   3.931  50.060  1.00  0.00    -0.331 N 
HETATM   10  C13 UNL     1      23.305   3.686  50.354  1.00  0.00     0.129 C 
HETATM   11  C14 UNL     1      22.494   3.946  51.355  1.00  0.00     0.084 C 
HETATM   12  N2  UNL     1      23.202   4.637  52.373  1.00  0.00    -0.242 NA
HETATM   13  C21 UNL     1      23.921   3.890  53.176  1.00  0.00     0.205 C 
HETATM   14  N3  UNL     1      24.134   2.490  53.228  1.00  0.00    -0.350 N 
HETATM   15  C22 UNL     1      24.605   1.287  52.637  1.00  0.00     0.238 C 
HETATM   16  C23 UNL     1      24.609   0.192  53.712  1.00  0.00     0.075 C 
HETATM   17  H20 UNL     1      23.692   2.420  54.197  1.00  0.00     0.162 HD
ENDROOT
BRANCH  11  18
HETATM   18  C15 UNL     1      21.094   3.592  51.447  1.00  0.00    -0.006 A 
HETATM   19  C16 UNL     1      20.208   4.513  50.889  1.00  0.00     0.017 A 
HETATM   20  C17 UNL     1      18.861   4.144  50.992  1.00  0.00     0.043 A 
HETATM   21  C18 UNL     1      18.405   3.004  51.573  1.00  0.00     0.116 A 
HETATM   22  F1  UNL     1      17.072   2.748  51.616  1.00  0.00    -0.206 F 
HETATM   23  C19 UNL     1      19.302   2.129  52.107  1.00  0.00     0.043 A 
HETATM   24  C20 UNL     1      20.654   2.435  52.038  1.00  0.00     0.017 A 
ENDBRANCH  11  18
BRANCH  15  25
HETATM   25  N4  UNL     1      23.763   0.810  51.590  1.00  0.00     0.108 N 
HETATM   26  H24 UNL     1      24.068   1.221  50.683  1.00  0.00     0.316 HD
HETATM   27  H25 UNL     1      22.761   1.113  51.689  1.00  0.00     0.316 HD
ENDBRANCH  15  25
BRANCH   1  28
HETATM   28  C4  UNL     1      26.758   1.779  53.538  1.00  0.00    -0.009 C 
HETATM   29  C3  UNL     1      27.986   1.517  53.968  1.00  0.00    -0.004 C 
BRANCH  29  30
HETATM   30  C2  UNL     1      29.176   0.876  53.452  1.00  0.00    -0.011 C 
HETATM   31  C1  UNL     1      29.792  -0.312  53.554  1.00  0.00     0.011 C 
ENDBRANCH  29  30
ENDBRANCH   1  28
TORSDOF 4
ENDMDL
MODEL 8
REMARK VINA RESULT:      -7.8      2.750      5.711
REMARK  4 active torsions:
REMARK  status: ('A' for Active; 'I' for Inactive)
REMARK    1  A    between atoms: C2_2  and  C3_3 
REMARK    2  A    between atoms: C4_4  and  C5_5 
REMARK    3  A    between atoms: C14_15  and  C15_16 
REMARK    4  A    between atoms: C22_26  and  N4_28 
ROOT
HETATM    1  C5  UNL     1      23.963   2.409  52.414  1.00  0.00     0.048 C 
HETATM    2  C6  UNL     1      24.531   3.419  53.406  1.00  0.00     0.028 C 
HETATM    3  C7  UNL     1      23.340   1.263  53.024  1.00  0.00     0.021 C 
HETATM    4  C8  UNL     1      22.365   0.429  53.333  1.00  0.00     0.035 A 
HETATM    5  C9  UNL     1      22.735  -0.697  54.178  1.00  0.00     0.029 A 
HETATM    6  C10 UNL     1      21.952  -1.652  54.627  1.00  0.00     0.004 A 
HETATM    7  C11 UNL     1      20.564  -1.548  54.216  1.00  0.00     0.018 A 
HETATM    8  C12 UNL     1      20.158  -0.549  53.447  1.00  0.00     0.096 A 
HETATM    9  N1  UNL     1      21.003   0.512  52.944  1.00  0.00    -0.331 N 
HETATM   10  C13 UNL     1      20.123   1.324  52.183  1.00  0.00     0.129 C 
HETATM   11  C14 UNL     1      19.898   1.532  50.904  1.00  0.00     0.084 C 
HETATM   12  N2  UNL     1      20.779   0.734  50.130  1.00  0.00    -0.242 NA
HETATM   13  C21 UNL     1      21.991   1.209  49.974  1.00  0.00     0.205 C 
HETATM   14  N3  UNL     1      22.609   2.397  50.438  1.00  0.00    -0.350 N 
HETATM   15  C22 UNL     1      23.050   3.228  51.503  1.00  0.00     0.238 C 
HETATM   16  C23 UNL     1      23.927   4.340  50.913  1.00  0.00     0.075 C 
HETATM   17  H20 UNL     1      22.766   2.749  49.443  1.00  0.00     0.162 HD
ENDROOT
BRANCH  11  18
HETATM   18  C15 UNL     1      18.919   2.434  50.335  1.00  0.00    -0.006 A 
HETATM   19  C16 UNL     1      18.493   3.460  51.177  1.00  0.00     0.017 A 
HETATM   20  C17 UNL     1      17.547   4.317  50.601  1.00  0.00     0.043 A 
HETATM   21  C18 UNL     1      17.056   4.202  49.339  1.00  0.00     0.116 A 
HETATM   22  F1  UNL     1      16.138   5.093  48.883  1.00  0.00    -0.206 F 
HETATM   23  C19 UNL     1      17.497   3.186  48.546  1.00  0.00     0.043 A 
HETATM   24  C20 UNL     1      18.436   2.301  49.058  1.00  0.00     0.017 A 
ENDBRANCH  11  18
BRANCH  15  25
HETATM   25  N4  UNL     1      21.982   3.883  52.180  1.00  0.00     0.108 N 
HETATM   26  H24 UNL     1      22.111   4.915  52.121  1.00  0.00     0.316 HD
HETATM   27  H25 UNL     1      21.957   3.685  53.213  1.00  0.00     0.316 HD
ENDBRANCH  15  25
BRANCH   1  28
HETATM   28  C4  UNL     1      25.100   2.007  51.503  1.00  0.00    -0.009 C 
HETATM   29  C3  UNL     1      26.072   1.115  51.643  1.00  0.00    -0.004 C 
BRANCH  29  30
HETATM   30  C2  UNL     1      26.501   0.162  52.643  1.00  0.00    -0.011 C 
HETATM   31  C1  UNL     1      27.160  -1.007  52.690  1.00  0.00     0.011 C 
ENDBRANCH  29  30
ENDBRANCH   1  28
TORSDOF 4
ENDMDL
MODEL 9
REMARK VINA RESULT:      -7.7      2.680      4.302
REMARK  4 active torsions:
REMARK  status: ('A' for Active; 'I' for Inactive)
REMARK    1  A    between atoms: C2_2  and  C3_3 
REMARK    2  A    between atoms: C4_4  and  C5_5 
REMARK    3  A    between atoms: C14_15  and  C15_16 
REMARK    4  A    between atoms: C22_26  and  N4_28 
ROOT
HETATM    1  C5  UNL     1      23.568   3.206  50.920  1.00  0.00     0.048 C 
HETATM    2  C6  UNL     1      22.996   1.938  50.295  1.00  0.00     0.028 C 
HETATM    3  C7  UNL     1      24.749   3.711  50.267  1.00  0.00     0.021 C 
HETATM    4  C8  UNL     1      25.495   4.566  49.593  1.00  0.00     0.035 A 
HETATM    5  C9  UNL     1      26.864   4.147  49.332  1.00  0.00     0.029 A 
HETATM    6  C10 UNL     1      27.792   4.810  48.681  1.00  0.00     0.004 A 
HETATM    7  C11 UNL     1      27.378   6.106  48.175  1.00  0.00     0.018 A 
HETATM    8  C12 UNL     1      26.146   6.549  48.376  1.00  0.00     0.096 A 
HETATM    9  N1  UNL     1      25.110   5.836  49.090  1.00  0.00    -0.331 N 
HETATM   10  C13 UNL     1      23.991   6.708  49.038  1.00  0.00     0.129 C 
HETATM   11  C14 UNL     1      23.375   7.503  49.883  1.00  0.00     0.084 C 
HETATM   12  N2  UNL     1      24.013   7.438  51.149  1.00  0.00    -0.242 NA
HETATM   13  C21 UNL     1      23.685   6.416  51.902  1.00  0.00     0.205 C 
HETATM   14  N3  UNL     1      22.792   5.336  51.694  1.00  0.00    -0.350 N 
HETATM   15  C22 UNL     1      22.393   4.182  50.967  1.00  0.00     0.238 C 
HETATM   16  C23 UNL     1      21.287   3.474  51.758  1.00  0.00     0.075 C 
HETATM   17  H20 UNL     1      22.177   5.635  52.514  1.00  0.00     0.162 HD
ENDROOT
BRANCH  11  18
HETATM   18  C15 UNL     1      22.217   8.326  49.607  1.00  0.00    -0.006 A 
HETATM   19  C16 UNL     1      22.425   9.365  48.700  1.00  0.00     0.017 A 
HETATM   20  C17 UNL     1      21.289  10.143  48.452  1.00  0.00     0.043 A 
HETATM   21  C18 UNL     1      20.069   9.948  49.018  1.00  0.00     0.116 A 
HETATM   22  F1  UNL     1      19.033  10.768  48.702  1.00  0.00    -0.206 F 
HETATM   23  C19 UNL     1      19.905   8.922  49.899  1.00  0.00     0.043 A 
HETATM   24  C20 UNL     1      20.993   8.112  50.189  1.00  0.00     0.017 A 
ENDBRANCH  11  18
BRANCH  15  25
HETATM   25  N4  UNL     1      21.835   4.488  49.693  1.00  0.00     0.108 N 
HETATM   26  H24 UNL     1      20.962   5.043  49.817  1.00  0.00     0.316 HD
HETATM   27  H25 UNL     1      21.526   3.638  49.156  1.00  0.00     0.316 HD
ENDBRANCH  15  25
BRANCH   1  28
HETATM   28  C4  UNL     1      23.827   2.896  52.376  1.00  0.00    -0.009 C 
HETATM   29  C3  UNL     1      24.633   2.022  52.965  1.00  0.00    -0.004 C 
BRANCH  29  30
HETATM   30  C2  UNL     1      25.587   1.016  52.553  1.00  0.00    -0.011 C 
HETATM   31  C1  UNL     1      26.551   0.873  51.630  1.00  0.00     0.011 C 
ENDBRANCH  29  30
ENDBRANCH   1  28
TORSDOF 4
ENDMDL
