MODEL 1
REMARK VINA RESULT:      -8.2      0.000      0.000
REMARK  4 active torsions:
REMARK  status: ('A' for Active; 'I' for Inactive)
REMARK    1  A    between atoms: N1_1  and  C1_2 
REMARK    2  A    between atoms: C2_3  and  C3_4 
REMARK    3  A    between atoms: C13_17  and  C14_18 
REMARK    4  A    between atoms: C13_17  and  C15_20 
ROOT
HETATM    1  C1  UNL     1      24.339   2.238  51.114  1.00  0.00     0.268 C 
HETATM    2  C2  UNL     1      24.562   1.964  52.569  1.00  0.00     0.095 C 
HETATM    3  C11 UNL     1      24.526   3.288  53.302  1.00  0.00     0.034 C 
HETATM    4  C12 UNL     1      23.430   4.123  52.678  1.00  0.00     0.116 C 
HETATM    5  N4  UNL     1      22.436   3.345  52.024  1.00  0.00    -0.402 N 
HETATM    6  C13 UNL     1      22.865   2.567  50.917  1.00  0.00     0.138 C 
HETATM    7  H16 UNL     1      21.490   3.717  52.021  1.00  0.00     0.154 HD
ENDROOT
BRANCH   2   8
HETATM    8  C3  UNL     1      25.847   1.279  52.842  1.00  0.00     0.132 A 
HETATM    9  N2  UNL     1      26.965   1.916  53.299  1.00  0.00    -0.244 NA
HETATM   10  C4  UNL     1      28.114   1.263  53.537  1.00  0.00     0.128 A 
HETATM   11  C5  UNL     1      28.181  -0.097  53.316  1.00  0.00    -0.011 A 
HETATM   12  C6  UNL     1      27.071  -0.743  52.860  1.00  0.00     0.066 A 
HETATM   13  C10 UNL     1      29.528  -0.674  53.628  1.00  0.00     0.046 A 
HETATM   14  N3  UNL     1      25.938  -0.050  52.634  1.00  0.00    -0.233 NA
HETATM   15  C7  UNL     1      27.187  -2.177  52.641  1.00  0.00     0.028 A 
HETATM   16  C8  UNL     1      28.345  -2.742  52.897  1.00  0.00    -0.024 A 
HETATM   17  C9  UNL     1      29.603  -2.145  53.389  1.00  0.00     0.032 A 
ENDBRANCH   2   8
BRANCH   1  18
HETATM   18  N1  UNL     1      25.129   3.380  50.689  1.00  0.00     0.086 N 
HETATM   19  H1  UNL     1      26.060   3.398  51.161  1.00  0.00     0.313 HD
HETATM   20  H2  UNL     1      24.665   4.278  50.983  1.00  0.00     0.313 HD
ENDBRANCH   1  18
BRANCH   6  21
HETATM   21  C14 UNL     1      22.153   1.243  51.009  1.00  0.00     0.269 C 
HETATM   22  O1  UNL     1      21.496   0.320  51.471  1.00  0.00    -0.304 OA
ENDBRANCH   6  21
BRANCH   6  23
HETATM   23  C15 UNL     1      22.564   3.138  49.598  1.00  0.00    -0.021 A 
HETATM   24  C16 UNL     1      22.318   4.458  49.247  1.00  0.00     0.010 A 
HETATM   25  C17 UNL     1      22.053   4.786  47.932  1.00  0.00     0.001 A 
HETATM   26  C18 UNL     1      22.019   3.855  46.929  1.00  0.00     0.000 A 
HETATM   27  C19 UNL     1      22.261   2.561  47.273  1.00  0.00     0.001 A 
HETATM   28  C20 UNL     1      22.532   2.185  48.585  1.00  0.00     0.010 A 
ENDBRANCH   6  23
TORSDOF 4
ENDMDL
MODEL 2
REMARK VINA RESULT:      -8.2      3.467      5.233
REMARK  4 active torsions:
REMARK  status: ('A' for Active; 'I' for Inactive)
REMARK    1  A    between atoms: N1_1  and  C1_2 
REMARK    2  A    between atoms: C2_3  and  C3_4 
REMARK    3  A    between atoms: C13_17  and  C14_18 
REMARK    4  A    between atoms: C13_17  and  C15_20 
ROOT
HETATM    1  C1  UNL     1      23.829   4.063  50.550  1.00  0.00     0.268 C 
HETATM    2  C2  UNL     1      22.421   4.173  51.049  1.00  0.00     0.095 C 
HETATM    3  C11 UNL     1      22.321   5.432  51.883  1.00  0.00     0.034 C 
HETATM    4  C12 UNL     1      23.142   6.500  51.194  1.00  0.00     0.116 C 
HETATM    5  N4  UNL     1      23.311   6.266  49.802  1.00  0.00    -0.402 N 
HETATM    6  C13 UNL     1      24.015   5.088  49.439  1.00  0.00     0.138 C 
HETATM    7  H16 UNL     1      23.389   7.084  49.204  1.00  0.00     0.154 HD
ENDROOT
BRANCH   2   8
HETATM    8  C3  UNL     1      21.998   3.006  51.858  1.00  0.00     0.132 A 
HETATM    9  N2  UNL     1      20.705   2.765  52.224  1.00  0.00    -0.244 NA
HETATM   10  C4  UNL     1      20.356   1.696  52.958  1.00  0.00     0.128 A 
HETATM   11  C5  UNL     1      21.327   0.803  53.362  1.00  0.00    -0.011 A 
HETATM   12  C6  UNL     1      22.621   1.034  53.001  1.00  0.00     0.066 A 
HETATM   13  C10 UNL     1      20.777  -0.331  54.171  1.00  0.00     0.046 A 
HETATM   14  N3  UNL     1      22.928   2.120  52.265  1.00  0.00    -0.233 NA
HETATM   15  C7  UNL     1      23.612   0.067  53.450  1.00  0.00     0.028 A 
HETATM   16  C8  UNL     1      23.192  -0.952  54.164  1.00  0.00    -0.024 A 
HETATM   17  C9  UNL     1      21.826  -1.298  54.610  1.00  0.00     0.032 A 
ENDBRANCH   2   8
BRANCH   1  18
HETATM   18  N1  UNL     1      24.767   4.362  51.617  1.00  0.00     0.086 N 
HETATM   19  H1  UNL     1      25.340   3.526  51.868  1.00  0.00     0.313 HD
HETATM   20  H2  UNL     1      24.253   4.607  52.502  1.00  0.00     0.313 HD
ENDBRANCH   1  18
BRANCH   6  21
HETATM   21  C14 UNL     1      23.306   4.504  48.245  1.00  0.00     0.269 C 
HETATM   22  O1  UNL     1      22.407   4.231  47.462  1.00  0.00    -0.304 OA
ENDBRANCH   6  21
BRANCH   6  23
HETATM   23  C15 UNL     1      25.419   5.292  49.060  1.00  0.00    -0.021 A 
HETATM   24  C16 UNL     1      26.483   4.402  49.116  1.00  0.00     0.010 A 
HETATM   25  C17 UNL     1      27.740   4.799  48.705  1.00  0.00     0.001 A 
HETATM   26  C18 UNL     1      28.001   6.057  48.232  1.00  0.00     0.000 A 
HETATM   27  C19 UNL     1      26.958   6.929  48.176  1.00  0.00     0.001 A 
HETATM   28  C20 UNL     1      25.676   6.573  48.579  1.00  0.00     0.010 A 
ENDBRANCH   6  23
TORSDOF 4
ENDMDL
MODEL 3
REMARK VINA RESULT:      -8.1      1.769      2.393
REMARK  4 active torsions:
REMARK  status: ('A' for Active; 'I' for Inactive)
REMARK    1  A    between atoms: N1_1  and  C1_2 
REMARK    2  A    between atoms: C2_3  and  C3_4 
REMARK    3  A    between atoms: C13_17  and  C14_18 
REMARK    4  A    between atoms: C13_17  and  C15_20 
ROOT
HETATM    1  C1  UNL     1      24.327   3.198  51.554  1.00  0.00     0.268 C 
HETATM    2  C2  UNL     1      24.355   1.726  51.826  1.00  0.00     0.095 C 
HETATM    3  C11 UNL     1      23.312   1.428  52.881  1.00  0.00     0.034 C 
HETATM    4  C12 UNL     1      22.103   2.288  52.582  1.00  0.00     0.116 C 
HETATM    5  N4  UNL     1      22.024   2.687  51.219  1.00  0.00    -0.402 N 
HETATM    6  C13 UNL     1      23.080   3.502  50.734  1.00  0.00     0.138 C 
HETATM    7  H16 UNL     1      21.093   2.813  50.831  1.00  0.00     0.154 HD
ENDROOT
BRANCH   2   8
HETATM    8  C3  UNL     1      25.678   1.244  52.285  1.00  0.00     0.132 A 
HETATM    9  N2  UNL     1      26.671   2.065  52.738  1.00  0.00    -0.244 NA
HETATM   10  C4  UNL     1      27.860   1.593  53.148  1.00  0.00     0.128 A 
HETATM   11  C5  UNL     1      28.099   0.234  53.115  1.00  0.00    -0.011 A 
HETATM   12  C6  UNL     1      27.114  -0.595  52.665  1.00  0.00     0.066 A 
HETATM   13  C10 UNL     1      29.468  -0.129  53.603  1.00  0.00     0.046 A 
HETATM   14  N3  UNL     1      25.936  -0.079  52.263  1.00  0.00    -0.233 NA
HETATM   15  C7  UNL     1      27.411  -2.019  52.648  1.00  0.00     0.028 A 
HETATM   16  C8  UNL     1      28.596  -2.402  53.065  1.00  0.00    -0.024 A 
HETATM   17  C9  UNL     1      29.729  -1.598  53.569  1.00  0.00     0.032 A 
ENDBRANCH   2   8
BRANCH   1  18
HETATM   18  N1  UNL     1      24.252   3.940  52.801  1.00  0.00     0.086 N 
HETATM   19  H1  UNL     1      24.622   4.910  52.692  1.00  0.00     0.313 HD
HETATM   20  H2  UNL     1      24.872   3.500  53.529  1.00  0.00     0.313 HD
ENDBRANCH   1  18
BRANCH   6  21
HETATM   21  C14 UNL     1      23.401   3.022  49.343  1.00  0.00     0.269 C 
HETATM   22  O1  UNL     1      23.242   2.684  48.178  1.00  0.00    -0.304 OA
ENDBRANCH   6  21
BRANCH   6  23
HETATM   23  C15 UNL     1      22.772   4.935  50.645  1.00  0.00    -0.021 A 
HETATM   24  C16 UNL     1      21.669   5.629  51.122  1.00  0.00     0.010 A 
HETATM   25  C17 UNL     1      21.574   6.993  50.931  1.00  0.00     0.001 A 
HETATM   26  C18 UNL     1      22.535   7.718  50.280  1.00  0.00     0.000 A 
HETATM   27  C19 UNL     1      23.617   7.038  49.813  1.00  0.00     0.001 A 
HETATM   28  C20 UNL     1      23.755   5.665  49.983  1.00  0.00     0.010 A 
ENDBRANCH   6  23
TORSDOF 4
ENDMDL
MODEL 4
REMARK VINA RESULT:      -7.9      2.399      7.184
REMARK  4 active torsions:
REMARK  status: ('A' for Active; 'I' for Inactive)
REMARK    1  A    between atoms: N1_1  and  C1_2 
REMARK    2  A    between atoms: C2_3  and  C3_4 
REMARK    3  A    between atoms: C13_17  and  C14_18 
REMARK    4  A    between atoms: C13_17  and  C15_20 
ROOT
HETATM    1  C1  UNL     1      24.766   1.054  52.058  1.00  0.00     0.268 C 
HETATM    2  C2  UNL     1      23.830   2.208  51.878  1.00  0.00     0.095 C 
HETATM    3  C11 UNL     1      23.713   2.923  53.208  1.00  0.00     0.034 C 
HETATM    4  C12 UNL     1      25.088   2.941  53.837  1.00  0.00     0.116 C 
HETATM    5  N4  UNL     1      26.140   2.815  52.889  1.00  0.00    -0.402 N 
HETATM    6  C13 UNL     1      26.183   1.607  52.146  1.00  0.00     0.138 C 
HETATM    7  H16 UNL     1      27.014   3.284  53.108  1.00  0.00     0.154 HD
ENDROOT
BRANCH   2   8
HETATM    8  C3  UNL     1      22.484   1.799  51.414  1.00  0.00     0.132 A 
HETATM    9  N2  UNL     1      21.975   2.114  50.187  1.00  0.00    -0.244 NA
HETATM   10  C4  UNL     1      20.749   1.726  49.798  1.00  0.00     0.128 A 
HETATM   11  C5  UNL     1      19.968   0.983  50.659  1.00  0.00    -0.011 A 
HETATM   12  C6  UNL     1      20.466   0.662  51.886  1.00  0.00     0.066 A 
HETATM   13  C10 UNL     1      18.633   0.630  50.078  1.00  0.00     0.046 A 
HETATM   14  N3  UNL     1      21.701   1.072  52.236  1.00  0.00    -0.233 NA
HETATM   15  C7  UNL     1      19.607  -0.123  52.761  1.00  0.00     0.028 A 
HETATM   16  C8  UNL     1      18.423  -0.464  52.308  1.00  0.00    -0.024 A 
HETATM   17  C9  UNL     1      17.785  -0.174  51.007  1.00  0.00     0.032 A 
ENDBRANCH   2   8
BRANCH   1  18
HETATM   18  N1  UNL     1      24.468   0.350  53.292  1.00  0.00     0.086 N 
HETATM   19  H1  UNL     1      24.151  -0.628  53.109  1.00  0.00     0.313 HD
HETATM   20  H2  UNL     1      23.658   0.803  53.788  1.00  0.00     0.313 HD
ENDBRANCH   1  18
BRANCH   6  21
HETATM   21  C14 UNL     1      26.547   1.974  50.731  1.00  0.00     0.269 C 
HETATM   22  O1  UNL     1      26.779   2.660  49.744  1.00  0.00    -0.304 OA
ENDBRANCH   6  21
BRANCH   6  23
HETATM   23  C15 UNL     1      27.168   0.622  52.611  1.00  0.00    -0.021 A 
HETATM   24  C16 UNL     1      27.161  -0.759  52.478  1.00  0.00     0.010 A 
HETATM   25  C17 UNL     1      28.198  -1.510  52.994  1.00  0.00     0.001 A 
HETATM   26  C18 UNL     1      29.263  -0.950  53.648  1.00  0.00     0.000 A 
HETATM   27  C19 UNL     1      29.271   0.404  53.778  1.00  0.00     0.001 A 
HETATM   28  C20 UNL     1      28.247   1.200  53.273  1.00  0.00     0.010 A 
ENDBRANCH   6  23
TORSDOF 4
ENDMDL
MODEL 5
REMARK VINA RESULT:      -7.8      3.798      6.847
REMARK  4 active torsions:
REMARK  status: ('A' for Active; 'I' for Inactive)
REMARK    1  A    between atoms: N1_1  and  C1_2 
REMARK    2  A    between atoms: C2_3  and  C3_4 
REMARK    3  A    between atoms: C13_17  and  C14_18 
REMARK    4  A    between atoms: C13_17  and  C15_20 
ROOT
HETATM    1  C1  UNL     1      25.041   3.493  50.963  1.00  0.00     0.268 C 
HETATM    2  C2  UNL     1      24.305   4.381  50.008  1.00  0.00     0.095 C 
HETATM    3  C11 UNL     1      23.568   3.498  49.024  1.00  0.00     0.034 C 
HETATM    4  C12 UNL     1      23.019   2.317  49.795  1.00  0.00     0.116 C 
HETATM    5  N4  UNL     1      22.848   2.584  51.181  1.00  0.00    -0.402 N 
HETATM    6  C13 UNL     1      24.023   2.884  51.919  1.00  0.00     0.138 C 
HETATM    7  H16 UNL     1      22.087   2.102  51.651  1.00  0.00     0.154 HD
ENDROOT
BRANCH   2   8
HETATM    8  C3  UNL     1      25.195   5.309  49.273  1.00  0.00     0.132 A 
HETATM    9  N2  UNL     1      24.772   6.476  48.703  1.00  0.00    -0.244 NA
HETATM   10  C4  UNL     1      25.608   7.295  48.043  1.00  0.00     0.128 A 
HETATM   11  C5  UNL     1      26.941   6.957  47.931  1.00  0.00    -0.011 A 
HETATM   12  C6  UNL     1      27.374   5.795  48.497  1.00  0.00     0.066 A 
HETATM   13  C10 UNL     1      27.738   7.972  47.168  1.00  0.00     0.046 A 
HETATM   14  N3  UNL     1      26.502   5.003  49.150  1.00  0.00    -0.233 NA
HETATM   15  C7  UNL     1      28.788   5.480  48.354  1.00  0.00     0.028 A 
HETATM   16  C8  UNL     1      29.539   6.331  47.694  1.00  0.00    -0.024 A 
HETATM   17  C9  UNL     1      29.180   7.609  47.045  1.00  0.00     0.032 A 
ENDBRANCH   2   8
BRANCH   1  18
HETATM   18  N1  UNL     1      25.699   2.417  50.244  1.00  0.00     0.086 N 
HETATM   19  H1  UNL     1      26.739   2.508  50.286  1.00  0.00     0.313 HD
HETATM   20  H2  UNL     1      25.470   2.465  49.218  1.00  0.00     0.313 HD
ENDBRANCH   1  18
BRANCH   6  21
HETATM   21  C14 UNL     1      23.670   3.996  52.873  1.00  0.00     0.269 C 
HETATM   22  O1  UNL     1      23.703   5.082  53.434  1.00  0.00    -0.304 OA
ENDBRANCH   6  21
BRANCH   6  23
HETATM   23  C15 UNL     1      24.560   1.774  52.717  1.00  0.00    -0.021 A 
HETATM   24  C16 UNL     1      24.121   0.461  52.804  1.00  0.00     0.010 A 
HETATM   25  C17 UNL     1      24.776  -0.436  53.624  1.00  0.00     0.001 A 
HETATM   26  C18 UNL     1      25.866  -0.090  54.376  1.00  0.00     0.000 A 
HETATM   27  C19 UNL     1      26.298   1.198  54.291  1.00  0.00     0.001 A 
HETATM   28  C20 UNL     1      25.668   2.135  53.478  1.00  0.00     0.010 A 
ENDBRANCH   6  23
TORSDOF 4
ENDMDL
MODEL 6
REMARK VINA RESULT:      -7.7      3.798      6.326
REMARK  4 active torsions:
REMARK  status: ('A' for Active; 'I' for Inactive)
REMARK    1  A    between atoms: N1_1  and  C1_2 
REMARK    2  A    between atoms: C2_3  and  C3_4 
REMARK    3  A    between atoms: C13_17  and  C14_18 
REMARK    4  A    between atoms: C13_17  and  C15_20 
ROOT
HETATM    1  C1  UNL     1      22.566   2.414  51.120  1.00  0.00     0.268 C 
HETATM    2  C2  UNL     1      22.288   3.150  49.846  1.00  0.00     0.095 C 
HETATM    3  C11 UNL     1      22.174   2.128  48.735  1.00  0.00     0.034 C 
HETATM    4  C12 UNL     1      21.432   0.933  49.290  1.00  0.00     0.116 C 
HETATM    5  N4  UNL     1      20.612   1.252  50.406  1.00  0.00    -0.402 N 
HETATM    6  C13 UNL     1      21.275   1.737  51.563  1.00  0.00     0.138 C 
HETATM    7  H16 UNL     1      19.763   0.705  50.524  1.00  0.00     0.154 HD
ENDROOT
BRANCH   2   8
HETATM    8  C3  UNL     1      23.335   4.140  49.506  1.00  0.00     0.132 A 
HETATM    9  N2  UNL     1      23.085   5.463  49.277  1.00  0.00    -0.244 NA
HETATM   10  C4  UNL     1      24.060   6.334  48.971  1.00  0.00     0.128 A 
HETATM   11  C5  UNL     1      25.364   5.890  48.881  1.00  0.00    -0.011 A 
HETATM   12  C6  UNL     1      25.625   4.572  49.108  1.00  0.00     0.066 A 
HETATM   13  C10 UNL     1      26.329   6.981  48.532  1.00  0.00     0.046 A 
HETATM   14  N3  UNL     1      24.617   3.732  49.412  1.00  0.00    -0.233 NA
HETATM   15  C7  UNL     1      27.014   4.148  49.002  1.00  0.00     0.028 A 
HETATM   16  C8  UNL     1      27.908   5.060  48.698  1.00  0.00    -0.024 A 
HETATM   17  C9  UNL     1      27.740   6.504  48.433  1.00  0.00     0.032 A 
ENDBRANCH   2   8
BRANCH   1  18
HETATM   18  N1  UNL     1      23.573   1.391  50.902  1.00  0.00     0.086 N 
HETATM   19  H1  UNL     1      23.304   0.749  50.124  1.00  0.00     0.313 HD
HETATM   20  H2  UNL     1      23.653   0.767  51.746  1.00  0.00     0.313 HD
ENDBRANCH   1  18
BRANCH   6  21
HETATM   21  C14 UNL     1      20.425   2.846  52.125  1.00  0.00     0.269 C 
HETATM   22  O1  UNL     1      19.450   3.557  52.329  1.00  0.00    -0.304 OA
ENDBRANCH   6  21
BRANCH   6  23
HETATM   23  C15 UNL     1      21.470   0.748  52.632  1.00  0.00    -0.021 A 
HETATM   24  C16 UNL     1      22.571   0.544  53.451  1.00  0.00     0.010 A 
HETATM   25  C17 UNL     1      22.549  -0.452  54.407  1.00  0.00     0.001 A 
HETATM   26  C18 UNL     1      21.469  -1.272  54.595  1.00  0.00     0.000 A 
HETATM   27  C19 UNL     1      20.388  -1.071  53.793  1.00  0.00     0.001 A 
HETATM   28  C20 UNL     1      20.367  -0.080  52.818  1.00  0.00     0.010 A 
ENDBRANCH   6  23
TORSDOF 4
ENDMDL
MODEL 7
REMARK VINA RESULT:      -7.7      7.544      9.858
REMARK  4 active torsions:
REMARK  status: ('A' for Active; 'I' for Inactive)
REMARK    1  A    between atoms: N1_1  and  C1_2 
REMARK    2  A    between atoms: C2_3  and  C3_4 
REMARK    3  A    between atoms: C13_17  and  C14_18 
REMARK    4  A    between atoms: C13_17  and  C15_20 
ROOT
HETATM    1  C1  UNL     1      30.508   6.404  48.152  1.00  0.00     0.268 C 
HETATM    2  C2  UNL     1      29.458   7.464  48.034  1.00  0.00     0.095 C 
HETATM    3  C11 UNL     1      29.746   8.523  49.077  1.00  0.00     0.034 C 
HETATM    4  C12 UNL     1      31.246   8.712  49.130  1.00  0.00     0.116 C 
HETATM    5  N4  UNL     1      31.903   8.323  47.930  1.00  0.00    -0.402 N 
HETATM    6  C13 UNL     1      31.802   6.955  47.566  1.00  0.00     0.138 C 
HETATM    7  H16 UNL     1      32.747   8.833  47.682  1.00  0.00     0.154 HD
ENDROOT
BRANCH   2   8
HETATM    8  C3  UNL     1      28.083   6.945  48.220  1.00  0.00     0.132 A 
HETATM    9  N2  UNL     1      26.956   7.665  47.947  1.00  0.00    -0.244 NA
HETATM   10  C4  UNL     1      25.723   7.162  48.127  1.00  0.00     0.128 A 
HETATM   11  C5  UNL     1      25.578   5.876  48.604  1.00  0.00    -0.011 A 
HETATM   12  C6  UNL     1      26.697   5.148  48.879  1.00  0.00     0.066 A 
HETATM   13  C10 UNL     1      24.144   5.465  48.749  1.00  0.00     0.046 A 
HETATM   14  N3  UNL     1      27.914   5.691  48.684  1.00  0.00    -0.233 NA
HETATM   15  C7  UNL     1      26.496   3.796  49.380  1.00  0.00     0.028 A 
HETATM   16  C8  UNL     1      25.260   3.377  49.529  1.00  0.00    -0.024 A 
HETATM   17  C9  UNL     1      23.984   4.074  49.265  1.00  0.00     0.032 A 
ENDBRANCH   2   8
BRANCH   1  18
HETATM   18  N1  UNL     1      30.737   6.074  49.548  1.00  0.00     0.086 N 
HETATM   19  H1  UNL     1      31.757   6.010  49.764  1.00  0.00     0.313 HD
HETATM   20  H2  UNL     1      30.358   5.117  49.767  1.00  0.00     0.313 HD
ENDBRANCH   1  18
BRANCH   6  21
HETATM   21  C14 UNL     1      31.604   6.911  46.074  1.00  0.00     0.269 C 
HETATM   22  O1  UNL     1      31.502   7.292  44.916  1.00  0.00    -0.304 OA
ENDBRANCH   6  21
BRANCH   6  23
HETATM   23  C15 UNL     1      32.981   6.137  47.878  1.00  0.00    -0.021 A 
HETATM   24  C16 UNL     1      34.088   6.450  48.655  1.00  0.00     0.010 A 
HETATM   25  C17 UNL     1      35.099   5.525  48.824  1.00  0.00     0.001 A 
HETATM   26  C18 UNL     1      35.068   4.282  48.251  1.00  0.00     0.000 A 
HETATM   27  C19 UNL     1      33.983   3.975  47.491  1.00  0.00     0.001 A 
HETATM   28  C20 UNL     1      32.941   4.875  47.294  1.00  0.00     0.010 A 
ENDBRANCH   6  23
TORSDOF 4
ENDMDL
MODEL 8
REMARK VINA RESULT:      -7.4      3.113      4.825
REMARK  4 active torsions:
REMARK  status: ('A' for Active; 'I' for Inactive)
REMARK    1  A    between atoms: N1_1  and  C1_2 
REMARK    2  A    between atoms: C2_3  and  C3_4 
REMARK    3  A    between atoms: C13_17  and  C14_18 
REMARK    4  A    between atoms: C13_17  and  C15_20 
ROOT
HETATM    1  C1  UNL     1      24.261   4.046  50.169  1.00  0.00     0.268 C 
HETATM    2  C2  UNL     1      25.177   3.433  51.183  1.00  0.00     0.095 C 
HETATM    3  C11 UNL     1      26.401   2.922  50.454  1.00  0.00     0.034 C 
HETATM    4  C12 UNL     1      26.752   3.935  49.387  1.00  0.00     0.116 C 
HETATM    5  N4  UNL     1      26.262   5.239  49.671  1.00  0.00    -0.402 N 
HETATM    6  C13 UNL     1      24.853   5.385  49.748  1.00  0.00     0.138 C 
HETATM    7  H16 UNL     1      26.815   6.022  49.331  1.00  0.00     0.154 HD
ENDROOT
BRANCH   2   8
HETATM    8  C3  UNL     1      24.550   2.325  51.939  1.00  0.00     0.132 A 
HETATM    9  N2  UNL     1      25.246   1.274  52.464  1.00  0.00    -0.244 NA
HETATM   10  C4  UNL     1      24.644   0.285  53.146  1.00  0.00     0.128 A 
HETATM   11  C5  UNL     1      23.277   0.321  53.329  1.00  0.00    -0.011 A 
HETATM   12  C6  UNL     1      22.573   1.366  52.810  1.00  0.00     0.066 A 
HETATM   13  C10 UNL     1      22.762  -0.851  54.108  1.00  0.00     0.046 A 
HETATM   14  N3  UNL     1      23.216   2.337  52.133  1.00  0.00    -0.233 NA
HETATM   15  C7  UNL     1      21.133   1.362  53.028  1.00  0.00     0.028 A 
HETATM   16  C8  UNL     1      20.621   0.361  53.704  1.00  0.00    -0.024 A 
HETATM   17  C9  UNL     1      21.283  -0.815  54.308  1.00  0.00     0.032 A 
ENDBRANCH   2   8
BRANCH   1  18
HETATM   18  N1  UNL     1      24.165   3.194  48.997  1.00  0.00     0.086 N 
HETATM   19  H1  UNL     1      23.669   3.675  48.213  1.00  0.00     0.313 HD
HETATM   20  H2  UNL     1      23.576   2.347  49.204  1.00  0.00     0.313 HD
ENDBRANCH   1  18
BRANCH   6  21
HETATM   21  C14 UNL     1      24.570   6.315  50.899  1.00  0.00     0.269 C 
HETATM   22  O1  UNL     1      24.039   7.197  51.561  1.00  0.00    -0.304 OA
ENDBRANCH   6  21
BRANCH   6  23
HETATM   23  C15 UNL     1      24.217   5.956  48.554  1.00  0.00    -0.021 A 
HETATM   24  C16 UNL     1      23.014   5.618  47.951  1.00  0.00     0.010 A 
HETATM   25  C17 UNL     1      22.593   6.290  46.820  1.00  0.00     0.001 A 
HETATM   26  C18 UNL     1      23.318   7.299  46.247  1.00  0.00     0.000 A 
HETATM   27  C19 UNL     1      24.497   7.632  46.838  1.00  0.00     0.001 A 
HETATM   28  C20 UNL     1      24.960   6.983  47.978  1.00  0.00     0.010 A 
ENDBRANCH   6  23
TORSDOF 4
ENDMDL
MODEL 9
REMARK VINA RESULT:      -7.3      3.357      6.460
REMARK  4 active torsions:
REMARK  status: ('A' for Active; 'I' for Inactive)
REMARK    1  A    between atoms: N1_1  and  C1_2 
REMARK    2  A    between atoms: C2_3  and  C3_4 
REMARK    3  A    between atoms: C13_17  and  C14_18 
REMARK    4  A    between atoms: C13_17  and  C15_20 
ROOT
HETATM    1  C1  UNL     1      23.198   2.728  51.202  1.00  0.00     0.268 C 
HETATM    2  C2  UNL     1      22.644   1.906  52.324  1.00  0.00     0.095 C 
HETATM    3  C11 UNL     1      23.582   0.740  52.553  1.00  0.00     0.034 C 
HETATM    4  C12 UNL     1      24.996   1.255  52.398  1.00  0.00     0.116 C 
HETATM    5  N4  UNL     1      25.109   2.654  52.624  1.00  0.00    -0.402 N 
HETATM    6  C13 UNL     1      24.399   3.500  51.733  1.00  0.00     0.138 C 
HETATM    7  H16 UNL     1      25.986   2.987  53.017  1.00  0.00     0.154 HD
ENDROOT
BRANCH   2   8
HETATM    8  C3  UNL     1      21.278   1.400  52.055  1.00  0.00     0.132 A 
HETATM    9  N2  UNL     1      20.484   1.856  51.043  1.00  0.00    -0.244 NA
HETATM   10  C4  UNL     1      19.249   1.374  50.828  1.00  0.00     0.128 A 
HETATM   11  C5  UNL     1      18.754   0.383  51.651  1.00  0.00    -0.011 A 
HETATM   12  C6  UNL     1      19.539  -0.081  52.665  1.00  0.00     0.066 A 
HETATM   13  C10 UNL     1      17.367  -0.045  51.281  1.00  0.00     0.046 A 
HETATM   14  N3  UNL     1      20.772   0.432  52.845  1.00  0.00    -0.233 NA
HETATM   15  C7  UNL     1      18.976  -1.125  53.508  1.00  0.00     0.028 A 
HETATM   16  C8  UNL     1      17.762  -1.544  53.233  1.00  0.00    -0.024 A 
HETATM   17  C9  UNL     1      16.830  -1.116  52.170  1.00  0.00     0.032 A 
ENDBRANCH   2   8
BRANCH   1  18
HETATM   18  N1  UNL     1      23.644   1.868  50.120  1.00  0.00     0.086 N 
HETATM   19  H1  UNL     1      23.219   2.149  49.208  1.00  0.00     0.313 HD
HETATM   20  H2  UNL     1      23.314   0.881  50.274  1.00  0.00     0.313 HD
ENDBRANCH   1  18
BRANCH   6  21
HETATM   21  C14 UNL     1      23.811   4.615  52.559  1.00  0.00     0.269 C 
HETATM   22  O1  UNL     1      23.354   5.212  53.524  1.00  0.00    -0.304 OA
ENDBRANCH   6  21
BRANCH   6  23
HETATM   23  C15 UNL     1      25.211   4.118  50.677  1.00  0.00    -0.021 A 
HETATM   24  C16 UNL     1      26.386   3.665  50.093  1.00  0.00     0.010 A 
HETATM   25  C17 UNL     1      26.997   4.407  49.102  1.00  0.00     0.001 A 
HETATM   26  C18 UNL     1      26.494   5.598  48.652  1.00  0.00     0.000 A 
HETATM   27  C19 UNL     1      25.342   6.042  49.224  1.00  0.00     0.001 A 
HETATM   28  C20 UNL     1      24.692   5.327  50.224  1.00  0.00     0.010 A 
ENDBRANCH   6  23
TORSDOF 4
ENDMDL
