MODEL 1
REMARK VINA RESULT:      -7.2      0.000      0.000
REMARK  7 active torsions:
REMARK  status: ('A' for Active; 'I' for Inactive)
REMARK    1  A    between atoms: C1_2  and  C2_3 
REMARK    2  A    between atoms: C1_2  and  C9_11 
REMARK    3  A    between atoms: C2_3  and  C3_4 
REMARK    4  A    between atoms: C3_4  and  N1_5 
REMARK    5  A    between atoms: C12_14  and  O2_15 
REMARK    6  A    between atoms: O2_15  and  C13_16 
REMARK    7  A    between atoms: C13_16  and  C14_17 
ROOT
HETATM    1  C9  UNL     1      22.785   1.458  52.256  1.00  0.00     0.074 A 
HETATM    2  C10 UNL     1      22.725   1.329  50.941  1.00  0.00     0.035 A 
HETATM    3  C11 UNL     1      23.072   2.380  50.009  1.00  0.00     0.036 A 
HETATM    4  C12 UNL     1      23.470   3.536  50.499  1.00  0.00     0.064 A 
HETATM    5  C20 UNL     1      23.606   3.885  51.933  1.00  0.00     0.184 A 
HETATM    6  N2  UNL     1      23.222   2.727  52.715  1.00  0.00    -0.381 N 
HETATM    7  H26 UNL     1      23.313   2.959  53.736  1.00  0.00     0.160 HD
ENDROOT
BRANCH   1   8
HETATM    8  C1  UNL     1      22.449   0.433  53.236  1.00  0.00     0.177 C 
HETATM    9  O1  UNL     1      21.441   0.524  53.987  1.00  0.00    -0.291 OA
BRANCH   8  10
HETATM   10  C2  UNL     1      23.317  -0.769  53.363  1.00  0.00     0.115 C 
BRANCH  10  11
HETATM   11  C3  UNL     1      24.328  -0.447  54.424  1.00  0.00     0.280 C 
BRANCH  11  12
HETATM   12  N1  UNL     1      25.676  -0.765  54.134  1.00  0.00     0.088 N 
HETATM   13  C4  UNL     1      26.497   0.312  54.713  1.00  0.00     0.272 C 
HETATM   14  C5  UNL     1      26.382   1.584  53.881  1.00  0.00     0.030 C 
HETATM   15  C6  UNL     1      26.443   1.304  52.397  1.00  0.00     0.003 C 
HETATM   16  C7  UNL     1      27.034  -0.071  52.242  1.00  0.00     0.030 C 
HETATM   17  C8  UNL     1      26.015  -1.076  52.793  1.00  0.00     0.272 C 
ENDBRANCH  11  12
ENDBRANCH  10  11
ENDBRANCH   8  10
ENDBRANCH   1   8
BRANCH   4  18
HETATM   18  O2  UNL     1      23.784   4.495  49.515  1.00  0.00    -0.349 OA
BRANCH  18  19
HETATM   19  C13 UNL     1      24.404   5.688  49.895  1.00  0.00     0.214 C 
BRANCH  19  20
HETATM   20  C14 UNL     1      25.762   5.806  49.308  1.00  0.00    -0.034 A 
HETATM   21  C15 UNL     1      26.270   7.042  48.898  1.00  0.00     0.009 A 
HETATM   22  C16 UNL     1      27.547   7.166  48.343  1.00  0.00     0.001 A 
HETATM   23  C17 UNL     1      28.336   6.041  48.192  1.00  0.00     0.000 A 
HETATM   24  C18 UNL     1      27.866   4.792  48.589  1.00  0.00     0.001 A 
HETATM   25  C19 UNL     1      26.601   4.710  49.133  1.00  0.00     0.009 A 
ENDBRANCH  19  20
ENDBRANCH  18  19
ENDBRANCH   4  18
TORSDOF 7
ENDMDL
MODEL 2
REMARK VINA RESULT:      -7.1      4.049      8.289
REMARK  7 active torsions:
REMARK  status: ('A' for Active; 'I' for Inactive)
REMARK    1  A    between atoms: C1_2  and  C2_3 
REMARK    2  A    between atoms: C1_2  and  C9_11 
REMARK    3  A    between atoms: C2_3  and  C3_4 
REMARK    4  A    between atoms: C3_4  and  N1_5 
REMARK    5  A    between atoms: C12_14  and  O2_15 
REMARK    6  A    between atoms: O2_15  and  C13_16 
REMARK    7  A    between atoms: C13_16  and  C14_17 
ROOT
HETATM    1  C9  UNL     1      23.195   0.660  52.786  1.00  0.00     0.074 A 
HETATM    2  C10 UNL     1      23.026  -0.292  53.688  1.00  0.00     0.035 A 
HETATM    3  C11 UNL     1      21.747  -0.896  53.997  1.00  0.00     0.036 A 
HETATM    4  C12 UNL     1      20.688  -0.470  53.341  1.00  0.00     0.064 A 
HETATM    5  C20 UNL     1      20.661   0.582  52.297  1.00  0.00     0.184 A 
HETATM    6  N2  UNL     1      22.013   1.070  52.117  1.00  0.00    -0.381 N 
HETATM    7  H26 UNL     1      22.011   1.818  51.380  1.00  0.00     0.160 HD
ENDROOT
BRANCH   1   8
HETATM    8  C1  UNL     1      24.458   1.298  52.439  1.00  0.00     0.177 C 
HETATM    9  O1  UNL     1      24.645   1.860  51.326  1.00  0.00    -0.291 OA
BRANCH   8  10
HETATM   10  C2  UNL     1      25.574   1.294  53.423  1.00  0.00     0.115 C 
BRANCH  10  11
HETATM   11  C3  UNL     1      26.667   0.464  52.816  1.00  0.00     0.280 C 
BRANCH  11  12
HETATM   12  N1  UNL     1      27.263  -0.510  53.652  1.00  0.00     0.088 N 
HETATM   13  C4  UNL     1      27.925   0.222  54.745  1.00  0.00     0.272 C 
HETATM   14  C5  UNL     1      29.196   0.900  54.249  1.00  0.00     0.030 C 
HETATM   15  C6  UNL     1      30.007   0.002  53.343  1.00  0.00     0.003 C 
HETATM   16  C7  UNL     1      29.523  -1.402  53.583  1.00  0.00     0.030 C 
HETATM   17  C8  UNL     1      28.089  -1.493  53.049  1.00  0.00     0.272 C 
ENDBRANCH  11  12
ENDBRANCH  10  11
ENDBRANCH   8  10
ENDBRANCH   1   8
BRANCH   4  18
HETATM   18  O2  UNL     1      19.491  -1.116  53.710  1.00  0.00    -0.349 OA
BRANCH  18  19
HETATM   19  C13 UNL     1      18.323  -0.858  52.989  1.00  0.00     0.214 C 
BRANCH  19  20
HETATM   20  C14 UNL     1      17.394  -2.015  53.024  1.00  0.00    -0.034 A 
HETATM   21  C15 UNL     1      17.720  -3.187  53.714  1.00  0.00     0.009 A 
HETATM   22  C16 UNL     1      16.854  -4.283  53.754  1.00  0.00     0.001 A 
HETATM   23  C17 UNL     1      15.640  -4.216  53.096  1.00  0.00     0.000 A 
HETATM   24  C18 UNL     1      15.279  -3.068  52.397  1.00  0.00     0.001 A 
HETATM   25  C19 UNL     1      16.160  -2.006  52.381  1.00  0.00     0.009 A 
ENDBRANCH  19  20
ENDBRANCH  18  19
ENDBRANCH   4  18
TORSDOF 7
ENDMDL
MODEL 3
REMARK VINA RESULT:      -6.9      3.274      6.538
REMARK  7 active torsions:
REMARK  status: ('A' for Active; 'I' for Inactive)
REMARK    1  A    between atoms: C1_2  and  C2_3 
REMARK    2  A    between atoms: C1_2  and  C9_11 
REMARK    3  A    between atoms: C2_3  and  C3_4 
REMARK    4  A    between atoms: C3_4  and  N1_5 
REMARK    5  A    between atoms: C12_14  and  O2_15 
REMARK    6  A    between atoms: O2_15  and  C13_16 
REMARK    7  A    between atoms: C13_16  and  C14_17 
ROOT
HETATM    1  C9  UNL     1      22.035   1.744  52.685  1.00  0.00     0.074 A 
HETATM    2  C10 UNL     1      23.308   2.101  52.669  1.00  0.00     0.035 A 
HETATM    3  C11 UNL     1      24.399   1.219  53.026  1.00  0.00     0.036 A 
HETATM    4  C12 UNL     1      24.107  -0.011  53.391  1.00  0.00     0.064 A 
HETATM    5  C20 UNL     1      22.752  -0.607  53.475  1.00  0.00     0.184 A 
HETATM    6  N2  UNL     1      21.791   0.405  53.086  1.00  0.00    -0.381 N 
HETATM    7  H26 UNL     1      20.824  -0.002  53.141  1.00  0.00     0.160 HD
ENDROOT
BRANCH   1   8
HETATM    8  C1  UNL     1      20.902   2.591  52.334  1.00  0.00     0.177 C 
HETATM    9  O1  UNL     1      19.710   2.187  52.412  1.00  0.00    -0.291 OA
BRANCH   8  10
HETATM   10  C2  UNL     1      21.146   3.981  51.866  1.00  0.00     0.115 C 
BRANCH  10  11
HETATM   11  C3  UNL     1      20.412   4.123  50.565  1.00  0.00     0.280 C 
BRANCH  11  12
HETATM   12  N1  UNL     1      21.203   4.232  49.397  1.00  0.00     0.088 N 
HETATM   13  C4  UNL     1      20.508   3.471  48.345  1.00  0.00     0.272 C 
HETATM   14  C5  UNL     1      20.653   1.971  48.577  1.00  0.00     0.030 C 
HETATM   15  C6  UNL     1      22.059   1.589  48.980  1.00  0.00     0.003 C 
HETATM   16  C7  UNL     1      22.946   2.741  48.592  1.00  0.00     0.030 C 
HETATM   17  C8  UNL     1      22.584   3.926  49.496  1.00  0.00     0.272 C 
ENDBRANCH  11  12
ENDBRANCH  10  11
ENDBRANCH   8  10
ENDBRANCH   1   8
BRANCH   4  18
HETATM   18  O2  UNL     1      25.233  -0.792  53.719  1.00  0.00    -0.349 OA
BRANCH  18  19
HETATM   19  C13 UNL     1      26.107  -1.194  52.706  1.00  0.00     0.214 C 
BRANCH  19  20
HETATM   20  C14 UNL     1      27.514  -0.856  53.035  1.00  0.00    -0.034 A 
HETATM   21  C15 UNL     1      28.500  -1.845  53.112  1.00  0.00     0.009 A 
HETATM   22  C16 UNL     1      29.827  -1.539  53.421  1.00  0.00     0.001 A 
HETATM   23  C17 UNL     1      30.186  -0.225  53.661  1.00  0.00     0.000 A 
HETATM   24  C18 UNL     1      29.234   0.788  53.594  1.00  0.00     0.001 A 
HETATM   25  C19 UNL     1      27.933   0.447  53.285  1.00  0.00     0.009 A 
ENDBRANCH  19  20
ENDBRANCH  18  19
ENDBRANCH   4  18
TORSDOF 7
ENDMDL
MODEL 4
REMARK VINA RESULT:      -6.8      3.335      8.198
REMARK  7 active torsions:
REMARK  status: ('A' for Active; 'I' for Inactive)
REMARK    1  A    between atoms: C1_2  and  C2_3 
REMARK    2  A    between atoms: C1_2  and  C9_11 
REMARK    3  A    between atoms: C2_3  and  C3_4 
REMARK    4  A    between atoms: C3_4  and  N1_5 
REMARK    5  A    between atoms: C12_14  and  O2_15 
REMARK    6  A    between atoms: O2_15  and  C13_16 
REMARK    7  A    between atoms: C13_16  and  C14_17 
ROOT
HETATM    1  C9  UNL     1      27.061   5.048  49.093  1.00  0.00     0.074 A 
HETATM    2  C10 UNL     1      26.815   3.759  49.258  1.00  0.00     0.035 A 
HETATM    3  C11 UNL     1      25.667   3.241  49.971  1.00  0.00     0.036 A 
HETATM    4  C12 UNL     1      24.818   4.104  50.489  1.00  0.00     0.064 A 
HETATM    5  C20 UNL     1      24.910   5.582  50.418  1.00  0.00     0.184 A 
HETATM    6  N2  UNL     1      26.107   5.922  49.674  1.00  0.00    -0.381 N 
HETATM    7  H26 UNL     1      26.187   6.968  49.616  1.00  0.00     0.160 HD
ENDROOT
BRANCH   1   8
HETATM    8  C1  UNL     1      28.199   5.620  48.384  1.00  0.00     0.177 C 
HETATM    9  O1  UNL     1      29.264   4.976  48.189  1.00  0.00    -0.291 OA
BRANCH   8  10
HETATM   10  C2  UNL     1      28.112   7.013  47.867  1.00  0.00     0.115 C 
BRANCH  10  11
HETATM   11  C3  UNL     1      29.356   7.240  47.058  1.00  0.00     0.280 C 
BRANCH  11  12
HETATM   12  N1  UNL     1      30.128   8.379  47.386  1.00  0.00     0.088 N 
HETATM   13  C4  UNL     1      31.527   8.045  47.071  1.00  0.00     0.272 C 
HETATM   14  C5  UNL     1      32.097   7.082  48.106  1.00  0.00     0.030 C 
HETATM   15  C6  UNL     1      31.712   7.464  49.516  1.00  0.00     0.003 C 
HETATM   16  C7  UNL     1      31.269   8.901  49.467  1.00  0.00     0.030 C 
HETATM   17  C8  UNL     1      29.959   8.953  48.671  1.00  0.00     0.272 C 
ENDBRANCH  11  12
ENDBRANCH  10  11
ENDBRANCH   8  10
ENDBRANCH   1   8
BRANCH   4  18
HETATM   18  O2  UNL     1      23.736   3.505  51.163  1.00  0.00    -0.349 OA
BRANCH  18  19
HETATM   19  C13 UNL     1      23.743   3.453  52.560  1.00  0.00     0.214 C 
BRANCH  19  20
HETATM   20  C14 UNL     1      24.383   2.210  53.055  1.00  0.00    -0.034 A 
HETATM   21  C15 UNL     1      23.739   0.973  52.957  1.00  0.00     0.009 A 
HETATM   22  C16 UNL     1      24.331  -0.205  53.420  1.00  0.00     0.001 A 
HETATM   23  C17 UNL     1      25.589  -0.154  53.994  1.00  0.00     0.000 A 
HETATM   24  C18 UNL     1      26.263   1.058  54.110  1.00  0.00     0.001 A 
HETATM   25  C19 UNL     1      25.645   2.199  53.640  1.00  0.00     0.009 A 
ENDBRANCH  19  20
ENDBRANCH  18  19
ENDBRANCH   4  18
TORSDOF 7
ENDMDL
MODEL 5
REMARK VINA RESULT:      -6.8      3.257      8.325
REMARK  7 active torsions:
REMARK  status: ('A' for Active; 'I' for Inactive)
REMARK    1  A    between atoms: C1_2  and  C2_3 
REMARK    2  A    between atoms: C1_2  and  C9_11 
REMARK    3  A    between atoms: C2_3  and  C3_4 
REMARK    4  A    between atoms: C3_4  and  N1_5 
REMARK    5  A    between atoms: C12_14  and  O2_15 
REMARK    6  A    between atoms: O2_15  and  C13_16 
REMARK    7  A    between atoms: C13_16  and  C14_17 
ROOT
HETATM    1  C9  UNL     1      26.965   4.945  49.150  1.00  0.00     0.074 A 
HETATM    2  C10 UNL     1      26.738   3.653  49.312  1.00  0.00     0.035 A 
HETATM    3  C11 UNL     1      25.589   3.115  50.010  1.00  0.00     0.036 A 
HETATM    4  C12 UNL     1      24.718   3.964  50.514  1.00  0.00     0.064 A 
HETATM    5  C20 UNL     1      24.786   5.442  50.443  1.00  0.00     0.184 A 
HETATM    6  N2  UNL     1      25.988   5.803  49.717  1.00  0.00    -0.381 N 
HETATM    7  H26 UNL     1      26.051   6.850  49.659  1.00  0.00     0.160 HD
ENDROOT
BRANCH   1   8
HETATM    8  C1  UNL     1      28.103   5.536  48.458  1.00  0.00     0.177 C 
HETATM    9  O1  UNL     1      29.133   4.871  48.165  1.00  0.00    -0.291 OA
BRANCH   8  10
HETATM   10  C2  UNL     1      28.061   6.974  48.078  1.00  0.00     0.115 C 
BRANCH  10  11
HETATM   11  C3  UNL     1      29.236   7.206  47.173  1.00  0.00     0.280 C 
BRANCH  11  12
HETATM   12  N1  UNL     1      30.136   8.230  47.550  1.00  0.00     0.088 N 
HETATM   13  C4  UNL     1      31.463   7.828  47.056  1.00  0.00     0.272 C 
HETATM   14  C5  UNL     1      32.037   6.700  47.906  1.00  0.00     0.030 C 
HETATM   15  C6  UNL     1      31.821   6.933  49.384  1.00  0.00     0.003 C 
HETATM   16  C7  UNL     1      31.508   8.396  49.549  1.00  0.00     0.030 C 
HETATM   17  C8  UNL     1      30.140   8.650  48.904  1.00  0.00     0.272 C 
ENDBRANCH  11  12
ENDBRANCH  10  11
ENDBRANCH   8  10
ENDBRANCH   1   8
BRANCH   4  18
HETATM   18  O2  UNL     1      23.636   3.347  51.173  1.00  0.00    -0.349 OA
BRANCH  18  19
HETATM   19  C13 UNL     1      23.152   2.125  50.699  1.00  0.00     0.214 C 
BRANCH  19  20
HETATM   20  C14 UNL     1      23.055   1.120  51.787  1.00  0.00    -0.034 A 
HETATM   21  C15 UNL     1      24.160   0.798  52.580  1.00  0.00     0.009 A 
HETATM   22  C16 UNL     1      24.080  -0.147  53.606  1.00  0.00     0.001 A 
HETATM   23  C17 UNL     1      22.878  -0.787  53.851  1.00  0.00     0.000 A 
HETATM   24  C18 UNL     1      21.755  -0.495  53.083  1.00  0.00     0.001 A 
HETATM   25  C19 UNL     1      21.873   0.444  52.079  1.00  0.00     0.009 A 
ENDBRANCH  19  20
ENDBRANCH  18  19
ENDBRANCH   4  18
TORSDOF 7
ENDMDL
MODEL 6
REMARK VINA RESULT:      -6.8      2.174      3.276
REMARK  7 active torsions:
REMARK  status: ('A' for Active; 'I' for Inactive)
REMARK    1  A    between atoms: C1_2  and  C2_3 
REMARK    2  A    between atoms: C1_2  and  C9_11 
REMARK    3  A    between atoms: C2_3  and  C3_4 
REMARK    4  A    between atoms: C3_4  and  N1_5 
REMARK    5  A    between atoms: C12_14  and  O2_15 
REMARK    6  A    between atoms: O2_15  and  C13_16 
REMARK    7  A    between atoms: C13_16  and  C14_17 
ROOT
HETATM    1  C9  UNL     1      25.221   3.663  51.068  1.00  0.00     0.074 A 
HETATM    2  C10 UNL     1      26.153   3.249  50.227  1.00  0.00     0.035 A 
HETATM    3  C11 UNL     1      26.791   4.099  49.244  1.00  0.00     0.036 A 
HETATM    4  C12 UNL     1      26.419   5.361  49.183  1.00  0.00     0.064 A 
HETATM    5  C20 UNL     1      25.398   6.021  50.030  1.00  0.00     0.184 A 
HETATM    6  N2  UNL     1      24.870   5.032  50.949  1.00  0.00    -0.381 N 
HETATM    7  H26 UNL     1      24.143   5.485  51.557  1.00  0.00     0.160 HD
ENDROOT
BRANCH   1   8
HETATM    8  C1  UNL     1      24.550   2.849  52.074  1.00  0.00     0.177 C 
HETATM    9  O1  UNL     1      24.148   3.328  53.169  1.00  0.00    -0.291 OA
BRANCH   8  10
HETATM   10  C2  UNL     1      24.326   1.402  51.813  1.00  0.00     0.115 C 
BRANCH  10  11
HETATM   11  C3  UNL     1      24.519   0.702  53.126  1.00  0.00     0.280 C 
BRANCH  11  12
HETATM   12  N1  UNL     1      25.335  -0.454  53.116  1.00  0.00     0.088 N 
HETATM   13  C4  UNL     1      25.654  -0.756  54.522  1.00  0.00     0.272 C 
HETATM   14  C5  UNL     1      26.675   0.235  55.069  1.00  0.00     0.030 C 
HETATM   15  C6  UNL     1      27.789   0.509  54.085  1.00  0.00     0.003 C 
HETATM   16  C7  UNL     1      27.760  -0.609  53.078  1.00  0.00     0.030 C 
HETATM   17  C8  UNL     1      26.468  -0.464  52.265  1.00  0.00     0.272 C 
ENDBRANCH  11  12
ENDBRANCH  10  11
ENDBRANCH   8  10
ENDBRANCH   1   8
BRANCH   4  18
HETATM   18  O2  UNL     1      27.094   6.107  48.197  1.00  0.00    -0.349 OA
BRANCH  18  19
HETATM   19  C13 UNL     1      28.071   7.029  48.584  1.00  0.00     0.214 C 
BRANCH  19  20
HETATM   20  C14 UNL     1      29.392   6.703  47.992  1.00  0.00    -0.034 A 
HETATM   21  C15 UNL     1      30.069   7.618  47.179  1.00  0.00     0.009 A 
HETATM   22  C16 UNL     1      31.312   7.322  46.616  1.00  0.00     0.001 A 
HETATM   23  C17 UNL     1      31.898   6.094  46.863  1.00  0.00     0.000 A 
HETATM   24  C18 UNL     1      31.256   5.156  47.667  1.00  0.00     0.001 A 
HETATM   25  C19 UNL     1      30.029   5.485  48.206  1.00  0.00     0.009 A 
ENDBRANCH  19  20
ENDBRANCH  18  19
ENDBRANCH   4  18
TORSDOF 7
ENDMDL
MODEL 7
REMARK VINA RESULT:      -6.7      3.444      8.241
REMARK  7 active torsions:
REMARK  status: ('A' for Active; 'I' for Inactive)
REMARK    1  A    between atoms: C1_2  and  C2_3 
REMARK    2  A    between atoms: C1_2  and  C9_11 
REMARK    3  A    between atoms: C2_3  and  C3_4 
REMARK    4  A    between atoms: C3_4  and  N1_5 
REMARK    5  A    between atoms: C12_14  and  O2_15 
REMARK    6  A    between atoms: O2_15  and  C13_16 
REMARK    7  A    between atoms: C13_16  and  C14_17 
ROOT
HETATM    1  C9  UNL     1      27.249   6.309  48.858  1.00  0.00     0.074 A 
HETATM    2  C10 UNL     1      27.609   5.054  48.648  1.00  0.00     0.035 A 
HETATM    3  C11 UNL     1      26.880   3.909  49.151  1.00  0.00     0.036 A 
HETATM    4  C12 UNL     1      25.795   4.130  49.862  1.00  0.00     0.064 A 
HETATM    5  C20 UNL     1      25.223   5.452  50.210  1.00  0.00     0.184 A 
HETATM    6  N2  UNL     1      26.070   6.474  49.630  1.00  0.00    -0.381 N 
HETATM    7  H26 UNL     1      25.678   7.419  49.869  1.00  0.00     0.160 HD
ENDROOT
BRANCH   1   8
HETATM    8  C1  UNL     1      27.945   7.494  48.374  1.00  0.00     0.177 C 
HETATM    9  O1  UNL     1      27.760   8.636  48.875  1.00  0.00    -0.291 OA
BRANCH   8  10
HETATM   10  C2  UNL     1      28.910   7.366  47.249  1.00  0.00     0.115 C 
BRANCH  10  11
HETATM   11  C3  UNL     1      30.242   7.805  47.784  1.00  0.00     0.280 C 
BRANCH  11  12
HETATM   12  N1  UNL     1      30.809   7.010  48.807  1.00  0.00     0.088 N 
HETATM   13  C4  UNL     1      31.799   7.854  49.497  1.00  0.00     0.272 C 
HETATM   14  C5  UNL     1      33.045   8.037  48.638  1.00  0.00     0.030 C 
HETATM   15  C6  UNL     1      33.480   6.748  47.981  1.00  0.00     0.003 C 
HETATM   16  C7  UNL     1      32.810   5.632  48.735  1.00  0.00     0.030 C 
HETATM   17  C8  UNL     1      31.305   5.728  48.459  1.00  0.00     0.272 C 
ENDBRANCH  11  12
ENDBRANCH  10  11
ENDBRANCH   8  10
ENDBRANCH   1   8
BRANCH   4  18
HETATM   18  O2  UNL     1      25.156   2.955  50.308  1.00  0.00    -0.349 OA
BRANCH  18  19
HETATM   19  C13 UNL     1      24.850   2.814  51.664  1.00  0.00     0.214 C 
BRANCH  19  20
HETATM   20  C14 UNL     1      25.254   1.482  52.177  1.00  0.00    -0.034 A 
HETATM   21  C15 UNL     1      26.442   0.873  51.763  1.00  0.00     0.009 A 
HETATM   22  C16 UNL     1      26.833  -0.381  52.238  1.00  0.00     0.001 A 
HETATM   23  C17 UNL     1      26.027  -1.047  53.145  1.00  0.00     0.000 A 
HETATM   24  C18 UNL     1      24.836  -0.475  53.582  1.00  0.00     0.001 A 
HETATM   25  C19 UNL     1      24.485   0.766  53.090  1.00  0.00     0.009 A 
ENDBRANCH  19  20
ENDBRANCH  18  19
ENDBRANCH   4  18
TORSDOF 7
ENDMDL
MODEL 8
REMARK VINA RESULT:      -6.7      2.477      7.306
REMARK  7 active torsions:
REMARK  status: ('A' for Active; 'I' for Inactive)
REMARK    1  A    between atoms: C1_2  and  C2_3 
REMARK    2  A    between atoms: C1_2  and  C9_11 
REMARK    3  A    between atoms: C2_3  and  C3_4 
REMARK    4  A    between atoms: C3_4  and  N1_5 
REMARK    5  A    between atoms: C12_14  and  O2_15 
REMARK    6  A    between atoms: O2_15  and  C13_16 
REMARK    7  A    between atoms: C13_16  and  C14_17 
ROOT
HETATM    1  C9  UNL     1      24.868   4.478  50.807  1.00  0.00     0.074 A 
HETATM    2  C10 UNL     1      25.621   3.417  50.572  1.00  0.00     0.035 A 
HETATM    3  C11 UNL     1      25.737   2.292  51.476  1.00  0.00     0.036 A 
HETATM    4  C12 UNL     1      25.052   2.328  52.600  1.00  0.00     0.064 A 
HETATM    5  C20 UNL     1      24.156   3.418  53.051  1.00  0.00     0.184 A 
HETATM    6  N2  UNL     1      24.158   4.451  52.035  1.00  0.00    -0.381 N 
HETATM    7  H26 UNL     1      23.526   5.233  52.341  1.00  0.00     0.160 HD
ENDROOT
BRANCH   1   8
HETATM    8  C1  UNL     1      24.717   5.634  49.932  1.00  0.00     0.177 C 
HETATM    9  O1  UNL     1      25.197   6.763  50.219  1.00  0.00    -0.291 OA
BRANCH   8  10
HETATM   10  C2  UNL     1      23.973   5.489  48.652  1.00  0.00     0.115 C 
BRANCH  10  11
HETATM   11  C3  UNL     1      22.515   5.487  49.010  1.00  0.00     0.280 C 
BRANCH  11  12
HETATM   12  N1  UNL     1      21.687   4.589  48.298  1.00  0.00     0.088 N 
HETATM   13  C4  UNL     1      20.766   3.994  49.282  1.00  0.00     0.272 C 
HETATM   14  C5  UNL     1      21.494   2.982  50.159  1.00  0.00     0.030 C 
HETATM   15  C6  UNL     1      22.420   2.094  49.360  1.00  0.00     0.003 C 
HETATM   16  C7  UNL     1      21.989   2.207  47.922  1.00  0.00     0.030 C 
HETATM   17  C8  UNL     1      22.308   3.632  47.456  1.00  0.00     0.272 C 
ENDBRANCH  11  12
ENDBRANCH  10  11
ENDBRANCH   8  10
ENDBRANCH   1   8
BRANCH   4  18
HETATM   18  O2  UNL     1      25.230   1.190  53.412  1.00  0.00    -0.349 OA
BRANCH  18  19
HETATM   19  C13 UNL     1      24.799  -0.056  52.950  1.00  0.00     0.214 C 
BRANCH  19  20
HETATM   20  C14 UNL     1      23.368  -0.290  53.267  1.00  0.00    -0.034 A 
HETATM   21  C15 UNL     1      22.981  -0.923  54.451  1.00  0.00     0.009 A 
HETATM   22  C16 UNL     1      21.637  -1.149  54.760  1.00  0.00     0.001 A 
HETATM   23  C17 UNL     1      20.657  -0.739  53.875  1.00  0.00     0.000 A 
HETATM   24  C18 UNL     1      21.001  -0.105  52.685  1.00  0.00     0.001 A 
HETATM   25  C19 UNL     1      22.339   0.101  52.416  1.00  0.00     0.009 A 
ENDBRANCH  19  20
ENDBRANCH  18  19
ENDBRANCH   4  18
TORSDOF 7
ENDMDL
MODEL 9
REMARK VINA RESULT:      -6.7      2.902      6.788
REMARK  7 active torsions:
REMARK  status: ('A' for Active; 'I' for Inactive)
REMARK    1  A    between atoms: C1_2  and  C2_3 
REMARK    2  A    between atoms: C1_2  and  C9_11 
REMARK    3  A    between atoms: C2_3  and  C3_4 
REMARK    4  A    between atoms: C3_4  and  N1_5 
REMARK    5  A    between atoms: C12_14  and  O2_15 
REMARK    6  A    between atoms: O2_15  and  C13_16 
REMARK    7  A    between atoms: C13_16  and  C14_17 
ROOT
HETATM    1  C9  UNL     1      24.207   4.545  51.256  1.00  0.00     0.074 A 
HETATM    2  C10 UNL     1      23.660   4.087  52.370  1.00  0.00     0.035 A 
HETATM    3  C11 UNL     1      24.155   2.941  53.102  1.00  0.00     0.036 A 
HETATM    4  C12 UNL     1      25.213   2.316  52.630  1.00  0.00     0.064 A 
HETATM    5  C20 UNL     1      25.970   2.665  51.405  1.00  0.00     0.184 A 
HETATM    6  N2  UNL     1      25.343   3.825  50.805  1.00  0.00    -0.381 N 
HETATM    7  H26 UNL     1      25.868   4.085  49.933  1.00  0.00     0.160 HD
ENDROOT
BRANCH   1   8
HETATM    8  C1  UNL     1      23.748   5.692  50.483  1.00  0.00     0.177 C 
HETATM    9  O1  UNL     1      23.785   6.867  50.936  1.00  0.00    -0.291 OA
BRANCH   8  10
HETATM   10  C2  UNL     1      23.215   5.482  49.110  1.00  0.00     0.115 C 
BRANCH  10  11
HETATM   11  C3  UNL     1      21.773   5.099  49.271  1.00  0.00     0.280 C 
BRANCH  11  12
HETATM   12  N1  UNL     1      21.290   4.072  48.427  1.00  0.00     0.088 N 
HETATM   13  C4  UNL     1      20.355   3.269  49.234  1.00  0.00     0.272 C 
HETATM   14  C5  UNL     1      21.111   2.402  50.234  1.00  0.00     0.030 C 
HETATM   15  C6  UNL     1      22.328   1.750  49.619  1.00  0.00     0.003 C 
HETATM   16  C7  UNL     1      22.145   1.817  48.127  1.00  0.00     0.030 C 
HETATM   17  C8  UNL     1      22.236   3.291  47.717  1.00  0.00     0.272 C 
ENDBRANCH  11  12
ENDBRANCH  10  11
ENDBRANCH   8  10
ENDBRANCH   1   8
BRANCH   4  18
HETATM   18  O2  UNL     1      25.620   1.215  53.410  1.00  0.00    -0.349 OA
BRANCH  18  19
HETATM   19  C13 UNL     1      25.920   0.003  52.782  1.00  0.00     0.214 C 
BRANCH  19  20
HETATM   20  C14 UNL     1      27.316  -0.421  53.056  1.00  0.00    -0.034 A 
HETATM   21  C15 UNL     1      27.715  -1.751  52.897  1.00  0.00     0.009 A 
HETATM   22  C16 UNL     1      29.025  -2.162  53.152  1.00  0.00     0.001 A 
HETATM   23  C17 UNL     1      29.960  -1.235  53.575  1.00  0.00     0.000 A 
HETATM   24  C18 UNL     1      29.602   0.099  53.746  1.00  0.00     0.001 A 
HETATM   25  C19 UNL     1      28.299   0.467  53.483  1.00  0.00     0.009 A 
ENDBRANCH  19  20
ENDBRANCH  18  19
ENDBRANCH   4  18
TORSDOF 7
ENDMDL
