MODEL 1
REMARK VINA RESULT:      -7.4      0.000      0.000
REMARK  9 active torsions:
REMARK  status: ('A' for Active; 'I' for Inactive)
REMARK    1  A    between atoms: C2_2  and  C13_18 
REMARK    2  A    between atoms: C3_3  and  C4_4 
REMARK    3  A    between atoms: C7_8  and  N2_9 
REMARK    4  A    between atoms: N2_9  and  C8_10 
REMARK    5  A    between atoms: N3_13  and  C11_14 
REMARK    6  A    between atoms: C11_14  and  O1_16 
REMARK    7  A    between atoms: C13_18  and  P1_19 
REMARK    8  A    between atoms: P1_19  and  C14_20 
REMARK    9  A    between atoms: C14_20  and  C15_21 
REMARK       I    between atoms: C15_21  and  N5_22 
ROOT
HETATM    1  C4  UNL     1      23.692   0.537  52.775  1.00  0.00     0.077 A 
HETATM    2  C5  UNL     1      22.646  -0.047  53.467  1.00  0.00     0.052 A 
HETATM    3  C6  UNL     1      22.880  -0.881  54.551  1.00  0.00     0.139 A 
HETATM    4  N1  UNL     1      24.177  -1.103  54.908  1.00  0.00    -0.075 NA
HETATM    5  C7  UNL     1      25.187  -0.530  54.226  1.00  0.00     0.724 A 
HETATM    6  N4  UNL     1      24.955   0.276  53.179  1.00  0.00    -0.063 NA
ENDROOT
BRANCH   1   7
HETATM    7  C3  UNL     1      23.366   1.396  51.662  1.00  0.00     0.035 C 
HETATM    8  C2  UNL     1      23.370   2.714  51.559  1.00  0.00    -0.078 C 
HETATM    9  C1  UNL     1      23.731   3.679  52.626  1.00  0.00     0.044 C 
BRANCH   8  10
HETATM   10  C13 UNL     1      22.971   3.321  50.253  1.00  0.00     0.065 C 
BRANCH  10  11
HETATM   11  P1  UNL     1      24.413   4.329  49.709  1.00  0.00    -0.116 P 
HETATM   12  H20 UNL     1      25.645   3.966  50.345  1.00  0.00     0.058 HD
BRANCH  11  13
HETATM   13  C14 UNL     1      24.082   6.130  49.626  1.00  0.00     0.134 C 
BRANCH  13  14
HETATM   14  C15 UNL     1      24.943   6.901  50.585  1.00  0.00     0.219 C 
HETATM   15  N5  UNL     1      24.424   7.109  51.916  1.00  0.00    -0.370 N 
HETATM   16  H23 UNL     1      24.649   6.693  52.852  1.00  0.00     0.159 HD
HETATM   17  H24 UNL     1      23.694   7.840  51.759  1.00  0.00     0.159 HD
HETATM   18  O2  UNL     1      26.056   7.318  50.176  1.00  0.00    -0.273 OA
ENDBRANCH  13  14
ENDBRANCH  11  13
ENDBRANCH  10  11
ENDBRANCH   8  10
ENDBRANCH   1   7
BRANCH   5  19
HETATM   19  N2  UNL     1      26.532  -0.787  54.620  1.00  0.00    -0.190 N 
HETATM   20  H7  UNL     1      26.741  -1.374  55.456  1.00  0.00     0.180 HD
BRANCH  19  21
HETATM   21  C8  UNL     1      27.560  -0.177  53.774  1.00  0.00     0.341 C 
HETATM   22  C9  UNL     1      28.385  -1.265  53.135  1.00  0.00     0.088 C 
HETATM   23  C10 UNL     1      29.475  -0.770  54.060  1.00  0.00     0.282 C 
HETATM   24  N3  UNL     1      28.697   0.355  54.481  1.00  0.00     0.140 N 
BRANCH  24  25
HETATM   25  C11 UNL     1      29.052   1.638  53.926  1.00  0.00     0.354 C 
HETATM   26  C12 UNL     1      27.865   2.457  53.492  1.00  0.00     0.073 C 
BRANCH  25  27
HETATM   27  O1  UNL     1      29.796   2.418  54.809  1.00  0.00    -0.368 OA
HETATM   28  H17 UNL     1      29.369   2.511  55.701  1.00  0.00     0.212 HD
ENDBRANCH  25  27
ENDBRANCH  24  25
ENDBRANCH  19  21
ENDBRANCH   5  19
TORSDOF 9
ENDMDL
MODEL 2
REMARK VINA RESULT:      -7.0      2.456      2.760
REMARK  9 active torsions:
REMARK  status: ('A' for Active; 'I' for Inactive)
REMARK    1  A    between atoms: C2_2  and  C13_18 
REMARK    2  A    between atoms: C3_3  and  C4_4 
REMARK    3  A    between atoms: C7_8  and  N2_9 
REMARK    4  A    between atoms: N2_9  and  C8_10 
REMARK    5  A    between atoms: N3_13  and  C11_14 
REMARK    6  A    between atoms: C11_14  and  O1_16 
REMARK    7  A    between atoms: C13_18  and  P1_19 
REMARK    8  A    between atoms: P1_19  and  C14_20 
REMARK    9  A    between atoms: C14_20  and  C15_21 
REMARK       I    between atoms: C15_21  and  N5_22 
ROOT
HETATM    1  C4  UNL     1      23.639   0.544  52.765  1.00  0.00     0.077 A 
HETATM    2  C5  UNL     1      22.593  -0.032  53.463  1.00  0.00     0.052 A 
HETATM    3  C6  UNL     1      22.828  -0.875  54.540  1.00  0.00     0.139 A 
HETATM    4  N1  UNL     1      24.126  -1.113  54.883  1.00  0.00    -0.075 NA
HETATM    5  C7  UNL     1      25.136  -0.548  54.194  1.00  0.00     0.724 A 
HETATM    6  N4  UNL     1      24.902   0.266  53.155  1.00  0.00    -0.063 NA
ENDROOT
BRANCH   1   7
HETATM    7  C3  UNL     1      23.311   1.413  51.660  1.00  0.00     0.035 C 
HETATM    8  C2  UNL     1      23.357   2.730  51.555  1.00  0.00    -0.078 C 
HETATM    9  C1  UNL     1      23.780   3.683  52.610  1.00  0.00     0.044 C 
BRANCH   8  10
HETATM   10  C13 UNL     1      22.943   3.349  50.259  1.00  0.00     0.065 C 
BRANCH  10  11
HETATM   11  P1  UNL     1      22.026   4.882  50.708  1.00  0.00    -0.116 P 
HETATM   12  H20 UNL     1      22.631   5.628  51.771  1.00  0.00     0.058 HD
BRANCH  11  13
HETATM   13  C14 UNL     1      20.212   4.657  50.851  1.00  0.00     0.134 C 
BRANCH  13  14
HETATM   14  C15 UNL     1      19.860   3.343  51.487  1.00  0.00     0.219 C 
HETATM   15  N5  UNL     1      19.352   2.306  50.621  1.00  0.00    -0.370 N 
HETATM   16  H23 UNL     1      19.763   1.422  50.234  1.00  0.00     0.159 HD
HETATM   17  H24 UNL     1      18.380   2.635  50.425  1.00  0.00     0.159 HD
HETATM   18  O2  UNL     1      20.026   3.224  52.728  1.00  0.00    -0.273 OA
ENDBRANCH  13  14
ENDBRANCH  11  13
ENDBRANCH  10  11
ENDBRANCH   8  10
ENDBRANCH   1   7
BRANCH   5  19
HETATM   19  N2  UNL     1      26.482  -0.822  54.574  1.00  0.00    -0.190 N 
HETATM   20  H7  UNL     1      26.692  -1.431  55.394  1.00  0.00     0.180 HD
BRANCH  19  21
HETATM   21  C8  UNL     1      27.508  -0.197  53.736  1.00  0.00     0.341 C 
HETATM   22  C9  UNL     1      28.389  -1.270  53.150  1.00  0.00     0.088 C 
HETATM   23  C10 UNL     1      29.435  -0.709  54.088  1.00  0.00     0.282 C 
HETATM   24  N3  UNL     1      28.605   0.397  54.457  1.00  0.00     0.140 N 
BRANCH  24  25
HETATM   25  C11 UNL     1      28.927   1.676  53.874  1.00  0.00     0.354 C 
HETATM   26  C12 UNL     1      27.717   2.509  53.540  1.00  0.00     0.073 C 
BRANCH  25  27
HETATM   27  O1  UNL     1      29.750   2.448  54.692  1.00  0.00    -0.368 OA
HETATM   28  H17 UNL     1      29.854   2.071  55.605  1.00  0.00     0.212 HD
ENDBRANCH  25  27
ENDBRANCH  24  25
ENDBRANCH  19  21
ENDBRANCH   5  19
TORSDOF 9
ENDMDL
MODEL 3
REMARK VINA RESULT:      -6.8      1.877      2.094
REMARK  9 active torsions:
REMARK  status: ('A' for Active; 'I' for Inactive)
REMARK    1  A    between atoms: C2_2  and  C13_18 
REMARK    2  A    between atoms: C3_3  and  C4_4 
REMARK    3  A    between atoms: C7_8  and  N2_9 
REMARK    4  A    between atoms: N2_9  and  C8_10 
REMARK    5  A    between atoms: N3_13  and  C11_14 
REMARK    6  A    between atoms: C11_14  and  O1_16 
REMARK    7  A    between atoms: C13_18  and  P1_19 
REMARK    8  A    between atoms: P1_19  and  C14_20 
REMARK    9  A    between atoms: C14_20  and  C15_21 
REMARK       I    between atoms: C15_21  and  N5_22 
ROOT
HETATM    1  C4  UNL     1      22.944   0.868  53.120  1.00  0.00     0.077 A 
HETATM    2  C5  UNL     1      21.919   0.289  53.846  1.00  0.00     0.052 A 
HETATM    3  C6  UNL     1      22.172  -0.727  54.757  1.00  0.00     0.139 A 
HETATM    4  N1  UNL     1      23.465  -1.131  54.909  1.00  0.00    -0.075 NA
HETATM    5  C7  UNL     1      24.454  -0.561  54.195  1.00  0.00     0.724 A 
HETATM    6  N4  UNL     1      24.204   0.421  53.317  1.00  0.00    -0.063 NA
ENDROOT
BRANCH   1   7
HETATM    7  C3  UNL     1      22.601   1.923  52.196  1.00  0.00     0.035 C 
HETATM    8  C2  UNL     1      21.979   1.880  51.030  1.00  0.00    -0.078 C 
HETATM    9  C1  UNL     1      21.456   0.667  50.356  1.00  0.00     0.044 C 
BRANCH   8  10
HETATM   10  C13 UNL     1      21.772   3.164  50.293  1.00  0.00     0.065 C 
BRANCH  10  11
HETATM   11  P1  UNL     1      23.266   4.184  50.637  1.00  0.00    -0.116 P 
HETATM   12  H20 UNL     1      22.970   5.517  51.069  1.00  0.00     0.058 HD
BRANCH  11  13
HETATM   13  C14 UNL     1      24.575   4.054  49.359  1.00  0.00     0.134 C 
BRANCH  13  14
HETATM   14  C15 UNL     1      25.890   3.630  49.948  1.00  0.00     0.219 C 
HETATM   15  N5  UNL     1      27.055   4.402  49.584  1.00  0.00    -0.370 N 
HETATM   16  H23 UNL     1      27.641   5.108  50.092  1.00  0.00     0.159 HD
HETATM   17  H24 UNL     1      27.231   4.092  48.602  1.00  0.00     0.159 HD
HETATM   18  O2  UNL     1      25.901   2.635  50.716  1.00  0.00    -0.273 OA
ENDBRANCH  13  14
ENDBRANCH  11  13
ENDBRANCH  10  11
ENDBRANCH   8  10
ENDBRANCH   1   7
BRANCH   5  19
HETATM   19  N2  UNL     1      25.795  -1.010  54.372  1.00  0.00    -0.190 N 
HETATM   20  H7  UNL     1      26.052  -1.620  55.178  1.00  0.00     0.180 HD
BRANCH  19  21
HETATM   21  C8  UNL     1      26.746  -0.558  53.355  1.00  0.00     0.341 C 
HETATM   22  C9  UNL     1      27.220  -1.747  52.558  1.00  0.00     0.088 C 
HETATM   23  C10 UNL     1      28.534  -1.505  53.267  1.00  0.00     0.282 C 
HETATM   24  N3  UNL     1      28.073  -0.277  53.841  1.00  0.00     0.140 N 
BRANCH  24  25
HETATM   25  C11 UNL     1      28.555   0.944  53.246  1.00  0.00     0.354 C 
HETATM   26  C12 UNL     1      27.803   2.171  53.690  1.00  0.00     0.073 C 
BRANCH  25  27
HETATM   27  O1  UNL     1      29.907   1.170  53.500  1.00  0.00    -0.368 OA
HETATM   28  H17 UNL     1      30.432   1.355  52.677  1.00  0.00     0.212 HD
ENDBRANCH  25  27
ENDBRANCH  24  25
ENDBRANCH  19  21
ENDBRANCH   5  19
TORSDOF 9
ENDMDL
MODEL 4
REMARK VINA RESULT:      -6.8      4.822      8.009
REMARK  9 active torsions:
REMARK  status: ('A' for Active; 'I' for Inactive)
REMARK    1  A    between atoms: C2_2  and  C13_18 
REMARK    2  A    between atoms: C3_3  and  C4_4 
REMARK    3  A    between atoms: C7_8  and  N2_9 
REMARK    4  A    between atoms: N2_9  and  C8_10 
REMARK    5  A    between atoms: N3_13  and  C11_14 
REMARK    6  A    between atoms: C11_14  and  O1_16 
REMARK    7  A    between atoms: C13_18  and  P1_19 
REMARK    8  A    between atoms: P1_19  and  C14_20 
REMARK    9  A    between atoms: C14_20  and  C15_21 
REMARK       I    between atoms: C15_21  and  N5_22 
ROOT
HETATM    1  C4  UNL     1      22.846   0.189  53.092  1.00  0.00     0.077 A 
HETATM    2  C5  UNL     1      22.722  -0.606  54.218  1.00  0.00     0.052 A 
HETATM    3  C6  UNL     1      21.475  -0.970  54.705  1.00  0.00     0.139 A 
HETATM    4  N1  UNL     1      20.378  -0.516  54.033  1.00  0.00    -0.075 NA
HETATM    5  C7  UNL     1      20.511   0.258  52.940  1.00  0.00     0.724 A 
HETATM    6  N4  UNL     1      21.719   0.606  52.474  1.00  0.00    -0.063 NA
ENDROOT
BRANCH   1   7
HETATM    7  C3  UNL     1      24.177   0.520  52.646  1.00  0.00     0.035 C 
HETATM    8  C2  UNL     1      24.819   1.676  52.627  1.00  0.00    -0.078 C 
HETATM    9  C1  UNL     1      24.290   2.983  53.088  1.00  0.00     0.044 C 
BRANCH   8  10
HETATM   10  C13 UNL     1      26.214   1.701  52.091  1.00  0.00     0.065 C 
BRANCH  10  11
HETATM   11  P1  UNL     1      27.040   0.206  52.779  1.00  0.00    -0.116 P 
HETATM   12  H20 UNL     1      26.255  -0.988  52.677  1.00  0.00     0.058 HD
BRANCH  11  13
HETATM   13  C14 UNL     1      27.841   0.472  54.406  1.00  0.00     0.134 C 
BRANCH  13  14
HETATM   14  C15 UNL     1      29.175   1.148  54.269  1.00  0.00     0.219 C 
HETATM   15  N5  UNL     1      30.167   0.491  53.451  1.00  0.00    -0.370 N 
HETATM   16  H23 UNL     1      30.552   0.676  52.493  1.00  0.00     0.159 HD
HETATM   17  H24 UNL     1      30.470  -0.301  54.062  1.00  0.00     0.159 HD
HETATM   18  O2  UNL     1      29.350   2.239  54.869  1.00  0.00    -0.273 OA
ENDBRANCH  13  14
ENDBRANCH  11  13
ENDBRANCH  10  11
ENDBRANCH   8  10
ENDBRANCH   1   7
BRANCH   5  19
HETATM   19  N2  UNL     1      19.345   0.722  52.264  1.00  0.00    -0.190 N 
HETATM   20  H7  UNL     1      19.161   1.742  52.156  1.00  0.00     0.180 HD
BRANCH  19  21
HETATM   21  C8  UNL     1      18.461  -0.326  51.750  1.00  0.00     0.341 C 
HETATM   22  C9  UNL     1      17.723   0.196  50.544  1.00  0.00     0.088 C 
HETATM   23  C10 UNL     1      16.517   0.157  51.456  1.00  0.00     0.282 C 
HETATM   24  N3  UNL     1      17.241  -0.515  52.492  1.00  0.00     0.140 N 
BRANCH  24  25
HETATM   25  C11 UNL     1      16.989  -1.925  52.655  1.00  0.00     0.354 C 
HETATM   26  C12 UNL     1      17.808  -2.562  53.747  1.00  0.00     0.073 C 
BRANCH  25  27
HETATM   27  O1  UNL     1      15.650  -2.205  52.922  1.00  0.00    -0.368 OA
HETATM   28  H17 UNL     1      15.474  -2.379  53.885  1.00  0.00     0.212 HD
ENDBRANCH  25  27
ENDBRANCH  24  25
ENDBRANCH  19  21
ENDBRANCH   5  19
TORSDOF 9
ENDMDL
MODEL 5
REMARK VINA RESULT:      -6.7      3.733      7.232
REMARK  9 active torsions:
REMARK  status: ('A' for Active; 'I' for Inactive)
REMARK    1  A    between atoms: C2_2  and  C13_18 
REMARK    2  A    between atoms: C3_3  and  C4_4 
REMARK    3  A    between atoms: C7_8  and  N2_9 
REMARK    4  A    between atoms: N2_9  and  C8_10 
REMARK    5  A    between atoms: N3_13  and  C11_14 
REMARK    6  A    between atoms: C11_14  and  O1_16 
REMARK    7  A    between atoms: C13_18  and  P1_19 
REMARK    8  A    between atoms: P1_19  and  C14_20 
REMARK    9  A    between atoms: C14_20  and  C15_21 
REMARK       I    between atoms: C15_21  and  N5_22 
ROOT
HETATM    1  C4  UNL     1      23.577   3.024  52.478  1.00  0.00     0.077 A 
HETATM    2  C5  UNL     1      23.486   4.397  52.335  1.00  0.00     0.052 A 
HETATM    3  C6  UNL     1      22.258   5.020  52.162  1.00  0.00     0.139 A 
HETATM    4  N1  UNL     1      21.147   4.229  52.138  1.00  0.00    -0.075 NA
HETATM    5  C7  UNL     1      21.249   2.894  52.277  1.00  0.00     0.724 A 
HETATM    6  N4  UNL     1      22.438   2.297  52.444  1.00  0.00    -0.063 NA
ENDROOT
BRANCH   1   7
HETATM    7  C3  UNL     1      24.890   2.452  52.658  1.00  0.00     0.035 C 
HETATM    8  C2  UNL     1      25.916   2.369  51.829  1.00  0.00    -0.078 C 
HETATM    9  C1  UNL     1      25.965   2.874  50.435  1.00  0.00     0.044 C 
BRANCH   8  10
HETATM   10  C13 UNL     1      27.163   1.703  52.314  1.00  0.00     0.065 C 
BRANCH  10  11
HETATM   11  P1  UNL     1      26.695   0.842  53.873  1.00  0.00    -0.116 P 
HETATM   12  H20 UNL     1      25.729   1.551  54.658  1.00  0.00     0.058 HD
BRANCH  11  13
HETATM   13  C14 UNL     1      28.117   0.167  54.814  1.00  0.00     0.134 C 
BRANCH  13  14
HETATM   14  C15 UNL     1      29.088  -0.551  53.921  1.00  0.00     0.219 C 
HETATM   15  N5  UNL     1      30.238   0.192  53.465  1.00  0.00    -0.370 N 
HETATM   16  H23 UNL     1      31.256   0.177  53.720  1.00  0.00     0.159 HD
HETATM   17  H24 UNL     1      29.823   0.826  52.745  1.00  0.00     0.159 HD
HETATM   18  O2  UNL     1      28.844  -1.748  53.624  1.00  0.00    -0.273 OA
ENDBRANCH  13  14
ENDBRANCH  11  13
ENDBRANCH  10  11
ENDBRANCH   8  10
ENDBRANCH   1   7
BRANCH   5  19
HETATM   19  N2  UNL     1      20.069   2.094  52.241  1.00  0.00    -0.190 N 
HETATM   20  H7  UNL     1      19.127   2.536  52.189  1.00  0.00     0.180 HD
BRANCH  19  21
HETATM   21  C8  UNL     1      20.293   0.648  52.279  1.00  0.00     0.341 C 
HETATM   22  C9  UNL     1      19.198  -0.043  51.506  1.00  0.00     0.088 C 
HETATM   23  C10 UNL     1      18.745  -0.518  52.869  1.00  0.00     0.282 C 
HETATM   24  N3  UNL     1      19.914   0.003  53.511  1.00  0.00     0.140 N 
BRANCH  24  25
HETATM   25  C11 UNL     1      20.929  -0.947  53.889  1.00  0.00     0.354 C 
HETATM   26  C12 UNL     1      22.070  -0.338  54.661  1.00  0.00     0.073 C 
BRANCH  25  27
HETATM   27  O1  UNL     1      20.425  -1.999  54.652  1.00  0.00    -0.368 OA
HETATM   28  H17 UNL     1      19.603  -2.401  54.264  1.00  0.00     0.212 HD
ENDBRANCH  25  27
ENDBRANCH  24  25
ENDBRANCH  19  21
ENDBRANCH   5  19
TORSDOF 9
ENDMDL
MODEL 6
REMARK VINA RESULT:      -6.7      3.436      5.077
REMARK  9 active torsions:
REMARK  status: ('A' for Active; 'I' for Inactive)
REMARK    1  A    between atoms: C2_2  and  C13_18 
REMARK    2  A    between atoms: C3_3  and  C4_4 
REMARK    3  A    between atoms: C7_8  and  N2_9 
REMARK    4  A    between atoms: N2_9  and  C8_10 
REMARK    5  A    between atoms: N3_13  and  C11_14 
REMARK    6  A    between atoms: C11_14  and  O1_16 
REMARK    7  A    between atoms: C13_18  and  P1_19 
REMARK    8  A    between atoms: P1_19  and  C14_20 
REMARK    9  A    between atoms: C14_20  and  C15_21 
REMARK       I    between atoms: C15_21  and  N5_22 
ROOT
HETATM    1  C4  UNL     1      24.432   2.302  52.008  1.00  0.00     0.077 A 
HETATM    2  C5  UNL     1      24.925   2.747  50.795  1.00  0.00     0.052 A 
HETATM    3  C6  UNL     1      26.289   2.882  50.581  1.00  0.00     0.139 A 
HETATM    4  N1  UNL     1      27.124   2.558  51.610  1.00  0.00    -0.075 NA
HETATM    5  C7  UNL     1      26.633   2.127  52.786  1.00  0.00     0.724 A 
HETATM    6  N4  UNL     1      25.313   1.999  52.988  1.00  0.00    -0.063 NA
ENDROOT
BRANCH   1   7
HETATM    7  C3  UNL     1      23.001   2.184  52.151  1.00  0.00     0.035 C 
HETATM    8  C2  UNL     1      22.066   3.112  52.268  1.00  0.00    -0.078 C 
HETATM    9  C1  UNL     1      22.280   4.580  52.280  1.00  0.00     0.044 C 
BRANCH   8  10
HETATM   10  C13 UNL     1      20.645   2.669  52.407  1.00  0.00     0.065 C 
BRANCH  10  11
HETATM   11  P1  UNL     1      20.597   0.940  51.775  1.00  0.00    -0.116 P 
HETATM   12  H20 UNL     1      20.102   0.826  50.436  1.00  0.00     0.058 HD
BRANCH  11  13
HETATM   13  C14 UNL     1      19.909  -0.275  52.964  1.00  0.00     0.134 C 
BRANCH  13  14
HETATM   14  C15 UNL     1      20.855  -0.545  54.098  1.00  0.00     0.219 C 
HETATM   15  N5  UNL     1      21.534  -1.819  54.103  1.00  0.00    -0.370 N 
HETATM   16  H23 UNL     1      22.518  -2.114  53.891  1.00  0.00     0.159 HD
HETATM   17  H24 UNL     1      20.773  -2.476  54.391  1.00  0.00     0.159 HD
HETATM   18  O2  UNL     1      20.999   0.347  54.972  1.00  0.00    -0.273 OA
ENDBRANCH  13  14
ENDBRANCH  11  13
ENDBRANCH  10  11
ENDBRANCH   8  10
ENDBRANCH   1   7
BRANCH   5  19
HETATM   19  N2  UNL     1      27.532   1.804  53.845  1.00  0.00    -0.190 N 
HETATM   20  H7  UNL     1      28.083   2.548  54.323  1.00  0.00     0.180 HD
BRANCH  19  21
HETATM   21  C8  UNL     1      27.606   0.383  54.190  1.00  0.00     0.341 C 
HETATM   22  C9  UNL     1      28.834   0.141  55.029  1.00  0.00     0.088 C 
HETATM   23  C10 UNL     1      29.344  -0.580  53.800  1.00  0.00     0.282 C 
HETATM   24  N3  UNL     1      28.080  -0.478  53.136  1.00  0.00     0.140 N 
BRANCH  24  25
HETATM   25  C11 UNL     1      27.270  -1.670  53.087  1.00  0.00     0.354 C 
HETATM   26  C12 UNL     1      26.302  -1.695  51.933  1.00  0.00     0.073 C 
BRANCH  25  27
HETATM   27  O1  UNL     1      28.032  -2.835  53.017  1.00  0.00    -0.368 OA
HETATM   28  H17 UNL     1      27.572  -3.623  53.411  1.00  0.00     0.212 HD
ENDBRANCH  25  27
ENDBRANCH  24  25
ENDBRANCH  19  21
ENDBRANCH   5  19
TORSDOF 9
ENDMDL
MODEL 7
REMARK VINA RESULT:      -6.6      3.549      4.932
REMARK  9 active torsions:
REMARK  status: ('A' for Active; 'I' for Inactive)
REMARK    1  A    between atoms: C2_2  and  C13_18 
REMARK    2  A    between atoms: C3_3  and  C4_4 
REMARK    3  A    between atoms: C7_8  and  N2_9 
REMARK    4  A    between atoms: N2_9  and  C8_10 
REMARK    5  A    between atoms: N3_13  and  C11_14 
REMARK    6  A    between atoms: C11_14  and  O1_16 
REMARK    7  A    between atoms: C13_18  and  P1_19 
REMARK    8  A    between atoms: P1_19  and  C14_20 
REMARK    9  A    between atoms: C14_20  and  C15_21 
REMARK       I    between atoms: C15_21  and  N5_22 
ROOT
HETATM    1  C4  UNL     1      24.509   2.215  51.971  1.00  0.00     0.077 A 
HETATM    2  C5  UNL     1      24.741   2.822  50.750  1.00  0.00     0.052 A 
HETATM    3  C6  UNL     1      26.033   3.071  50.307  1.00  0.00     0.139 A 
HETATM    4  N1  UNL     1      27.061   2.695  51.120  1.00  0.00    -0.075 NA
HETATM    5  C7  UNL     1      26.822   2.107  52.307  1.00  0.00     0.724 A 
HETATM    6  N4  UNL     1      25.572   1.868  52.729  1.00  0.00    -0.063 NA
ENDROOT
BRANCH   1   7
HETATM    7  C3  UNL     1      23.137   1.987  52.357  1.00  0.00     0.035 C 
HETATM    8  C2  UNL     1      22.549   0.913  52.857  1.00  0.00    -0.078 C 
HETATM    9  C1  UNL     1      23.197  -0.387  53.156  1.00  0.00     0.044 C 
BRANCH   8  10
HETATM   10  C13 UNL     1      21.086   0.985  53.156  1.00  0.00     0.065 C 
BRANCH  10  11
HETATM   11  P1  UNL     1      20.466   2.471  52.264  1.00  0.00    -0.116 P 
HETATM   12  H20 UNL     1      20.468   3.665  53.056  1.00  0.00     0.058 HD
BRANCH  11  13
HETATM   13  C14 UNL     1      18.934   2.183  51.298  1.00  0.00     0.134 C 
BRANCH  13  14
HETATM   14  C15 UNL     1      19.116   1.101  50.272  1.00  0.00     0.219 C 
HETATM   15  N5  UNL     1      17.955   0.313  49.933  1.00  0.00    -0.370 N 
HETATM   16  H23 UNL     1      17.320   0.284  49.099  1.00  0.00     0.159 HD
HETATM   17  H24 UNL     1      17.849  -0.302  50.772  1.00  0.00     0.159 HD
HETATM   18  O2  UNL     1      20.259   0.946  49.773  1.00  0.00    -0.273 OA
ENDBRANCH  13  14
ENDBRANCH  11  13
ENDBRANCH  10  11
ENDBRANCH   8  10
ENDBRANCH   1   7
BRANCH   5  19
HETATM   19  N2  UNL     1      27.919   1.731  53.136  1.00  0.00    -0.190 N 
HETATM   20  H7  UNL     1      28.737   2.366  53.259  1.00  0.00     0.180 HD
BRANCH  19  21
HETATM   21  C8  UNL     1      27.798   0.422  53.780  1.00  0.00     0.341 C 
HETATM   22  C9  UNL     1      28.824   0.314  54.879  1.00  0.00     0.088 C 
HETATM   23  C10 UNL     1      29.482  -0.688  53.956  1.00  0.00     0.282 C 
HETATM   24  N3  UNL     1      28.377  -0.675  53.046  1.00  0.00     0.140 N 
BRANCH  24  25
HETATM   25  C11 UNL     1      27.485  -1.806  53.088  1.00  0.00     0.354 C 
HETATM   26  C12 UNL     1      26.453  -1.803  51.990  1.00  0.00     0.073 C 
BRANCH  25  27
HETATM   27  O1  UNL     1      28.157  -3.025  53.022  1.00  0.00    -0.368 OA
HETATM   28  H17 UNL     1      27.567  -3.782  52.763  1.00  0.00     0.212 HD
ENDBRANCH  25  27
ENDBRANCH  24  25
ENDBRANCH  19  21
ENDBRANCH   5  19
TORSDOF 9
ENDMDL
MODEL 8
REMARK VINA RESULT:      -6.6      3.699      7.279
REMARK  9 active torsions:
REMARK  status: ('A' for Active; 'I' for Inactive)
REMARK    1  A    between atoms: C2_2  and  C13_18 
REMARK    2  A    between atoms: C3_3  and  C4_4 
REMARK    3  A    between atoms: C7_8  and  N2_9 
REMARK    4  A    between atoms: N2_9  and  C8_10 
REMARK    5  A    between atoms: N3_13  and  C11_14 
REMARK    6  A    between atoms: C11_14  and  O1_16 
REMARK    7  A    between atoms: C13_18  and  P1_19 
REMARK    8  A    between atoms: P1_19  and  C14_20 
REMARK    9  A    between atoms: C14_20  and  C15_21 
REMARK       I    between atoms: C15_21  and  N5_22 
ROOT
HETATM    1  C4  UNL     1      22.821   0.052  53.278  1.00  0.00     0.077 A 
HETATM    2  C5  UNL     1      22.672  -0.903  54.268  1.00  0.00     0.052 A 
HETATM    3  C6  UNL     1      21.427  -1.439  54.566  1.00  0.00     0.139 A 
HETATM    4  N1  UNL     1      20.359  -0.988  53.849  1.00  0.00    -0.075 NA
HETATM    5  C7  UNL     1      20.516  -0.057  52.890  1.00  0.00     0.724 A 
HETATM    6  N4  UNL     1      21.722   0.457  52.605  1.00  0.00    -0.063 NA
ENDROOT
BRANCH   1   7
HETATM    7  C3  UNL     1      24.149   0.557  53.025  1.00  0.00     0.035 C 
HETATM    8  C2  UNL     1      24.589   1.795  52.877  1.00  0.00    -0.078 C 
HETATM    9  C1  UNL     1      23.773   3.032  52.941  1.00  0.00     0.044 C 
BRANCH   8  10
HETATM   10  C13 UNL     1      26.046   2.000  52.614  1.00  0.00     0.065 C 
BRANCH  10  11
HETATM   11  P1  UNL     1      26.686   0.368  52.049  1.00  0.00    -0.116 P 
HETATM   12  H20 UNL     1      25.686  -0.476  51.466  1.00  0.00     0.058 HD
BRANCH  11  13
HETATM   13  C14 UNL     1      27.797  -0.459  53.250  1.00  0.00     0.134 C 
BRANCH  13  14
HETATM   14  C15 UNL     1      27.686   0.143  54.621  1.00  0.00     0.219 C 
HETATM   15  N5  UNL     1      28.700   1.095  55.008  1.00  0.00    -0.370 N 
HETATM   16  H23 UNL     1      28.710   2.139  55.112  1.00  0.00     0.159 HD
HETATM   17  H24 UNL     1      29.526   0.480  55.188  1.00  0.00     0.159 HD
HETATM   18  O2  UNL     1      26.724  -0.214  55.347  1.00  0.00    -0.273 OA
ENDBRANCH  13  14
ENDBRANCH  11  13
ENDBRANCH  10  11
ENDBRANCH   8  10
ENDBRANCH   1   7
BRANCH   5  19
HETATM   19  N2  UNL     1      19.377   0.398  52.162  1.00  0.00    -0.190 N 
HETATM   20  H7  UNL     1      18.456  -0.079  52.259  1.00  0.00     0.180 HD
BRANCH  19  21
HETATM   21  C8  UNL     1      19.609   1.557  51.298  1.00  0.00     0.341 C 
HETATM   22  C9  UNL     1      18.506   2.561  51.510  1.00  0.00     0.088 C 
HETATM   23  C10 UNL     1      18.079   2.157  50.115  1.00  0.00     0.282 C 
HETATM   24  N3  UNL     1      19.255   1.367  49.914  1.00  0.00     0.140 N 
BRANCH  24  25
HETATM   25  C11 UNL     1      20.282   1.929  49.072  1.00  0.00     0.354 C 
HETATM   26  C12 UNL     1      21.465   1.018  48.873  1.00  0.00     0.073 C 
BRANCH  25  27
HETATM   27  O1  UNL     1      19.810   2.281  47.809  1.00  0.00    -0.368 OA
HETATM   28  H17 UNL     1      19.851   3.260  47.638  1.00  0.00     0.212 HD
ENDBRANCH  25  27
ENDBRANCH  24  25
ENDBRANCH  19  21
ENDBRANCH   5  19
TORSDOF 9
ENDMDL
MODEL 9
REMARK VINA RESULT:      -6.6      3.187      4.462
REMARK  9 active torsions:
REMARK  status: ('A' for Active; 'I' for Inactive)
REMARK    1  A    between atoms: C2_2  and  C13_18 
REMARK    2  A    between atoms: C3_3  and  C4_4 
REMARK    3  A    between atoms: C7_8  and  N2_9 
REMARK    4  A    between atoms: N2_9  and  C8_10 
REMARK    5  A    between atoms: N3_13  and  C11_14 
REMARK    6  A    between atoms: C11_14  and  O1_16 
REMARK    7  A    between atoms: C13_18  and  P1_19 
REMARK    8  A    between atoms: P1_19  and  C14_20 
REMARK    9  A    between atoms: C14_20  and  C15_21 
REMARK       I    between atoms: C15_21  and  N5_22 
ROOT
HETATM    1  C4  UNL     1      25.643   3.296  49.989  1.00  0.00     0.077 A 
HETATM    2  C5  UNL     1      24.448   3.310  49.292  1.00  0.00     0.052 A 
HETATM    3  C6  UNL     1      23.289   2.783  49.845  1.00  0.00     0.139 A 
HETATM    4  N1  UNL     1      23.373   2.252  51.098  1.00  0.00    -0.075 NA
HETATM    5  C7  UNL     1      24.542   2.243  51.766  1.00  0.00     0.724 A 
HETATM    6  N4  UNL     1      25.658   2.754  51.227  1.00  0.00    -0.063 NA
ENDROOT
BRANCH   1   7
HETATM    7  C3  UNL     1      26.802   3.868  49.348  1.00  0.00     0.035 C 
HETATM    8  C2  UNL     1      27.061   5.112  48.983  1.00  0.00    -0.078 C 
HETATM    9  C1  UNL     1      26.168   6.283  49.155  1.00  0.00     0.044 C 
BRANCH   8  10
HETATM   10  C13 UNL     1      28.372   5.396  48.324  1.00  0.00     0.065 C 
BRANCH  10  11
HETATM   11  P1  UNL     1      28.341   7.188  47.901  1.00  0.00    -0.116 P 
HETATM   12  H20 UNL     1      28.135   7.450  46.508  1.00  0.00     0.058 HD
BRANCH  11  13
HETATM   13  C14 UNL     1      29.677   8.168  48.687  1.00  0.00     0.134 C 
BRANCH  13  14
HETATM   14  C15 UNL     1      29.133   9.341  49.451  1.00  0.00     0.219 C 
HETATM   15  N5  UNL     1      29.976  10.509  49.554  1.00  0.00    -0.370 N 
HETATM   16  H23 UNL     1      29.960  11.454  49.100  1.00  0.00     0.159 HD
HETATM   17  H24 UNL     1      30.694  10.205  50.250  1.00  0.00     0.159 HD
HETATM   18  O2  UNL     1      27.985   9.239  49.953  1.00  0.00    -0.273 OA
ENDBRANCH  13  14
ENDBRANCH  11  13
ENDBRANCH  10  11
ENDBRANCH   8  10
ENDBRANCH   1   7
BRANCH   5  19
HETATM   19  N2  UNL     1      24.597   1.674  53.072  1.00  0.00    -0.190 N 
HETATM   20  H7  UNL     1      23.988   2.033  53.837  1.00  0.00     0.180 HD
BRANCH  19  21
HETATM   21  C8  UNL     1      25.552   0.576  53.236  1.00  0.00     0.341 C 
HETATM   22  C9  UNL     1      24.890  -0.547  53.993  1.00  0.00     0.088 C 
HETATM   23  C10 UNL     1      25.830  -0.144  55.108  1.00  0.00     0.282 C 
HETATM   24  N3  UNL     1      26.538   0.773  54.268  1.00  0.00     0.140 N 
BRANCH  24  25
HETATM   25  C11 UNL     1      27.830   0.352  53.786  1.00  0.00     0.354 C 
HETATM   26  C12 UNL     1      28.759   1.495  53.472  1.00  0.00     0.073 C 
BRANCH  25  27
HETATM   27  O1  UNL     1      28.491  -0.487  54.682  1.00  0.00    -0.368 OA
HETATM   28  H17 UNL     1      27.965  -0.667  55.506  1.00  0.00     0.212 HD
ENDBRANCH  25  27
ENDBRANCH  24  25
ENDBRANCH  19  21
ENDBRANCH   5  19
TORSDOF 9
ENDMDL
