MODEL 1
REMARK VINA RESULT:      -9.9      0.000      0.000
REMARK  1 active torsions:
REMARK  status: ('A' for Active; 'I' for Inactive)
REMARK    1  A    between atoms: C10_13  and  C11_14 
ROOT
HETATM    1  C1  UNL     1      26.562   7.005  48.682  1.00  0.00     0.044 C 
HETATM    2  C2  UNL     1      26.170   5.780  48.958  1.00  0.00     0.037 A 
HETATM    3  N1  UNL     1      27.111   4.732  49.337  1.00  0.00    -0.323 N 
HETATM    4  C3  UNL     1      26.247   3.589  49.541  1.00  0.00     0.258 A 
HETATM    5  O1  UNL     1      26.795   2.483  49.887  1.00  0.00    -0.267 OA
HETATM    6  C4  UNL     1      24.848   3.891  49.310  1.00  0.00     0.057 A 
HETATM    7  C5  UNL     1      24.881   5.138  48.983  1.00  0.00     0.015 A 
HETATM    8  C6  UNL     1      23.716   5.966  48.620  1.00  0.00    -0.013 A 
HETATM    9  C7  UNL     1      23.064   5.854  47.416  1.00  0.00     0.096 A 
HETATM   10  N2  UNL     1      22.114   6.784  47.531  1.00  0.00    -0.373 N 
HETATM   11  C8  UNL     1      22.009   7.583  48.730  1.00  0.00     0.081 A 
HETATM   12  C9  UNL     1      21.078   8.750  49.291  1.00  0.00     0.062 A 
HETATM   13  C10 UNL     1      21.920   8.357  49.914  1.00  0.00    -0.038 A 
HETATM   14  C11 UNL     1      22.684   7.988  50.457  1.00  0.00    -0.051 A 
HETATM   15  C12 UNL     1      23.538   7.563  51.042  1.00  0.00     0.046 A 
HETATM   16  C13 UNL     1      23.192   7.006  49.580  1.00  0.00     0.051 A 
HETATM   17  C14 UNL     1      21.302   6.844  46.364  1.00  0.00     0.133 C 
HETATM   18  C15 UNL     1      21.162   5.477  45.737  1.00  0.00     0.131 C 
HETATM   19  C16 UNL     1      20.528   4.576  46.714  1.00  0.00     0.260 C 
HETATM   20  O2  UNL     1      20.358   5.470  47.604  1.00  0.00    -0.265 OA
HETATM   21  O3  UNL     1      20.164   3.250  46.834  1.00  0.00    -0.320 OA
HETATM   22  C17 UNL     1      19.556   2.857  48.043  1.00  0.00     0.198 C 
HETATM   23  C18 UNL     1      20.447   3.063  49.222  1.00  0.00     0.149 C 
HETATM   24  N3  UNL     1      21.695   2.323  49.173  1.00  0.00    -0.383 N 
HETATM   25  C19 UNL     1      22.931   2.571  48.498  1.00  0.00     0.099 C 
HETATM   26  C20 UNL     1      23.783   2.944  49.474  1.00  0.00     0.007 C 
HETATM   27  C21 UNL     1      23.690   2.351  50.833  1.00  0.00    -0.016 A 
HETATM   28  C22 UNL     1      24.540   2.730  51.848  1.00  0.00     0.013 A 
HETATM   29  C23 UNL     1      24.398   2.148  53.083  1.00  0.00     0.001 A 
HETATM   30  C24 UNL     1      23.442   1.183  53.407  1.00  0.00     0.001 A 
HETATM   31  C25 UNL     1      22.589   0.809  52.379  1.00  0.00     0.010 A 
HETATM   32  C26 UNL     1      22.725   1.386  51.140  1.00  0.00    -0.029 A 
HETATM   33  C27 UNL     1      21.834   1.093  49.951  1.00  0.00     0.161 C 
HETATM   34  H3  UNL     1      28.141   4.795  49.431  1.00  0.00     0.169 HD
ENDROOT
TORSDOF 1
ENDMDL
MODEL 2
REMARK VINA RESULT:      -9.1      2.802      6.339
REMARK  1 active torsions:
REMARK  status: ('A' for Active; 'I' for Inactive)
REMARK    1  A    between atoms: C10_13  and  C11_14 
ROOT
HETATM    1  C1  UNL     1      27.147   8.895  50.422  1.00  0.00     0.044 C 
HETATM    2  C2  UNL     1      26.240   9.036  49.480  1.00  0.00     0.037 A 
HETATM    3  N1  UNL     1      26.063  10.290  48.756  1.00  0.00    -0.323 N 
HETATM    4  C3  UNL     1      24.985   9.979  47.842  1.00  0.00     0.258 A 
HETATM    5  O1  UNL     1      24.586  10.907  47.052  1.00  0.00    -0.267 OA
HETATM    6  C4  UNL     1      24.509   8.615  47.973  1.00  0.00     0.057 A 
HETATM    7  C5  UNL     1      25.259   8.147  48.913  1.00  0.00     0.015 A 
HETATM    8  C6  UNL     1      25.192   6.784  49.471  1.00  0.00    -0.013 A 
HETATM    9  C7  UNL     1      24.188   6.366  50.310  1.00  0.00     0.096 A 
HETATM   10  N2  UNL     1      24.545   5.105  50.558  1.00  0.00    -0.373 N 
HETATM   11  C8  UNL     1      25.740   4.550  49.969  1.00  0.00     0.081 A 
HETATM   12  C9  UNL     1      26.522   3.160  49.974  1.00  0.00     0.062 A 
HETATM   13  C10 UNL     1      26.917   4.021  49.381  1.00  0.00    -0.038 A 
HETATM   14  C11 UNL     1      27.254   4.810  48.853  1.00  0.00    -0.051 A 
HETATM   15  C12 UNL     1      27.610   5.701  48.276  1.00  0.00     0.046 A 
HETATM   16  C13 UNL     1      26.264   5.774  49.142  1.00  0.00     0.051 A 
HETATM   17  C14 UNL     1      23.621   4.467  51.433  1.00  0.00     0.133 C 
HETATM   18  C15 UNL     1      22.221   4.985  51.206  1.00  0.00     0.131 C 
HETATM   19  C16 UNL     1      21.836   4.701  49.814  1.00  0.00     0.260 C 
HETATM   20  O2  UNL     1      22.906   4.077  49.522  1.00  0.00    -0.265 OA
HETATM   21  O3  UNL     1      20.781   4.925  48.952  1.00  0.00    -0.320 OA
HETATM   22  C17 UNL     1      20.905   4.424  47.641  1.00  0.00     0.198 C 
HETATM   23  C18 UNL     1      22.061   5.019  46.910  1.00  0.00     0.149 C 
HETATM   24  N3  UNL     1      22.001   6.461  46.755  1.00  0.00    -0.383 N 
HETATM   25  C19 UNL     1      22.319   7.535  47.645  1.00  0.00     0.099 C 
HETATM   26  C20 UNL     1      23.472   8.044  47.165  1.00  0.00     0.007 C 
HETATM   27  C21 UNL     1      23.740   8.076  45.705  1.00  0.00    -0.016 A 
HETATM   28  C22 UNL     1      24.918   8.577  45.196  1.00  0.00     0.013 A 
HETATM   29  C23 UNL     1      25.107   8.572  43.836  1.00  0.00     0.001 A 
HETATM   30  C24 UNL     1      24.187   8.091  42.903  1.00  0.00     0.001 A 
HETATM   31  C25 UNL     1      23.004   7.586  43.424  1.00  0.00     0.010 A 
HETATM   32  C26 UNL     1      22.808   7.588  44.783  1.00  0.00    -0.029 A 
HETATM   33  C27 UNL     1      21.581   7.031  45.476  1.00  0.00     0.161 C 
HETATM   34  H3  UNL     1      26.580  11.180  48.874  1.00  0.00     0.169 HD
ENDROOT
TORSDOF 1
ENDMDL
MODEL 3
REMARK VINA RESULT:      -9.0      6.323     10.086
REMARK  1 active torsions:
REMARK  status: ('A' for Active; 'I' for Inactive)
REMARK    1  A    between atoms: C10_13  and  C11_14 
ROOT
HETATM    1  C1  UNL     1      31.686   5.813  50.718  1.00  0.00     0.044 C 
HETATM    2  C2  UNL     1      32.249   6.147  49.576  1.00  0.00     0.037 A 
HETATM    3  N1  UNL     1      33.598   5.721  49.223  1.00  0.00    -0.323 N 
HETATM    4  C3  UNL     1      33.782   6.306  47.912  1.00  0.00     0.258 A 
HETATM    5  O1  UNL     1      34.903   6.108  47.323  1.00  0.00    -0.267 OA
HETATM    6  C4  UNL     1      32.625   7.054  47.460  1.00  0.00     0.057 A 
HETATM    7  C5  UNL     1      31.804   6.922  48.447  1.00  0.00     0.015 A 
HETATM    8  C6  UNL     1      30.453   7.508  48.530  1.00  0.00    -0.013 A 
HETATM    9  C7  UNL     1      30.228   8.844  48.755  1.00  0.00     0.096 A 
HETATM   10  N2  UNL     1      28.895   8.901  48.760  1.00  0.00    -0.373 N 
HETATM   11  C8  UNL     1      28.109   7.707  48.556  1.00  0.00     0.081 A 
HETATM   12  C9  UNL     1      26.565   7.312  48.479  1.00  0.00     0.062 A 
HETATM   13  C10 UNL     1      27.351   6.526  48.354  1.00  0.00    -0.038 A 
HETATM   14  C11 UNL     1      28.076   5.835  48.244  1.00  0.00    -0.051 A 
HETATM   15  C12 UNL     1      28.899   5.086  48.126  1.00  0.00     0.046 A 
HETATM   16  C13 UNL     1      29.234   6.632  48.378  1.00  0.00     0.051 A 
HETATM   17  C14 UNL     1      28.433  10.227  48.987  1.00  0.00     0.133 C 
HETATM   18  C15 UNL     1      29.382  11.237  48.385  1.00  0.00     0.131 C 
HETATM   19  C16 UNL     1      29.459  10.999  46.934  1.00  0.00     0.260 C 
HETATM   20  O2  UNL     1      28.597  10.063  46.923  1.00  0.00    -0.265 OA
HETATM   21  O3  UNL     1      30.131  11.480  45.828  1.00  0.00    -0.320 OA
HETATM   22  C17 UNL     1      29.837  10.881  44.587  1.00  0.00     0.198 C 
HETATM   23  C18 UNL     1      30.165   9.426  44.565  1.00  0.00     0.149 C 
HETATM   24  N3  UNL     1      31.562   9.116  44.808  1.00  0.00    -0.383 N 
HETATM   25  C19 UNL     1      32.329   9.026  46.013  1.00  0.00     0.099 C 
HETATM   26  C20 UNL     1      32.535   7.705  46.186  1.00  0.00     0.007 C 
HETATM   27  C21 UNL     1      32.723   6.805  45.020  1.00  0.00    -0.016 A 
HETATM   28  C22 UNL     1      32.919   5.450  45.175  1.00  0.00     0.013 A 
HETATM   29  C23 UNL     1      33.080   4.673  44.055  1.00  0.00     0.001 A 
HETATM   30  C24 UNL     1      33.060   5.146  42.742  1.00  0.00     0.001 A 
HETATM   31  C25 UNL     1      32.859   6.511  42.595  1.00  0.00     0.010 A 
HETATM   32  C26 UNL     1      32.698   7.297  43.710  1.00  0.00    -0.029 A 
HETATM   33  C27 UNL     1      32.434   8.788  43.682  1.00  0.00     0.161 C 
HETATM   34  H3  UNL     1      34.257   5.145  49.778  1.00  0.00     0.169 HD
ENDROOT
TORSDOF 1
ENDMDL
MODEL 4
REMARK VINA RESULT:      -9.0      2.537      5.325
REMARK  1 active torsions:
REMARK  status: ('A' for Active; 'I' for Inactive)
REMARK    1  A    between atoms: C10_13  and  C11_14 
ROOT
HETATM    1  C1  UNL     1      18.521   1.102  49.707  1.00  0.00     0.044 C 
HETATM    2  C2  UNL     1      19.367   1.369  50.679  1.00  0.00     0.037 A 
HETATM    3  N1  UNL     1      19.363   0.630  51.936  1.00  0.00    -0.323 N 
HETATM    4  C3  UNL     1      20.438   1.255  52.676  1.00  0.00     0.258 A 
HETATM    5  O1  UNL     1      20.686   0.816  53.854  1.00  0.00    -0.267 OA
HETATM    6  C4  UNL     1      21.087   2.321  51.936  1.00  0.00     0.057 A 
HETATM    7  C5  UNL     1      20.430   2.330  50.825  1.00  0.00     0.015 A 
HETATM    8  C6  UNL     1      20.662   3.246  49.693  1.00  0.00    -0.013 A 
HETATM    9  C7  UNL     1      20.294   4.569  49.712  1.00  0.00     0.096 A 
HETATM   10  N2  UNL     1      20.682   4.979  48.503  1.00  0.00    -0.373 N 
HETATM   11  C8  UNL     1      21.311   4.062  47.583  1.00  0.00     0.081 A 
HETATM   12  C9  UNL     1      21.916   4.101  46.108  1.00  0.00     0.062 A 
HETATM   13  C10 UNL     1      21.928   3.148  46.692  1.00  0.00    -0.038 A 
HETATM   14  C11 UNL     1      21.929   2.300  47.237  1.00  0.00    -0.051 A 
HETATM   15  C12 UNL     1      21.918   1.371  47.861  1.00  0.00     0.046 A 
HETATM   16  C13 UNL     1      21.319   2.744  48.431  1.00  0.00     0.051 A 
HETATM   17  C14 UNL     1      20.386   6.357  48.303  1.00  0.00     0.133 C 
HETATM   18  C15 UNL     1      20.495   7.124  49.600  1.00  0.00     0.131 C 
HETATM   19  C16 UNL     1      21.873   6.999  50.103  1.00  0.00     0.260 C 
HETATM   20  O2  UNL     1      22.301   6.332  49.107  1.00  0.00    -0.265 OA
HETATM   21  O3  UNL     1      22.627   7.376  51.196  1.00  0.00    -0.320 OA
HETATM   22  C17 UNL     1      23.981   6.986  51.208  1.00  0.00     0.198 C 
HETATM   23  C18 UNL     1      24.147   5.504  51.187  1.00  0.00     0.149 C 
HETATM   24  N3  UNL     1      23.549   4.813  52.315  1.00  0.00    -0.383 N 
HETATM   25  C19 UNL     1      22.203   4.418  52.593  1.00  0.00     0.099 C 
HETATM   26  C20 UNL     1      22.199   3.080  52.427  1.00  0.00     0.007 C 
HETATM   27  C21 UNL     1      23.389   2.266  52.786  1.00  0.00    -0.016 A 
HETATM   28  C22 UNL     1      23.412   0.900  52.609  1.00  0.00     0.013 A 
HETATM   29  C23 UNL     1      24.544   0.207  52.956  1.00  0.00     0.001 A 
HETATM   30  C24 UNL     1      25.703   0.779  53.484  1.00  0.00     0.001 A 
HETATM   31  C25 UNL     1      25.672   2.156  53.657  1.00  0.00     0.010 A 
HETATM   32  C26 UNL     1      24.542   2.857  53.313  1.00  0.00    -0.029 A 
HETATM   33  C27 UNL     1      24.398   4.361  53.416  1.00  0.00     0.161 C 
HETATM   34  H3  UNL     1      18.740  -0.147  52.224  1.00  0.00     0.169 HD
ENDROOT
TORSDOF 1
ENDMDL
MODEL 5
REMARK VINA RESULT:      -9.0      1.821      5.733
REMARK  1 active torsions:
REMARK  status: ('A' for Active; 'I' for Inactive)
REMARK    1  A    between atoms: C10_13  and  C11_14 
ROOT
HETATM    1  C1  UNL     1      24.533   7.774  51.150  1.00  0.00     0.044 C 
HETATM    2  C2  UNL     1      23.556   7.377  50.364  1.00  0.00     0.037 A 
HETATM    3  N1  UNL     1      22.680   8.319  49.678  1.00  0.00    -0.323 N 
HETATM    4  C3  UNL     1      21.786   7.447  48.947  1.00  0.00     0.258 A 
HETATM    5  O1  UNL     1      20.873   7.993  48.231  1.00  0.00    -0.267 OA
HETATM    6  C4  UNL     1      22.076   6.041  49.152  1.00  0.00     0.057 A 
HETATM    7  C5  UNL     1      23.080   6.078  49.961  1.00  0.00     0.015 A 
HETATM    8  C6  UNL     1      23.780   4.907  50.522  1.00  0.00    -0.013 A 
HETATM    9  C7  UNL     1      23.244   4.118  51.510  1.00  0.00     0.096 A 
HETATM   10  N2  UNL     1      24.212   3.219  51.698  1.00  0.00    -0.373 N 
HETATM   11  C8  UNL     1      25.430   3.279  50.926  1.00  0.00     0.081 A 
HETATM   12  C9  UNL     1      26.792   2.458  50.807  1.00  0.00     0.062 A 
HETATM   13  C10 UNL     1      26.620   3.353  50.159  1.00  0.00    -0.038 A 
HETATM   14  C11 UNL     1      26.443   4.161  49.584  1.00  0.00    -0.051 A 
HETATM   15  C12 UNL     1      26.224   5.063  48.958  1.00  0.00     0.046 A 
HETATM   16  C13 UNL     1      25.155   4.532  50.027  1.00  0.00     0.051 A 
HETATM   17  C14 UNL     1      23.859   2.281  52.708  1.00  0.00     0.133 C 
HETATM   18  C15 UNL     1      22.371   2.023  52.708  1.00  0.00     0.131 C 
HETATM   19  C16 UNL     1      21.991   1.477  51.394  1.00  0.00     0.260 C 
HETATM   20  O2  UNL     1      23.178   1.440  50.935  1.00  0.00    -0.265 OA
HETATM   21  O3  UNL     1      20.858   1.085  50.711  1.00  0.00    -0.320 OA
HETATM   22  C17 UNL     1      21.033   0.607  49.396  1.00  0.00     0.198 C 
HETATM   23  C18 UNL     1      21.625   1.634  48.491  1.00  0.00     0.149 C 
HETATM   24  N3  UNL     1      20.835   2.843  48.348  1.00  0.00    -0.383 N 
HETATM   25  C19 UNL     1      20.694   4.001  49.176  1.00  0.00     0.099 C 
HETATM   26  C20 UNL     1      21.361   4.972  48.519  1.00  0.00     0.007 C 
HETATM   27  C21 UNL     1      21.374   5.016  47.034  1.00  0.00    -0.016 A 
HETATM   28  C22 UNL     1      22.062   5.989  46.345  1.00  0.00     0.013 A 
HETATM   29  C23 UNL     1      22.039   5.970  44.973  1.00  0.00     0.001 A 
HETATM   30  C24 UNL     1      21.362   5.027  44.197  1.00  0.00     0.001 A 
HETATM   31  C25 UNL     1      20.673   4.049  44.900  1.00  0.00     0.010 A 
HETATM   32  C26 UNL     1      20.691   4.061  46.273  1.00  0.00    -0.029 A 
HETATM   33  C27 UNL     1      20.014   3.030  47.152  1.00  0.00     0.161 C 
HETATM   34  H3  UNL     1      22.696   9.355  49.712  1.00  0.00     0.169 HD
ENDROOT
TORSDOF 1
ENDMDL
MODEL 6
REMARK VINA RESULT:      -8.6      2.020      5.248
REMARK  1 active torsions:
REMARK  status: ('A' for Active; 'I' for Inactive)
REMARK    1  A    between atoms: C10_13  and  C11_14 
ROOT
HETATM    1  C1  UNL     1      21.806   1.440  49.804  1.00  0.00     0.044 C 
HETATM    2  C2  UNL     1      22.717   2.348  50.086  1.00  0.00     0.037 A 
HETATM    3  N1  UNL     1      23.857   2.061  50.948  1.00  0.00    -0.323 N 
HETATM    4  C3  UNL     1      24.567   3.322  50.965  1.00  0.00     0.258 A 
HETATM    5  O1  UNL     1      25.642   3.391  51.661  1.00  0.00    -0.267 OA
HETATM    6  C4  UNL     1      23.923   4.344  50.163  1.00  0.00     0.057 A 
HETATM    7  C5  UNL     1      22.888   3.725  49.701  1.00  0.00     0.015 A 
HETATM    8  C6  UNL     1      21.856   4.307  48.824  1.00  0.00    -0.013 A 
HETATM    9  C7  UNL     1      20.904   5.191  49.272  1.00  0.00     0.096 A 
HETATM   10  N2  UNL     1      20.204   5.426  48.160  1.00  0.00    -0.373 N 
HETATM   11  C8  UNL     1      20.561   4.784  46.918  1.00  0.00     0.081 A 
HETATM   12  C9  UNL     1      20.044   4.766  45.409  1.00  0.00     0.062 A 
HETATM   13  C10 UNL     1      20.925   4.145  45.706  1.00  0.00    -0.038 A 
HETATM   14  C11 UNL     1      21.718   3.594  45.995  1.00  0.00    -0.051 A 
HETATM   15  C12 UNL     1      22.595   2.991  46.341  1.00  0.00     0.046 A 
HETATM   16  C13 UNL     1      21.797   3.931  47.364  1.00  0.00     0.051 A 
HETATM   17  C14 UNL     1      19.138   6.337  48.402  1.00  0.00     0.133 C 
HETATM   18  C15 UNL     1      19.519   7.341  49.463  1.00  0.00     0.131 C 
HETATM   19  C16 UNL     1      20.693   8.095  48.994  1.00  0.00     0.260 C 
HETATM   20  O2  UNL     1      20.747   7.530  47.855  1.00  0.00    -0.265 OA
HETATM   21  O3  UNL     1      21.558   9.073  49.443  1.00  0.00    -0.320 OA
HETATM   22  C17 UNL     1      22.585   9.475  48.565  1.00  0.00     0.198 C 
HETATM   23  C18 UNL     1      23.506   8.355  48.215  1.00  0.00     0.149 C 
HETATM   24  N3  UNL     1      24.193   7.761  49.347  1.00  0.00    -0.383 N 
HETATM   25  C19 UNL     1      23.781   6.799  50.322  1.00  0.00     0.099 C 
HETATM   26  C20 UNL     1      24.437   5.670  49.985  1.00  0.00     0.007 C 
HETATM   27  C21 UNL     1      25.806   5.728  49.411  1.00  0.00    -0.016 A 
HETATM   28  C22 UNL     1      26.486   4.588  49.045  1.00  0.00     0.013 A 
HETATM   29  C23 UNL     1      27.746   4.711  48.515  1.00  0.00     0.001 A 
HETATM   30  C24 UNL     1      28.413   5.920  48.308  1.00  0.00     0.001 A 
HETATM   31  C25 UNL     1      27.719   7.063  48.678  1.00  0.00     0.010 A 
HETATM   32  C26 UNL     1      26.458   6.949  49.209  1.00  0.00    -0.029 A 
HETATM   33  C27 UNL     1      25.586   8.119  49.614  1.00  0.00     0.161 C 
HETATM   34  H3  UNL     1      24.093   1.174  51.429  1.00  0.00     0.169 HD
ENDROOT
TORSDOF 1
ENDMDL
MODEL 7
REMARK VINA RESULT:      -8.6      2.525      5.218
REMARK  1 active torsions:
REMARK  status: ('A' for Active; 'I' for Inactive)
REMARK    1  A    between atoms: C10_13  and  C11_14 
ROOT
HETATM    1  C1  UNL     1      17.585   4.713  48.084  1.00  0.00     0.044 C 
HETATM    2  C2  UNL     1      18.325   4.472  49.145  1.00  0.00     0.037 A 
HETATM    3  N1  UNL     1      17.820   3.717  50.286  1.00  0.00    -0.323 N 
HETATM    4  C3  UNL     1      18.955   3.702  51.184  1.00  0.00     0.258 A 
HETATM    5  O1  UNL     1      18.819   3.100  52.308  1.00  0.00    -0.267 OA
HETATM    6  C4  UNL     1      20.108   4.399  50.648  1.00  0.00     0.057 A 
HETATM    7  C5  UNL     1      19.679   4.807  49.501  1.00  0.00     0.015 A 
HETATM    8  C6  UNL     1      20.449   5.600  48.525  1.00  0.00    -0.013 A 
HETATM    9  C7  UNL     1      20.725   6.935  48.695  1.00  0.00     0.096 A 
HETATM   10  N2  UNL     1      21.412   7.217  47.586  1.00  0.00    -0.373 N 
HETATM   11  C8  UNL     1      21.669   6.193  46.601  1.00  0.00     0.081 A 
HETATM   12  C9  UNL     1      22.413   6.069  45.196  1.00  0.00     0.062 A 
HETATM   13  C10 UNL     1      21.913   5.175  45.645  1.00  0.00    -0.038 A 
HETATM   14  C11 UNL     1      21.456   4.383  46.068  1.00  0.00    -0.051 A 
HETATM   15  C12 UNL     1      20.941   3.518  46.558  1.00  0.00     0.046 A 
HETATM   16  C13 UNL     1      20.965   4.958  47.260  1.00  0.00     0.051 A 
HETATM   17  C14 UNL     1      21.804   8.584  47.553  1.00  0.00     0.133 C 
HETATM   18  C15 UNL     1      22.080   9.099  48.945  1.00  0.00     0.131 C 
HETATM   19  C16 UNL     1      23.171   8.303  49.531  1.00  0.00     0.260 C 
HETATM   20  O2  UNL     1      23.375   7.600  48.490  1.00  0.00    -0.265 OA
HETATM   21  O3  UNL     1      23.863   8.190  50.720  1.00  0.00    -0.320 OA
HETATM   22  C17 UNL     1      24.877   7.213  50.783  1.00  0.00     0.198 C 
HETATM   23  C18 UNL     1      24.351   5.832  50.575  1.00  0.00     0.149 C 
HETATM   24  N3  UNL     1      23.362   5.409  51.549  1.00  0.00    -0.383 N 
HETATM   25  C19 UNL     1      21.959   5.667  51.667  1.00  0.00     0.099 C 
HETATM   26  C20 UNL     1      21.369   4.505  51.321  1.00  0.00     0.007 C 
HETATM   27  C21 UNL     1      21.999   3.202  51.657  1.00  0.00    -0.016 A 
HETATM   28  C22 UNL     1      21.421   2.005  51.299  1.00  0.00     0.013 A 
HETATM   29  C23 UNL     1      22.057   0.836  51.635  1.00  0.00     0.001 A 
HETATM   30  C24 UNL     1      23.269   0.754  52.323  1.00  0.00     0.001 A 
HETATM   31  C25 UNL     1      23.846   1.965  52.678  1.00  0.00     0.010 A 
HETATM   32  C26 UNL     1      23.215   3.139  52.346  1.00  0.00    -0.029 A 
HETATM   33  C27 UNL     1      23.759   4.521  52.641  1.00  0.00     0.161 C 
HETATM   34  H3  UNL     1      16.881   3.300  50.417  1.00  0.00     0.169 HD
ENDROOT
TORSDOF 1
ENDMDL
MODEL 8
REMARK VINA RESULT:      -8.4      2.926      5.730
REMARK  1 active torsions:
REMARK  status: ('A' for Active; 'I' for Inactive)
REMARK    1  A    between atoms: C10_13  and  C11_14 
ROOT
HETATM    1  C1  UNL     1      20.237   4.024  49.396  1.00  0.00     0.044 C 
HETATM    2  C2  UNL     1      21.372   4.668  49.560  1.00  0.00     0.037 A 
HETATM    3  N1  UNL     1      22.139   4.586  50.798  1.00  0.00    -0.323 N 
HETATM    4  C3  UNL     1      23.280   5.431  50.522  1.00  0.00     0.258 A 
HETATM    5  O1  UNL     1      24.158   5.568  51.445  1.00  0.00    -0.267 OA
HETATM    6  C4  UNL     1      23.244   6.011  49.193  1.00  0.00     0.057 A 
HETATM    7  C5  UNL     1      22.143   5.541  48.712  1.00  0.00     0.015 A 
HETATM    8  C6  UNL     1      21.594   5.827  47.374  1.00  0.00    -0.013 A 
HETATM    9  C7  UNL     1      21.014   7.028  47.044  1.00  0.00     0.096 A 
HETATM   10  N2  UNL     1      20.666   6.824  45.772  1.00  0.00    -0.373 N 
HETATM   11  C8  UNL     1      20.940   5.560  45.129  1.00  0.00     0.081 A 
HETATM   12  C9  UNL     1      20.722   4.895  43.696  1.00  0.00     0.062 A 
HETATM   13  C10 UNL     1      21.218   4.314  44.513  1.00  0.00    -0.038 A 
HETATM   14  C11 UNL     1      21.662   3.809  45.263  1.00  0.00    -0.051 A 
HETATM   15  C12 UNL     1      22.152   3.269  46.112  1.00  0.00     0.046 A 
HETATM   16  C13 UNL     1      21.637   4.776  46.292  1.00  0.00     0.051 A 
HETATM   17  C14 UNL     1      20.029   7.969  45.218  1.00  0.00     0.133 C 
HETATM   18  C15 UNL     1      20.595   9.238  45.810  1.00  0.00     0.131 C 
HETATM   19  C16 UNL     1      22.033   9.296  45.504  1.00  0.00     0.260 C 
HETATM   20  O2  UNL     1      22.049   8.230  44.809  1.00  0.00    -0.265 OA
HETATM   21  O3  UNL     1      23.128  10.097  45.762  1.00  0.00    -0.320 OA
HETATM   22  C17 UNL     1      24.362   9.695  45.212  1.00  0.00     0.198 C 
HETATM   23  C18 UNL     1      24.803   8.362  45.714  1.00  0.00     0.149 C 
HETATM   24  N3  UNL     1      24.993   8.289  47.151  1.00  0.00    -0.383 N 
HETATM   25  C19 UNL     1      24.072   8.125  48.233  1.00  0.00     0.099 C 
HETATM   26  C20 UNL     1      24.268   6.860  48.658  1.00  0.00     0.007 C 
HETATM   27  C21 UNL     1      25.621   6.248  48.626  1.00  0.00    -0.016 A 
HETATM   28  C22 UNL     1      25.840   4.953  49.040  1.00  0.00     0.013 A 
HETATM   29  C23 UNL     1      27.113   4.445  48.980  1.00  0.00     0.001 A 
HETATM   30  C24 UNL     1      28.233   5.144  48.524  1.00  0.00     0.001 A 
HETATM   31  C25 UNL     1      28.003   6.447  48.107  1.00  0.00     0.010 A 
HETATM   32  C26 UNL     1      26.732   6.963  48.164  1.00  0.00    -0.029 A 
HETATM   33  C27 UNL     1      26.345   8.353  47.703  1.00  0.00     0.161 C 
HETATM   34  H3  UNL     1      21.915   4.054  51.659  1.00  0.00     0.169 HD
ENDROOT
TORSDOF 1
ENDMDL
MODEL 9
REMARK VINA RESULT:      -8.2      1.722      6.555
REMARK  1 active torsions:
REMARK  status: ('A' for Active; 'I' for Inactive)
REMARK    1  A    between atoms: C10_13  and  C11_14 
ROOT
HETATM    1  C1  UNL     1      21.087   1.492  48.584  1.00  0.00     0.044 C 
HETATM    2  C2  UNL     1      21.122   2.752  48.209  1.00  0.00     0.037 A 
HETATM    3  N1  UNL     1      20.159   3.308  47.266  1.00  0.00    -0.323 N 
HETATM    4  C3  UNL     1      20.577   4.689  47.161  1.00  0.00     0.258 A 
HETATM    5  O1  UNL     1      19.910   5.457  46.381  1.00  0.00    -0.267 OA
HETATM    6  C4  UNL     1      21.730   4.994  47.986  1.00  0.00     0.057 A 
HETATM    7  C5  UNL     1      21.983   3.858  48.543  1.00  0.00     0.015 A 
HETATM    8  C6  UNL     1      23.085   3.585  49.485  1.00  0.00    -0.013 A 
HETATM    9  C7  UNL     1      24.396   3.480  49.092  1.00  0.00     0.096 A 
HETATM   10  N2  UNL     1      25.010   3.224  50.249  1.00  0.00    -0.373 N 
HETATM   11  C8  UNL     1      24.253   3.128  51.476  1.00  0.00     0.081 A 
HETATM   12  C9  UNL     1      24.542   2.858  53.021  1.00  0.00     0.062 A 
HETATM   13  C10 UNL     1      23.496   3.038  52.670  1.00  0.00    -0.038 A 
HETATM   14  C11 UNL     1      22.561   3.204  52.333  1.00  0.00    -0.051 A 
HETATM   15  C12 UNL     1      21.532   3.390  51.934  1.00  0.00     0.046 A 
HETATM   16  C13 UNL     1      22.800   3.392  50.954  1.00  0.00     0.051 A 
HETATM   17  C14 UNL     1      26.413   3.071  50.070  1.00  0.00     0.133 C 
HETATM   18  C15 UNL     1      26.913   3.960  48.957  1.00  0.00     0.131 C 
HETATM   19  C16 UNL     1      26.626   5.360  49.312  1.00  0.00     0.260 C 
HETATM   20  O2  UNL     1      26.140   5.093  50.458  1.00  0.00    -0.265 OA
HETATM   21  O3  UNL     1      26.750   6.625  48.772  1.00  0.00    -0.320 OA
HETATM   22  C17 UNL     1      26.297   7.705  49.555  1.00  0.00     0.198 C 
HETATM   23  C18 UNL     1      24.839   7.617  49.859  1.00  0.00     0.149 C 
HETATM   24  N3  UNL     1      23.977   7.615  48.691  1.00  0.00    -0.383 N 
HETATM   25  C19 UNL     1      23.605   6.580  47.776  1.00  0.00     0.099 C 
HETATM   26  C20 UNL     1      22.325   6.294  48.089  1.00  0.00     0.007 C 
HETATM   27  C21 UNL     1      21.398   7.360  48.551  1.00  0.00    -0.016 A 
HETATM   28  C22 UNL     1      20.092   7.087  48.890  1.00  0.00     0.013 A 
HETATM   29  C23 UNL     1      19.289   8.115  49.315  1.00  0.00     0.001 A 
HETATM   30  C24 UNL     1      19.692   9.446  49.437  1.00  0.00     0.001 A 
HETATM   31  C25 UNL     1      21.011   9.712  49.096  1.00  0.00     0.010 A 
HETATM   32  C26 UNL     1      21.820   8.689  48.669  1.00  0.00    -0.029 A 
HETATM   33  C27 UNL     1      23.282   8.842  48.306  1.00  0.00     0.161 C 
HETATM   34  H3  UNL     1      19.374   2.827  46.790  1.00  0.00     0.169 HD
ENDROOT
TORSDOF 1
ENDMDL
