MODEL 1
REMARK VINA RESULT:      -8.0      0.000      0.000
REMARK  5 active torsions:
REMARK  status: ('A' for Active; 'I' for Inactive)
REMARK    1  A    between atoms: C7_7  and  N1_8 
REMARK    2  A    between atoms: N1_8  and  C8_9 
REMARK    3  A    between atoms: C8_9  and  C9_10 
REMARK    4  A    between atoms: C17_22  and  O3_23 
REMARK    5  A    between atoms: O3_23  and  C18_24 
ROOT
HETATM    1  C1  UNL     1      29.793   7.049  47.293  1.00  0.00     0.018 C 
HETATM    2  C2  UNL     1      28.810   6.533  47.764  1.00  0.00    -0.078 C 
HETATM    3  C3  UNL     1      27.615   5.930  48.332  1.00  0.00     0.019 A 
HETATM    4  C4  UNL     1      26.432   6.661  48.265  1.00  0.00     0.021 A 
HETATM    5  C5  UNL     1      25.241   6.193  48.765  1.00  0.00     0.004 A 
HETATM    6  C6  UNL     1      25.243   4.955  49.347  1.00  0.00     0.029 A 
HETATM    7  C7  UNL     1      26.392   4.192  49.437  1.00  0.00     0.029 A 
HETATM    8  C20 UNL     1      27.587   4.685  48.925  1.00  0.00     0.049 A 
ENDROOT
BRANCH   7   9
HETATM    9  N1  UNL     1      26.389   2.886  50.035  1.00  0.00    -0.384 N 
HETATM   10  H5  UNL     1      27.061   2.194  49.639  1.00  0.00     0.160 HD
BRANCH   9  11
HETATM   11  C8  UNL     1      25.491   2.547  51.144  1.00  0.00     0.180 C 
BRANCH  11  12
HETATM   12  C9  UNL     1      26.354   2.060  52.259  1.00  0.00     0.099 C 
HETATM   13  N2  UNL     1      27.540   2.429  52.548  1.00  0.00    -0.243 NA
HETATM   14  C10 UNL     1      28.328   1.983  53.593  1.00  0.00     0.233 C 
HETATM   15  N3  UNL     1      27.838   1.095  54.429  1.00  0.00    -0.241 NA
HETATM   16  C11 UNL     1      26.513   0.674  54.194  1.00  0.00     0.101 C 
HETATM   17  C12 UNL     1      26.369   0.009  55.371  1.00  0.00     0.014 C 
HETATM   18  C17 UNL     1      25.692   0.890  52.974  1.00  0.00     0.255 C 
HETATM   19  C13 UNL     1      25.408  -0.804  56.180  1.00  0.00     0.111 C 
HETATM   20  C14 UNL     1      24.369  -0.803  55.355  1.00  0.00     0.108 C 
HETATM   21  O1  UNL     1      23.063  -0.969  54.632  1.00  0.00    -0.388 OA
HETATM   22  C15 UNL     1      23.223  -0.901  53.215  1.00  0.00     0.194 C 
HETATM   23  C16 UNL     1      23.382   0.497  52.708  1.00  0.00     0.198 C 
HETATM   24  O2  UNL     1      24.395   1.257  53.148  1.00  0.00    -0.343 OA
BRANCH  18  25
HETATM   25  O3  UNL     1      25.788  -0.137  52.042  1.00  0.00    -0.345 OA
BRANCH  25  26
HETATM   26  C18 UNL     1      27.003  -0.766  51.979  1.00  0.00     0.167 C 
HETATM   27  C19 UNL     1      26.708  -2.233  52.344  1.00  0.00     0.033 C 
ENDBRANCH  25  26
ENDBRANCH  18  25
ENDBRANCH  11  12
ENDBRANCH   9  11
ENDBRANCH   7   9
TORSDOF 5
ENDMDL
MODEL 2
REMARK VINA RESULT:      -7.9      3.445      7.632
REMARK  5 active torsions:
REMARK  status: ('A' for Active; 'I' for Inactive)
REMARK    1  A    between atoms: C7_7  and  N1_8 
REMARK    2  A    between atoms: N1_8  and  C8_9 
REMARK    3  A    between atoms: C8_9  and  C9_10 
REMARK    4  A    between atoms: C17_22  and  O3_23 
REMARK    5  A    between atoms: O3_23  and  C18_24 
ROOT
HETATM    1  C1  UNL     1      22.231  -1.601  54.954  1.00  0.00     0.018 C 
HETATM    2  C2  UNL     1      21.481  -0.945  54.275  1.00  0.00    -0.078 C 
HETATM    3  C3  UNL     1      20.568  -0.171  53.450  1.00  0.00     0.019 A 
HETATM    4  C4  UNL     1      19.383  -0.786  53.052  1.00  0.00     0.021 A 
HETATM    5  C5  UNL     1      18.443  -0.154  52.276  1.00  0.00     0.004 A 
HETATM    6  C6  UNL     1      18.703   1.133  51.891  1.00  0.00     0.029 A 
HETATM    7  C7  UNL     1      19.865   1.785  52.261  1.00  0.00     0.029 A 
HETATM    8  C20 UNL     1      20.803   1.127  53.046  1.00  0.00     0.049 A 
ENDROOT
BRANCH   7   9
HETATM    9  N1  UNL     1      20.129   3.141  51.868  1.00  0.00    -0.384 N 
HETATM   10  H5  UNL     1      19.428   3.586  51.237  1.00  0.00     0.160 HD
BRANCH   9  11
HETATM   11  C8  UNL     1      21.319   3.861  52.333  1.00  0.00     0.180 C 
BRANCH  11  12
HETATM   12  C9  UNL     1      22.039   4.330  51.115  1.00  0.00     0.099 C 
HETATM   13  N2  UNL     1      21.649   5.191  50.258  1.00  0.00    -0.243 NA
HETATM   14  C10 UNL     1      22.330   5.632  49.138  1.00  0.00     0.233 C 
HETATM   15  N3  UNL     1      23.532   5.159  48.894  1.00  0.00    -0.241 NA
HETATM   16  C11 UNL     1      24.045   4.233  49.826  1.00  0.00     0.101 C 
HETATM   17  C12 UNL     1      25.311   4.229  49.333  1.00  0.00     0.014 C 
HETATM   18  C17 UNL     1      23.305   3.513  50.895  1.00  0.00     0.255 C 
HETATM   19  C13 UNL     1      26.671   3.633  49.524  1.00  0.00     0.111 C 
HETATM   20  C14 UNL     1      26.428   2.857  50.571  1.00  0.00     0.108 C 
HETATM   21  O1  UNL     1      26.439   1.902  51.730  1.00  0.00    -0.388 OA
HETATM   22  C15 UNL     1      25.156   1.320  51.958  1.00  0.00     0.194 C 
HETATM   23  C16 UNL     1      24.211   2.240  52.662  1.00  0.00     0.198 C 
HETATM   24  O2  UNL     1      23.896   3.423  52.116  1.00  0.00    -0.343 OA
BRANCH  18  25
HETATM   25  O3  UNL     1      22.810   2.275  50.500  1.00  0.00    -0.345 OA
BRANCH  25  26
HETATM   26  C18 UNL     1      22.645   2.107  49.151  1.00  0.00     0.167 C 
HETATM   27  C19 UNL     1      21.526   1.057  49.018  1.00  0.00     0.033 C 
ENDBRANCH  25  26
ENDBRANCH  18  25
ENDBRANCH  11  12
ENDBRANCH   9  11
ENDBRANCH   7   9
TORSDOF 5
ENDMDL
MODEL 3
REMARK VINA RESULT:      -7.9      3.253      6.910
REMARK  5 active torsions:
REMARK  status: ('A' for Active; 'I' for Inactive)
REMARK    1  A    between atoms: C7_7  and  N1_8 
REMARK    2  A    between atoms: N1_8  and  C8_9 
REMARK    3  A    between atoms: C8_9  and  C9_10 
REMARK    4  A    between atoms: C17_22  and  O3_23 
REMARK    5  A    between atoms: O3_23  and  C18_24 
ROOT
HETATM    1  C1  UNL     1      29.671  -2.359  53.441  1.00  0.00     0.018 C 
HETATM    2  C2  UNL     1      29.027  -1.340  53.450  1.00  0.00    -0.078 C 
HETATM    3  C3  UNL     1      28.266  -0.102  53.469  1.00  0.00     0.019 A 
HETATM    4  C4  UNL     1      28.980   1.089  53.580  1.00  0.00     0.021 A 
HETATM    5  C5  UNL     1      28.371   2.320  53.606  1.00  0.00     0.004 A 
HETATM    6  C6  UNL     1      27.006   2.351  53.516  1.00  0.00     0.029 A 
HETATM    7  C7  UNL     1      26.254   1.196  53.404  1.00  0.00     0.029 A 
HETATM    8  C20 UNL     1      26.891  -0.039  53.381  1.00  0.00     0.049 A 
ENDROOT
BRANCH   7   9
HETATM    9  N1  UNL     1      24.823   1.232  53.295  1.00  0.00    -0.384 N 
HETATM   10  H5  UNL     1      24.295   1.420  54.175  1.00  0.00     0.160 HD
BRANCH   9  11
HETATM   11  C8  UNL     1      24.141   1.021  52.014  1.00  0.00     0.180 C 
BRANCH  11  12
HETATM   12  C9  UNL     1      22.889   1.831  52.056  1.00  0.00     0.099 C 
HETATM   13  N2  UNL     1      21.771   1.514  52.583  1.00  0.00    -0.243 NA
HETATM   14  C10 UNL     1      20.619   2.277  52.633  1.00  0.00     0.233 C 
HETATM   15  N3  UNL     1      20.629   3.484  52.112  1.00  0.00    -0.241 NA
HETATM   16  C11 UNL     1      21.849   3.916  51.549  1.00  0.00     0.101 C 
HETATM   17  C12 UNL     1      21.474   5.213  51.389  1.00  0.00     0.014 C 
HETATM   18  C17 UNL     1      23.041   3.093  51.219  1.00  0.00     0.255 C 
HETATM   19  C13 UNL     1      21.945   6.546  50.897  1.00  0.00     0.111 C 
HETATM   20  C14 UNL     1      23.170   6.218  50.509  1.00  0.00     0.108 C 
HETATM   21  O1  UNL     1      24.577   6.134  49.992  1.00  0.00    -0.388 OA
HETATM   22  C15 UNL     1      24.895   4.828  49.510  1.00  0.00     0.194 C 
HETATM   23  C16 UNL     1      25.188   3.854  50.607  1.00  0.00     0.198 C 
HETATM   24  O2  UNL     1      24.260   3.599  51.541  1.00  0.00    -0.343 OA
BRANCH  18  25
HETATM   25  O3  UNL     1      23.044   2.604  49.918  1.00  0.00    -0.345 OA
BRANCH  25  26
HETATM   26  C18 UNL     1      21.869   2.748  49.229  1.00  0.00     0.167 C 
HETATM   27  C19 UNL     1      21.577   1.352  48.649  1.00  0.00     0.033 C 
ENDBRANCH  25  26
ENDBRANCH  18  25
ENDBRANCH  11  12
ENDBRANCH   9  11
ENDBRANCH   7   9
TORSDOF 5
ENDMDL
MODEL 4
REMARK VINA RESULT:      -7.8      3.315      7.052
REMARK  5 active torsions:
REMARK  status: ('A' for Active; 'I' for Inactive)
REMARK    1  A    between atoms: C7_7  and  N1_8 
REMARK    2  A    between atoms: N1_8  and  C8_9 
REMARK    3  A    between atoms: C8_9  and  C9_10 
REMARK    4  A    between atoms: C17_22  and  O3_23 
REMARK    5  A    between atoms: O3_23  and  C18_24 
ROOT
HETATM    1  C1  UNL     1      29.805  -0.758  53.539  1.00  0.00     0.018 C 
HETATM    2  C2  UNL     1      28.663  -0.378  53.456  1.00  0.00    -0.078 C 
HETATM    3  C3  UNL     1      27.281   0.059  53.353  1.00  0.00     0.019 A 
HETATM    4  C4  UNL     1      26.288  -0.896  53.552  1.00  0.00     0.021 A 
HETATM    5  C5  UNL     1      24.948  -0.600  53.484  1.00  0.00     0.004 A 
HETATM    6  C6  UNL     1      24.600   0.694  53.208  1.00  0.00     0.029 A 
HETATM    7  C7  UNL     1      25.550   1.677  53.002  1.00  0.00     0.029 A 
HETATM    8  C20 UNL     1      26.900   1.356  53.075  1.00  0.00     0.049 A 
ENDROOT
BRANCH   7   9
HETATM    9  N1  UNL     1      25.183   3.038  52.727  1.00  0.00    -0.384 N 
HETATM   10  H5  UNL     1      25.965   3.697  52.523  1.00  0.00     0.160 HD
BRANCH   9  11
HETATM   11  C8  UNL     1      23.782   3.475  52.728  1.00  0.00     0.180 C 
BRANCH  11  12
HETATM   12  C9  UNL     1      23.609   4.361  51.541  1.00  0.00     0.099 C 
HETATM   13  N2  UNL     1      23.999   5.567  51.402  1.00  0.00    -0.243 NA
HETATM   14  C10 UNL     1      23.849   6.377  50.291  1.00  0.00     0.233 C 
HETATM   15  N3  UNL     1      23.264   5.889  49.219  1.00  0.00    -0.241 NA
HETATM   16  C11 UNL     1      22.846   4.544  49.288  1.00  0.00     0.101 C 
HETATM   17  C12 UNL     1      22.562   4.421  47.965  1.00  0.00     0.014 C 
HETATM   18  C17 UNL     1      22.728   3.688  50.497  1.00  0.00     0.255 C 
HETATM   19  C13 UNL     1      22.061   3.463  46.929  1.00  0.00     0.111 C 
HETATM   20  C14 UNL     1      21.861   2.397  47.692  1.00  0.00     0.108 C 
HETATM   21  O1  UNL     1      21.543   1.062  48.303  1.00  0.00    -0.388 OA
HETATM   22  C15 UNL     1      21.186   1.174  49.680  1.00  0.00     0.194 C 
HETATM   23  C16 UNL     1      22.366   1.359  50.579  1.00  0.00     0.198 C 
HETATM   24  O2  UNL     1      23.181   2.410  50.408  1.00  0.00    -0.343 OA
BRANCH  18  25
HETATM   25  O3  UNL     1      21.470   3.720  51.087  1.00  0.00    -0.345 OA
BRANCH  25  26
HETATM   26  C18 UNL     1      20.625   4.695  50.627  1.00  0.00     0.167 C 
HETATM   27  C19 UNL     1      19.211   4.117  50.822  1.00  0.00     0.033 C 
ENDBRANCH  25  26
ENDBRANCH  18  25
ENDBRANCH  11  12
ENDBRANCH   9  11
ENDBRANCH   7   9
TORSDOF 5
ENDMDL
MODEL 5
REMARK VINA RESULT:      -7.8      6.776      9.527
REMARK  5 active torsions:
REMARK  status: ('A' for Active; 'I' for Inactive)
REMARK    1  A    between atoms: C7_7  and  N1_8 
REMARK    2  A    between atoms: N1_8  and  C8_9 
REMARK    3  A    between atoms: C8_9  and  C9_10 
REMARK    4  A    between atoms: C17_22  and  O3_23 
REMARK    5  A    between atoms: O3_23  and  C18_24 
ROOT
HETATM    1  C1  UNL     1      32.030   0.266  46.700  1.00  0.00     0.018 C 
HETATM    2  C2  UNL     1      32.433   1.372  46.961  1.00  0.00    -0.078 C 
HETATM    3  C3  UNL     1      32.935   2.698  47.286  1.00  0.00     0.019 A 
HETATM    4  C4  UNL     1      34.272   2.804  47.661  1.00  0.00     0.021 A 
HETATM    5  C5  UNL     1      34.859   4.003  47.987  1.00  0.00     0.004 A 
HETATM    6  C6  UNL     1      34.076   5.124  47.933  1.00  0.00     0.029 A 
HETATM    7  C7  UNL     1      32.744   5.068  47.567  1.00  0.00     0.029 A 
HETATM    8  C20 UNL     1      32.171   3.845  47.241  1.00  0.00     0.049 A 
ENDROOT
BRANCH   7   9
HETATM    9  N1  UNL     1      31.929   6.249  47.496  1.00  0.00    -0.384 N 
HETATM   10  H5  UNL     1      31.796   6.664  46.549  1.00  0.00     0.160 HD
BRANCH   9  11
HETATM   11  C8  UNL     1      31.313   6.834  48.692  1.00  0.00     0.180 C 
BRANCH  11  12
HETATM   12  C9  UNL     1      29.852   6.548  48.604  1.00  0.00     0.099 C 
HETATM   13  N2  UNL     1      29.282   5.410  48.522  1.00  0.00    -0.243 NA
HETATM   14  C10 UNL     1      27.925   5.152  48.457  1.00  0.00     0.233 C 
HETATM   15  N3  UNL     1      27.080   6.158  48.505  1.00  0.00    -0.241 NA
HETATM   16  C11 UNL     1      27.642   7.445  48.639  1.00  0.00     0.101 C 
HETATM   17  C12 UNL     1      26.467   8.082  48.890  1.00  0.00     0.014 C 
HETATM   18  C17 UNL     1      29.062   7.841  48.458  1.00  0.00     0.255 C 
HETATM   19  C13 UNL     1      25.867   9.422  49.178  1.00  0.00     0.111 C 
HETATM   20  C14 UNL     1      26.965  10.165  49.158  1.00  0.00     0.108 C 
HETATM   21  O1  UNL     1      28.022  11.232  49.192  1.00  0.00    -0.388 OA
HETATM   22  C15 UNL     1      29.146  10.900  48.376  1.00  0.00     0.194 C 
HETATM   23  C16 UNL     1      30.061   9.905  49.015  1.00  0.00     0.198 C 
HETATM   24  O2  UNL     1      29.596   8.698  49.369  1.00  0.00    -0.343 OA
BRANCH  18  25
HETATM   25  O3  UNL     1      29.372   8.249  47.165  1.00  0.00    -0.345 OA
BRANCH  25  26
HETATM   26  C18 UNL     1      28.495   7.848  46.193  1.00  0.00     0.167 C 
HETATM   27  C19 UNL     1      28.309   9.084  45.294  1.00  0.00     0.033 C 
ENDBRANCH  25  26
ENDBRANCH  18  25
ENDBRANCH  11  12
ENDBRANCH   9  11
ENDBRANCH   7   9
TORSDOF 5
ENDMDL
MODEL 6
REMARK VINA RESULT:      -7.7      3.142      8.064
REMARK  5 active torsions:
REMARK  status: ('A' for Active; 'I' for Inactive)
REMARK    1  A    between atoms: C7_7  and  N1_8 
REMARK    2  A    between atoms: N1_8  and  C8_9 
REMARK    3  A    between atoms: C8_9  and  C9_10 
REMARK    4  A    between atoms: C17_22  and  O3_23 
REMARK    5  A    between atoms: O3_23  and  C18_24 
ROOT
HETATM    1  C1  UNL     1      21.891  -1.572  54.207  1.00  0.00     0.018 C 
HETATM    2  C2  UNL     1      22.761  -0.828  53.825  1.00  0.00    -0.078 C 
HETATM    3  C3  UNL     1      23.823   0.053  53.370  1.00  0.00     0.019 A 
HETATM    4  C4  UNL     1      25.061  -0.521  53.094  1.00  0.00     0.021 A 
HETATM    5  C5  UNL     1      26.138   0.210  52.655  1.00  0.00     0.004 A 
HETATM    6  C6  UNL     1      25.961   1.557  52.489  1.00  0.00     0.029 A 
HETATM    7  C7  UNL     1      24.752   2.172  52.750  1.00  0.00     0.029 A 
HETATM    8  C20 UNL     1      23.675   1.413  53.195  1.00  0.00     0.049 A 
ENDROOT
BRANCH   7   9
HETATM    9  N1  UNL     1      24.564   3.584  52.561  1.00  0.00    -0.384 N 
HETATM   10  H5  UNL     1      25.413   4.181  52.661  1.00  0.00     0.160 HD
BRANCH   9  11
HETATM   11  C8  UNL     1      23.251   4.152  52.240  1.00  0.00     0.180 C 
BRANCH  11  12
HETATM   12  C9  UNL     1      23.074   4.015  50.766  1.00  0.00     0.099 C 
HETATM   13  N2  UNL     1      22.661   2.996  50.119  1.00  0.00    -0.243 NA
HETATM   14  C10 UNL     1      22.485   2.881  48.752  1.00  0.00     0.233 C 
HETATM   15  N3  UNL     1      22.736   3.920  47.987  1.00  0.00    -0.241 NA
HETATM   16  C11 UNL     1      23.156   5.097  48.641  1.00  0.00     0.101 C 
HETATM   17  C12 UNL     1      23.047   5.905  47.554  1.00  0.00     0.014 C 
HETATM   18  C17 UNL     1      23.618   5.242  50.047  1.00  0.00     0.255 C 
HETATM   19  C13 UNL     1      23.229   7.314  47.084  1.00  0.00     0.111 C 
HETATM   20  C14 UNL     1      23.640   7.874  48.214  1.00  0.00     0.108 C 
HETATM   21  O1  UNL     1      24.120   8.756  49.330  1.00  0.00    -0.388 OA
HETATM   22  C15 UNL     1      24.859   8.027  50.310  1.00  0.00     0.194 C 
HETATM   23  C16 UNL     1      23.987   7.243  51.239  1.00  0.00     0.198 C 
HETATM   24  O2  UNL     1      23.158   6.309  50.751  1.00  0.00    -0.343 OA
BRANCH  18  25
HETATM   25  O3  UNL     1      24.993   5.109  50.203  1.00  0.00    -0.345 OA
BRANCH  25  26
HETATM   26  C18 UNL     1      25.690   4.800  49.066  1.00  0.00     0.167 C 
HETATM   27  C19 UNL     1      26.697   3.720  49.501  1.00  0.00     0.033 C 
ENDBRANCH  25  26
ENDBRANCH  18  25
ENDBRANCH  11  12
ENDBRANCH   9  11
ENDBRANCH   7   9
TORSDOF 5
ENDMDL
MODEL 7
REMARK VINA RESULT:      -7.6      2.304      4.289
REMARK  5 active torsions:
REMARK  status: ('A' for Active; 'I' for Inactive)
REMARK    1  A    between atoms: C7_7  and  N1_8 
REMARK    2  A    between atoms: N1_8  and  C8_9 
REMARK    3  A    between atoms: C8_9  and  C9_10 
REMARK    4  A    between atoms: C17_22  and  O3_23 
REMARK    5  A    between atoms: O3_23  and  C18_24 
ROOT
HETATM    1  C1  UNL     1      24.106   9.474  46.247  1.00  0.00     0.018 C 
HETATM    2  C2  UNL     1      24.900   8.731  46.768  1.00  0.00    -0.078 C 
HETATM    3  C3  UNL     1      25.871   7.839  47.382  1.00  0.00     0.019 A 
HETATM    4  C4  UNL     1      27.195   7.947  46.965  1.00  0.00     0.021 A 
HETATM    5  C5  UNL     1      28.200   7.161  47.475  1.00  0.00     0.004 A 
HETATM    6  C6  UNL     1      27.860   6.243  48.430  1.00  0.00     0.029 A 
HETATM    7  C7  UNL     1      26.559   6.099  48.876  1.00  0.00     0.029 A 
HETATM    8  C20 UNL     1      25.558   6.904  48.346  1.00  0.00     0.049 A 
ENDROOT
BRANCH   7   9
HETATM    9  N1  UNL     1      26.208   5.144  49.890  1.00  0.00    -0.384 N 
HETATM   10  H5  UNL     1      25.848   5.534  50.788  1.00  0.00     0.160 HD
BRANCH   9  11
HETATM   11  C8  UNL     1      26.343   3.700  49.671  1.00  0.00     0.180 C 
BRANCH  11  12
HETATM   12  C9  UNL     1      24.985   3.111  49.855  1.00  0.00     0.099 C 
HETATM   13  N2  UNL     1      23.984   3.192  49.067  1.00  0.00    -0.243 NA
HETATM   14  C10 UNL     1      22.733   2.630  49.237  1.00  0.00     0.233 C 
HETATM   15  N3  UNL     1      22.501   1.898  50.305  1.00  0.00    -0.241 NA
HETATM   16  C11 UNL     1      23.579   1.730  51.199  1.00  0.00     0.101 C 
HETATM   17  C12 UNL     1      22.986   0.764  51.948  1.00  0.00     0.014 C 
HETATM   18  C17 UNL     1      24.855   2.491  51.239  1.00  0.00     0.255 C 
HETATM   19  C13 UNL     1      23.189  -0.130  53.131  1.00  0.00     0.111 C 
HETATM   20  C14 UNL     1      24.412   0.243  53.483  1.00  0.00     0.108 C 
HETATM   21  O1  UNL     1      25.762   0.466  54.101  1.00  0.00    -0.388 OA
HETATM   22  C15 UNL     1      26.243   1.791  53.875  1.00  0.00     0.194 C 
HETATM   23  C16 UNL     1      26.787   1.991  52.496  1.00  0.00     0.198 C 
HETATM   24  O2  UNL     1      26.000   1.784  51.430  1.00  0.00    -0.343 OA
BRANCH  18  25
HETATM   25  O3  UNL     1      24.821   3.601  52.075  1.00  0.00    -0.345 OA
BRANCH  25  26
HETATM   26  C18 UNL     1      23.591   3.919  52.586  1.00  0.00     0.167 C 
HETATM   27  C19 UNL     1      23.293   5.331  52.050  1.00  0.00     0.033 C 
ENDBRANCH  25  26
ENDBRANCH  18  25
ENDBRANCH  11  12
ENDBRANCH   9  11
ENDBRANCH   7   9
TORSDOF 5
ENDMDL
MODEL 8
REMARK VINA RESULT:      -7.6      3.443      7.401
REMARK  5 active torsions:
REMARK  status: ('A' for Active; 'I' for Inactive)
REMARK    1  A    between atoms: C7_7  and  N1_8 
REMARK    2  A    between atoms: N1_8  and  C8_9 
REMARK    3  A    between atoms: C8_9  and  C9_10 
REMARK    4  A    between atoms: C17_22  and  O3_23 
REMARK    5  A    between atoms: O3_23  and  C18_24 
ROOT
HETATM    1  C1  UNL     1      22.470  -1.078  54.473  1.00  0.00     0.018 C 
HETATM    2  C2  UNL     1      23.396  -0.552  53.906  1.00  0.00    -0.078 C 
HETATM    3  C3  UNL     1      24.524   0.066  53.230  1.00  0.00     0.019 A 
HETATM    4  C4  UNL     1      25.654  -0.720  53.015  1.00  0.00     0.021 A 
HETATM    5  C5  UNL     1      26.779  -0.246  52.384  1.00  0.00     0.004 A 
HETATM    6  C6  UNL     1      26.764   1.054  51.957  1.00  0.00     0.029 A 
HETATM    7  C7  UNL     1      25.666   1.872  52.148  1.00  0.00     0.029 A 
HETATM    8  C20 UNL     1      24.538   1.373  52.789  1.00  0.00     0.049 A 
ENDROOT
BRANCH   7   9
HETATM    9  N1  UNL     1      25.647   3.232  51.686  1.00  0.00    -0.384 N 
HETATM   10  H5  UNL     1      25.889   3.964  52.389  1.00  0.00     0.160 HD
BRANCH   9  11
HETATM   11  C8  UNL     1      25.309   3.572  50.300  1.00  0.00     0.180 C 
BRANCH  11  12
HETATM   12  C9  UNL     1      24.339   4.703  50.360  1.00  0.00     0.099 C 
HETATM   13  N2  UNL     1      24.543   5.885  50.794  1.00  0.00    -0.243 NA
HETATM   14  C10 UNL     1      23.642   6.934  50.832  1.00  0.00     0.233 C 
HETATM   15  N3  UNL     1      22.429   6.752  50.359  1.00  0.00    -0.241 NA
HETATM   16  C11 UNL     1      22.148   5.478  49.823  1.00  0.00     0.101 C 
HETATM   17  C12 UNL     1      20.958   5.823  49.265  1.00  0.00     0.014 C 
HETATM   18  C17 UNL     1      22.945   4.232  49.970  1.00  0.00     0.255 C 
HETATM   19  C13 UNL     1      19.806   5.292  48.469  1.00  0.00     0.111 C 
HETATM   20  C14 UNL     1      20.204   4.037  48.316  1.00  0.00     0.108 C 
HETATM   21  O1  UNL     1      20.398   2.582  47.994  1.00  0.00    -0.388 OA
HETATM   22  C15 UNL     1      21.208   1.921  48.965  1.00  0.00     0.194 C 
HETATM   23  C16 UNL     1      22.668   2.202  48.801  1.00  0.00     0.198 C 
HETATM   24  O2  UNL     1      23.118   3.464  48.862  1.00  0.00    -0.343 OA
BRANCH  18  25
HETATM   25  O3  UNL     1      22.567   3.448  51.054  1.00  0.00    -0.345 OA
BRANCH  25  26
HETATM   26  C18 UNL     1      21.832   4.085  52.017  1.00  0.00     0.167 C 
HETATM   27  C19 UNL     1      20.674   3.121  52.332  1.00  0.00     0.033 C 
ENDBRANCH  25  26
ENDBRANCH  18  25
ENDBRANCH  11  12
ENDBRANCH   9  11
ENDBRANCH   7   9
TORSDOF 5
ENDMDL
MODEL 9
REMARK VINA RESULT:      -7.5      2.228      3.657
REMARK  5 active torsions:
REMARK  status: ('A' for Active; 'I' for Inactive)
REMARK    1  A    between atoms: C7_7  and  N1_8 
REMARK    2  A    between atoms: N1_8  and  C8_9 
REMARK    3  A    between atoms: C8_9  and  C9_10 
REMARK    4  A    between atoms: C17_22  and  O3_23 
REMARK    5  A    between atoms: O3_23  and  C18_24 
ROOT
HETATM    1  C1  UNL     1      30.082   6.462  47.821  1.00  0.00     0.018 C 
HETATM    2  C2  UNL     1      28.889   6.482  47.998  1.00  0.00    -0.078 C 
HETATM    3  C3  UNL     1      27.451   6.526  48.209  1.00  0.00     0.019 A 
HETATM    4  C4  UNL     1      26.783   7.690  47.838  1.00  0.00     0.021 A 
HETATM    5  C5  UNL     1      25.426   7.846  47.987  1.00  0.00     0.004 A 
HETATM    6  C6  UNL     1      24.725   6.801  48.523  1.00  0.00     0.029 A 
HETATM    7  C7  UNL     1      25.344   5.626  48.906  1.00  0.00     0.029 A 
HETATM    8  C20 UNL     1      26.718   5.489  48.747  1.00  0.00     0.049 A 
ENDROOT
BRANCH   7   9
HETATM    9  N1  UNL     1      24.604   4.524  49.454  1.00  0.00    -0.384 N 
HETATM   10  H5  UNL     1      23.623   4.724  49.747  1.00  0.00     0.160 HD
BRANCH   9  11
HETATM   11  C8  UNL     1      25.195   3.188  49.589  1.00  0.00     0.180 C 
BRANCH  11  12
HETATM   12  C9  UNL     1      24.230   2.371  50.380  1.00  0.00     0.099 C 
HETATM   13  N2  UNL     1      23.013   2.110  50.100  1.00  0.00    -0.243 NA
HETATM   14  C10 UNL     1      22.128   1.338  50.832  1.00  0.00     0.233 C 
HETATM   15  N3  UNL     1      22.545   0.766  51.940  1.00  0.00    -0.241 NA
HETATM   16  C11 UNL     1      23.895   0.978  52.288  1.00  0.00     0.101 C 
HETATM   17  C12 UNL     1      23.928   0.052  53.282  1.00  0.00     0.014 C 
HETATM   18  C17 UNL     1      24.835   1.981  51.722  1.00  0.00     0.255 C 
HETATM   19  C13 UNL     1      24.815  -0.568  54.316  1.00  0.00     0.111 C 
HETATM   20  C14 UNL     1      25.933   0.104  54.079  1.00  0.00     0.108 C 
HETATM   21  O1  UNL     1      27.310   0.702  54.035  1.00  0.00    -0.388 OA
HETATM   22  C15 UNL     1      27.298   2.040  53.537  1.00  0.00     0.194 C 
HETATM   23  C16 UNL     1      27.167   2.111  52.049  1.00  0.00     0.198 C 
HETATM   24  O2  UNL     1      26.099   1.569  51.444  1.00  0.00    -0.343 OA
BRANCH  18  25
HETATM   25  O3  UNL     1      24.855   3.186  52.415  1.00  0.00    -0.345 OA
BRANCH  25  26
HETATM   26  C18 UNL     1      23.713   3.490  53.106  1.00  0.00     0.167 C 
HETATM   27  C19 UNL     1      23.398   4.949  52.726  1.00  0.00     0.033 C 
ENDBRANCH  25  26
ENDBRANCH  18  25
ENDBRANCH  11  12
ENDBRANCH   9  11
ENDBRANCH   7   9
TORSDOF 5
ENDMDL
