MODEL 1
REMARK VINA RESULT:     -11.0      0.000      0.000
REMARK  0 active torsions:
REMARK  status: ('A' for Active; 'I' for Inactive)
ROOT
HETATM    1  O1  UNL     1      24.579   4.809  49.585  1.00  0.00    -0.271 OA
HETATM    2  C1  UNL     1      24.860   3.873  50.372  1.00  0.00     0.248 C 
HETATM    3  C2  UNL     1      26.258   3.368  50.127  1.00  0.00     0.272 C 
HETATM    4  O2  UNL     1      26.684   2.824  51.345  1.00  0.00    -0.366 OA
HETATM    5  C3  UNL     1      25.942   1.643  51.609  1.00  0.00     0.207 C 
HETATM    6  C4  UNL     1      24.488   1.929  51.533  1.00  0.00     0.049 C 
HETATM    7  C5  UNL     1      23.544   1.004  51.574  1.00  0.00     0.045 C 
HETATM    8  C6  UNL     1      23.062   0.196  52.717  1.00  0.00     0.037 A 
HETATM    9  C7  UNL     1      21.659   0.167  52.628  1.00  0.00     0.060 A 
HETATM   10  N1  UNL     1      20.972  -0.515  53.570  1.00  0.00    -0.245 NA
HETATM   11  C8  UNL     1      21.559  -1.166  54.582  1.00  0.00     0.235 A 
HETATM   12  N2  UNL     1      22.917  -1.148  54.684  1.00  0.00    -0.224 NA
HETATM   13  C9  UNL     1      23.614  -0.484  53.771  1.00  0.00     0.141 A 
HETATM   14  N3  UNL     1      25.003  -0.629  54.143  1.00  0.00    -0.340 N 
HETATM   15  C10 UNL     1      26.166   0.164  53.893  1.00  0.00     0.043 A 
HETATM   16  C11 UNL     1      26.989  -0.142  54.954  1.00  0.00     0.033 A 
HETATM   17  C12 UNL     1      28.211   0.489  54.983  1.00  0.00     0.044 A 
HETATM   18  C13 UNL     1      28.591   1.379  54.005  1.00  0.00     0.117 A 
HETATM   19  F1  UNL     1      29.793   1.991  54.048  1.00  0.00    -0.206 F 
HETATM   20  C14 UNL     1      27.699   1.620  52.988  1.00  0.00     0.054 A 
HETATM   21  C15 UNL     1      26.427   1.045  52.840  1.00  0.00     0.006 A 
HETATM   22  C16 UNL     1      20.774   0.774  51.647  1.00  0.00     0.102 C 
HETATM   23  C17 UNL     1      20.277   1.843  50.991  1.00  0.00     0.019 C 
HETATM   24  C18 UNL     1      19.256   1.366  50.028  1.00  0.00     0.220 C 
HETATM   25  O3  UNL     1      18.023   1.802  50.510  1.00  0.00    -0.384 OA
HETATM   26  C19 UNL     1      18.075   2.643  51.582  1.00  0.00     0.187 C 
HETATM   27  C20 UNL     1      19.104   3.733  51.468  1.00  0.00     0.148 C 
HETATM   28  N4  UNL     1      20.312   3.290  50.811  1.00  0.00    -0.383 N 
HETATM   29  C21 UNL     1      21.291   4.123  50.145  1.00  0.00     0.124 C 
HETATM   30  C22 UNL     1      22.158   4.912  51.078  1.00  0.00     0.040 C 
HETATM   31  C23 UNL     1      23.048   4.145  51.980  1.00  0.00     0.133 C 
HETATM   32  N5  UNL     1      24.030   3.300  51.395  1.00  0.00    -0.317 N 
HETATM   33  H6  UNL     1      25.156  -1.491  54.705  1.00  0.00     0.167 HD
ENDROOT
TORSDOF 0
ENDMDL
MODEL 2
REMARK VINA RESULT:     -10.1      2.780      5.280
REMARK  0 active torsions:
REMARK  status: ('A' for Active; 'I' for Inactive)
ROOT
HETATM    1  O1  UNL     1      18.737  -1.515  53.575  1.00  0.00    -0.271 OA
HETATM    2  C1  UNL     1      19.734  -0.788  53.347  1.00  0.00     0.248 C 
HETATM    3  C2  UNL     1      20.833  -1.056  54.342  1.00  0.00     0.272 C 
HETATM    4  O2  UNL     1      22.025  -0.711  53.694  1.00  0.00    -0.366 OA
HETATM    5  C3  UNL     1      22.065   0.698  53.520  1.00  0.00     0.207 C 
HETATM    6  C4  UNL     1      20.832   1.161  52.838  1.00  0.00     0.049 C 
HETATM    7  C5  UNL     1      20.503   2.432  52.678  1.00  0.00     0.045 C 
HETATM    8  C6  UNL     1      21.077   3.449  51.769  1.00  0.00     0.037 A 
HETATM    9  C7  UNL     1      19.994   4.161  51.222  1.00  0.00     0.060 A 
HETATM   10  N1  UNL     1      20.258   5.156  50.348  1.00  0.00    -0.245 NA
HETATM   11  C8  UNL     1      21.498   5.501  49.977  1.00  0.00     0.235 A 
HETATM   12  N2  UNL     1      22.559   4.823  50.497  1.00  0.00    -0.224 NA
HETATM   13  C9  UNL     1      22.324   3.840  51.357  1.00  0.00     0.141 A 
HETATM   14  N3  UNL     1      23.619   3.307  51.718  1.00  0.00    -0.340 N 
HETATM   15  C10 UNL     1      24.046   2.028  52.193  1.00  0.00     0.043 A 
HETATM   16  C11 UNL     1      25.358   1.961  51.778  1.00  0.00     0.033 A 
HETATM   17  C12 UNL     1      26.044   0.813  52.099  1.00  0.00     0.044 A 
HETATM   18  C13 UNL     1      25.453  -0.214  52.798  1.00  0.00     0.117 A 
HETATM   19  F1  UNL     1      26.139  -1.334  53.105  1.00  0.00    -0.206 F 
HETATM   20  C14 UNL     1      24.139  -0.053  53.167  1.00  0.00     0.054 A 
HETATM   21  C15 UNL     1      23.328   1.062  52.905  1.00  0.00     0.006 A 
HETATM   22  C16 UNL     1      18.566   4.002  51.447  1.00  0.00     0.102 C 
HETATM   23  C17 UNL     1      17.431   3.276  51.426  1.00  0.00     0.019 C 
HETATM   24  C18 UNL     1      16.322   4.126  51.923  1.00  0.00     0.220 C 
HETATM   25  O3  UNL     1      15.503   4.389  50.827  1.00  0.00    -0.384 OA
HETATM   26  C19 UNL     1      15.810   3.708  49.686  1.00  0.00     0.187 C 
HETATM   27  C20 UNL     1      16.099   2.249  49.893  1.00  0.00     0.148 C 
HETATM   28  N4  UNL     1      16.807   1.991  51.126  1.00  0.00    -0.383 N 
HETATM   29  C21 UNL     1      16.856   0.740  51.852  1.00  0.00     0.124 C 
HETATM   30  C22 UNL     1      17.714  -0.308  51.210  1.00  0.00     0.040 C 
HETATM   31  C23 UNL     1      19.162  -0.019  51.105  1.00  0.00     0.133 C 
HETATM   32  N5  UNL     1      19.894   0.189  52.306  1.00  0.00    -0.317 N 
HETATM   33  H6  UNL     1      24.368   4.017  51.596  1.00  0.00     0.167 HD
ENDROOT
TORSDOF 0
ENDMDL
MODEL 3
REMARK VINA RESULT:     -10.0      1.401      1.855
REMARK  0 active torsions:
REMARK  status: ('A' for Active; 'I' for Inactive)
ROOT
HETATM    1  O1  UNL     1      25.214   4.887  49.921  1.00  0.00    -0.271 OA
HETATM    2  C1  UNL     1      25.012   3.858  50.611  1.00  0.00     0.248 C 
HETATM    3  C2  UNL     1      26.256   3.014  50.691  1.00  0.00     0.272 C 
HETATM    4  O2  UNL     1      26.150   2.293  51.887  1.00  0.00    -0.366 OA
HETATM    5  C3  UNL     1      25.105   1.341  51.762  1.00  0.00     0.207 C 
HETATM    6  C4  UNL     1      23.855   2.012  51.330  1.00  0.00     0.049 C 
HETATM    7  C5  UNL     1      22.752   1.375  50.974  1.00  0.00     0.045 C 
HETATM    8  C6  UNL     1      21.768   0.651  51.809  1.00  0.00     0.037 A 
HETATM    9  C7  UNL     1      20.493   1.007  51.333  1.00  0.00     0.060 A 
HETATM   10  N1  UNL     1      19.412   0.473  51.939  1.00  0.00    -0.245 NA
HETATM   11  C8  UNL     1      19.490  -0.379  52.969  1.00  0.00     0.235 A 
HETATM   12  N2  UNL     1      20.717  -0.735  53.444  1.00  0.00    -0.224 NA
HETATM   13  C9  UNL     1      21.795  -0.222  52.865  1.00  0.00     0.141 A 
HETATM   14  N3  UNL     1      22.929  -0.762  53.580  1.00  0.00    -0.340 N 
HETATM   15  C10 UNL     1      24.265  -0.296  53.779  1.00  0.00     0.043 A 
HETATM   16  C11 UNL     1      24.630  -0.884  54.970  1.00  0.00     0.033 A 
HETATM   17  C12 UNL     1      25.897  -0.608  55.427  1.00  0.00     0.044 A 
HETATM   18  C13 UNL     1      26.757   0.211  54.732  1.00  0.00     0.117 A 
HETATM   19  F1  UNL     1      27.997   0.472  55.193  1.00  0.00    -0.206 F 
HETATM   20  C14 UNL     1      26.301   0.751  53.554  1.00  0.00     0.054 A 
HETATM   21  C15 UNL     1      25.036   0.552  52.978  1.00  0.00     0.006 A 
HETATM   22  C16 UNL     1      20.120   1.896  50.244  1.00  0.00     0.102 C 
HETATM   23  C17 UNL     1      20.114   3.101  49.639  1.00  0.00     0.019 C 
HETATM   24  C18 UNL     1      19.352   2.984  48.372  1.00  0.00     0.220 C 
HETATM   25  O3  UNL     1      18.171   3.702  48.553  1.00  0.00    -0.384 OA
HETATM   26  C19 UNL     1      18.093   4.423  49.708  1.00  0.00     0.187 C 
HETATM   27  C20 UNL     1      19.335   5.200  50.041  1.00  0.00     0.148 C 
HETATM   28  N4  UNL     1      20.544   4.494  49.686  1.00  0.00    -0.383 N 
HETATM   29  C21 UNL     1      21.848   5.075  49.445  1.00  0.00     0.124 C 
HETATM   30  C22 UNL     1      22.551   5.537  50.686  1.00  0.00     0.040 C 
HETATM   31  C23 UNL     1      22.915   4.499  51.677  1.00  0.00     0.133 C 
HETATM   32  N5  UNL     1      23.799   3.463  51.270  1.00  0.00    -0.317 N 
HETATM   33  H6  UNL     1      22.695  -1.669  54.032  1.00  0.00     0.167 HD
ENDROOT
TORSDOF 0
ENDMDL
MODEL 4
REMARK VINA RESULT:      -9.7      3.037      6.687
REMARK  0 active torsions:
REMARK  status: ('A' for Active; 'I' for Inactive)
ROOT
HETATM    1  O1  UNL     1      25.708   5.544  50.264  1.00  0.00    -0.271 OA
HETATM    2  C1  UNL     1      24.524   5.200  50.495  1.00  0.00     0.248 C 
HETATM    3  C2  UNL     1      23.627   6.405  50.602  1.00  0.00     0.272 C 
HETATM    4  O2  UNL     1      22.347   5.959  50.249  1.00  0.00    -0.366 OA
HETATM    5  C3  UNL     1      21.864   5.089  51.262  1.00  0.00     0.207 C 
HETATM    6  C4  UNL     1      22.849   4.009  51.516  1.00  0.00     0.049 C 
HETATM    7  C5  UNL     1      22.761   3.139  52.508  1.00  0.00     0.045 C 
HETATM    8  C6  UNL     1      21.845   1.989  52.677  1.00  0.00     0.037 A 
HETATM    9  C7  UNL     1      22.619   0.924  53.171  1.00  0.00     0.060 A 
HETATM   10  N1  UNL     1      22.007  -0.255  53.411  1.00  0.00    -0.245 NA
HETATM   11  C8  UNL     1      20.700  -0.462  53.203  1.00  0.00     0.235 A 
HETATM   12  N2  UNL     1      19.935   0.558  52.725  1.00  0.00    -0.224 NA
HETATM   13  C9  UNL     1      20.514   1.726  52.480  1.00  0.00     0.141 A 
HETATM   14  N3  UNL     1      19.473   2.593  51.977  1.00  0.00    -0.340 N 
HETATM   15  C10 UNL     1      19.490   3.747  51.134  1.00  0.00     0.043 A 
HETATM   16  C11 UNL     1      18.239   3.735  50.558  1.00  0.00     0.033 A 
HETATM   17  C12 UNL     1      17.962   4.753  49.676  1.00  0.00     0.044 A 
HETATM   18  C13 UNL     1      18.883   5.732  49.384  1.00  0.00     0.117 A 
HETATM   19  F1  UNL     1      18.596   6.724  48.516  1.00  0.00    -0.206 F 
HETATM   20  C14 UNL     1      20.104   5.657  50.010  1.00  0.00     0.054 A 
HETATM   21  C15 UNL     1      20.514   4.676  50.926  1.00  0.00     0.006 A 
HETATM   22  C16 UNL     1      24.038   0.871  53.486  1.00  0.00     0.102 C 
HETATM   23  C17 UNL     1      25.338   0.979  53.146  1.00  0.00     0.019 C 
HETATM   24  C18 UNL     1      26.161   0.695  54.347  1.00  0.00     0.220 C 
HETATM   25  O3  UNL     1      26.788  -0.528  54.116  1.00  0.00    -0.384 OA
HETATM   26  C19 UNL     1      26.633  -1.042  52.863  1.00  0.00     0.187 C 
HETATM   27  C20 UNL     1      26.820  -0.044  51.756  1.00  0.00     0.148 C 
HETATM   28  N4  UNL     1      26.306   1.264  52.092  1.00  0.00    -0.383 N 
HETATM   29  C21 UNL     1      26.691   2.526  51.497  1.00  0.00     0.124 C 
HETATM   30  C22 UNL     1      26.158   2.738  50.113  1.00  0.00     0.040 C 
HETATM   31  C23 UNL     1      24.688   2.826  49.965  1.00  0.00     0.133 C 
HETATM   32  N5  UNL     1      24.005   3.869  50.648  1.00  0.00    -0.317 N 
HETATM   33  H6  UNL     1      18.534   2.289  52.308  1.00  0.00     0.167 HD
ENDROOT
TORSDOF 0
ENDMDL
MODEL 5
REMARK VINA RESULT:      -9.6      2.511      3.738
REMARK  0 active torsions:
REMARK  status: ('A' for Active; 'I' for Inactive)
ROOT
HETATM    1  O1  UNL     1      26.565   6.419  48.694  1.00  0.00    -0.271 OA
HETATM    2  C1  UNL     1      26.149   5.424  49.337  1.00  0.00     0.248 C 
HETATM    3  C2  UNL     1      27.057   4.239  49.138  1.00  0.00     0.272 C 
HETATM    4  O2  UNL     1      26.901   3.446  50.282  1.00  0.00    -0.366 OA
HETATM    5  C3  UNL     1      25.600   2.878  50.278  1.00  0.00     0.207 C 
HETATM    6  C4  UNL     1      24.581   3.944  50.119  1.00  0.00     0.049 C 
HETATM    7  C5  UNL     1      23.293   3.718  49.920  1.00  0.00     0.045 C 
HETATM    8  C6  UNL     1      22.262   3.232  50.864  1.00  0.00     0.037 A 
HETATM    9  C7  UNL     1      21.113   4.012  50.644  1.00  0.00     0.060 A 
HETATM   10  N1  UNL     1      20.017   3.762  51.393  1.00  0.00    -0.245 NA
HETATM   11  C8  UNL     1      19.969   2.809  52.333  1.00  0.00     0.235 A 
HETATM   12  N2  UNL     1      21.073   2.043  52.558  1.00  0.00    -0.224 NA
HETATM   13  C9  UNL     1      22.162   2.271  51.836  1.00  0.00     0.141 A 
HETATM   14  N3  UNL     1      23.156   1.331  52.302  1.00  0.00    -0.340 N 
HETATM   15  C10 UNL     1      24.586   1.343  52.294  1.00  0.00     0.043 A 
HETATM   16  C11 UNL     1      24.912   0.532  53.359  1.00  0.00     0.033 A 
HETATM   17  C12 UNL     1      26.254   0.354  53.604  1.00  0.00     0.044 A 
HETATM   18  C13 UNL     1      27.219   0.952  52.827  1.00  0.00     0.117 A 
HETATM   19  F1  UNL     1      28.531   0.767  53.080  1.00  0.00    -0.206 F 
HETATM   20  C14 UNL     1      26.793   1.742  51.787  1.00  0.00     0.054 A 
HETATM   21  C15 UNL     1      25.461   2.007  51.431  1.00  0.00     0.006 A 
HETATM   22  C16 UNL     1      20.888   5.097  49.702  1.00  0.00     0.102 C 
HETATM   23  C17 UNL     1      21.179   6.310  49.191  1.00  0.00     0.019 C 
HETATM   24  C18 UNL     1      20.243   6.583  48.074  1.00  0.00     0.220 C 
HETATM   25  O3  UNL     1      19.393   7.598  48.508  1.00  0.00    -0.384 OA
HETATM   26  C19 UNL     1      19.717   8.164  49.706  1.00  0.00     0.187 C 
HETATM   27  C20 UNL     1      21.176   8.482  49.867  1.00  0.00     0.148 C 
HETATM   28  N4  UNL     1      22.033   7.491  49.258  1.00  0.00    -0.383 N 
HETATM   29  C21 UNL     1      23.404   7.674  48.832  1.00  0.00     0.124 C 
HETATM   30  C22 UNL     1      24.390   7.748  49.958  1.00  0.00     0.040 C 
HETATM   31  C23 UNL     1      24.544   6.537  50.796  1.00  0.00     0.133 C 
HETATM   32  N5  UNL     1      24.983   5.339  50.170  1.00  0.00    -0.317 N 
HETATM   33  H6  UNL     1      22.714   0.490  52.724  1.00  0.00     0.167 HD
ENDROOT
TORSDOF 0
ENDMDL
MODEL 6
REMARK VINA RESULT:      -9.4      3.102      5.946
REMARK  0 active torsions:
REMARK  status: ('A' for Active; 'I' for Inactive)
ROOT
HETATM    1  O1  UNL     1      19.194   4.059  50.573  1.00  0.00    -0.271 OA
HETATM    2  C1  UNL     1      20.355   3.699  50.885  1.00  0.00     0.248 C 
HETATM    3  C2  UNL     1      20.401   3.208  52.307  1.00  0.00     0.272 C 
HETATM    4  O2  UNL     1      21.475   2.312  52.365  1.00  0.00    -0.366 OA
HETATM    5  C3  UNL     1      22.689   3.034  52.220  1.00  0.00     0.207 C 
HETATM    6  C4  UNL     1      22.641   3.865  50.992  1.00  0.00     0.049 C 
HETATM    7  C5  UNL     1      23.552   4.768  50.669  1.00  0.00     0.045 C 
HETATM    8  C6  UNL     1      24.934   4.579  50.175  1.00  0.00     0.037 A 
HETATM    9  C7  UNL     1      25.124   5.510  49.138  1.00  0.00     0.060 A 
HETATM   10  N1  UNL     1      26.322   5.538  48.514  1.00  0.00    -0.245 NA
HETATM   11  C8  UNL     1      27.337   4.726  48.834  1.00  0.00     0.235 A 
HETATM   12  N2  UNL     1      27.172   3.819  49.836  1.00  0.00    -0.224 NA
HETATM   13  C9  UNL     1      26.003   3.772  50.463  1.00  0.00     0.141 A 
HETATM   14  N3  UNL     1      26.120   2.721  51.449  1.00  0.00    -0.340 N 
HETATM   15  C10 UNL     1      25.160   1.880  52.093  1.00  0.00     0.043 A 
HETATM   16  C11 UNL     1      25.891   0.759  52.417  1.00  0.00     0.033 A 
HETATM   17  C12 UNL     1      25.213  -0.250  53.061  1.00  0.00     0.044 A 
HETATM   18  C13 UNL     1      23.876  -0.145  53.366  1.00  0.00     0.117 A 
HETATM   19  F1  UNL     1      23.225  -1.143  53.998  1.00  0.00    -0.206 F 
HETATM   20  C14 UNL     1      23.233   1.013  53.001  1.00  0.00     0.054 A 
HETATM   21  C15 UNL     1      23.804   2.113  52.342  1.00  0.00     0.006 A 
HETATM   22  C16 UNL     1      24.207   6.499  48.593  1.00  0.00     0.102 C 
HETATM   23  C17 UNL     1      23.049   6.848  47.997  1.00  0.00     0.019 C 
HETATM   24  C18 UNL     1      23.032   8.322  47.838  1.00  0.00     0.220 C 
HETATM   25  O3  UNL     1      23.152   8.575  46.473  1.00  0.00    -0.384 OA
HETATM   26  C19 UNL     1      23.091   7.478  45.664  1.00  0.00     0.187 C 
HETATM   27  C20 UNL     1      21.993   6.513  46.010  1.00  0.00     0.148 C 
HETATM   28  N4  UNL     1      21.780   6.398  47.434  1.00  0.00    -0.383 N 
HETATM   29  C21 UNL     1      20.577   5.942  48.097  1.00  0.00     0.124 C 
HETATM   30  C22 UNL     1      20.350   4.464  48.005  1.00  0.00     0.040 C 
HETATM   31  C23 UNL     1      21.348   3.589  48.661  1.00  0.00     0.133 C 
HETATM   32  N5  UNL     1      21.534   3.717  50.064  1.00  0.00    -0.317 N 
HETATM   33  H6  UNL     1      27.111   2.567  51.723  1.00  0.00     0.167 HD
ENDROOT
TORSDOF 0
ENDMDL
MODEL 7
REMARK VINA RESULT:      -9.3      2.477      4.799
REMARK  0 active torsions:
REMARK  status: ('A' for Active; 'I' for Inactive)
ROOT
HETATM    1  O1  UNL     1      19.635  -0.020  52.339  1.00  0.00    -0.271 OA
HETATM    2  C1  UNL     1      20.813   0.413  52.335  1.00  0.00     0.248 C 
HETATM    3  C2  UNL     1      21.530   0.032  53.603  1.00  0.00     0.272 C 
HETATM    4  O2  UNL     1      22.890  -0.005  53.274  1.00  0.00    -0.366 OA
HETATM    5  C3  UNL     1      23.340   1.317  53.019  1.00  0.00     0.207 C 
HETATM    6  C4  UNL     1      22.474   1.961  52.001  1.00  0.00     0.049 C 
HETATM    7  C5  UNL     1      22.539   3.239  51.669  1.00  0.00     0.045 C 
HETATM    8  C6  UNL     1      23.561   3.959  50.877  1.00  0.00     0.037 A 
HETATM    9  C7  UNL     1      22.868   4.824  50.012  1.00  0.00     0.060 A 
HETATM   10  N1  UNL     1      23.586   5.601  49.173  1.00  0.00    -0.245 NA
HETATM   11  C8  UNL     1      24.924   5.589  49.123  1.00  0.00     0.235 A 
HETATM   12  N2  UNL     1      25.612   4.758  49.954  1.00  0.00    -0.224 NA
HETATM   13  C9  UNL     1      24.928   3.984  50.787  1.00  0.00     0.141 A 
HETATM   14  N3  UNL     1      25.910   3.216  51.518  1.00  0.00    -0.340 N 
HETATM   15  C10 UNL     1      25.860   1.950  52.179  1.00  0.00     0.043 A 
HETATM   16  C11 UNL     1      27.168   1.519  52.135  1.00  0.00     0.033 A 
HETATM   17  C12 UNL     1      27.429   0.297  52.707  1.00  0.00     0.044 A 
HETATM   18  C13 UNL     1      26.439  -0.457  53.294  1.00  0.00     0.117 A 
HETATM   19  F1  UNL     1      26.712  -1.655  53.851  1.00  0.00    -0.206 F 
HETATM   20  C14 UNL     1      25.166   0.058  53.287  1.00  0.00     0.054 A 
HETATM   21  C15 UNL     1      24.764   1.286  52.739  1.00  0.00     0.006 A 
HETATM   22  C16 UNL     1      21.437   5.039  49.858  1.00  0.00     0.102 C 
HETATM   23  C17 UNL     1      20.190   4.604  49.586  1.00  0.00     0.019 C 
HETATM   24  C18 UNL     1      19.259   5.751  49.708  1.00  0.00     0.220 C 
HETATM   25  O3  UNL     1      18.826   6.048  48.417  1.00  0.00    -0.384 OA
HETATM   26  C19 UNL     1      19.208   5.165  47.450  1.00  0.00     0.187 C 
HETATM   27  C20 UNL     1      19.045   3.721  47.830  1.00  0.00     0.148 C 
HETATM   28  N4  UNL     1      19.342   3.474  49.222  1.00  0.00    -0.383 N 
HETATM   29  C21 UNL     1      18.884   2.358  50.022  1.00  0.00     0.124 C 
HETATM   30  C22 UNL     1      19.565   1.060  49.708  1.00  0.00     0.040 C 
HETATM   31  C23 UNL     1      21.019   0.982  49.973  1.00  0.00     0.133 C 
HETATM   32  N5  UNL     1      21.469   1.173  51.308  1.00  0.00    -0.317 N 
HETATM   33  H6  UNL     1      26.827   3.706  51.550  1.00  0.00     0.167 HD
ENDROOT
TORSDOF 0
ENDMDL
MODEL 8
REMARK VINA RESULT:      -9.1      6.840     10.366
REMARK  0 active torsions:
REMARK  status: ('A' for Active; 'I' for Inactive)
ROOT
HETATM    1  O1  UNL     1      31.797   7.387  48.317  1.00  0.00    -0.271 OA
HETATM    2  C1  UNL     1      30.579   7.087  48.346  1.00  0.00     0.248 C 
HETATM    3  C2  UNL     1      30.379   5.625  48.044  1.00  0.00     0.272 C 
HETATM    4  O2  UNL     1      29.178   5.269  48.670  1.00  0.00    -0.366 OA
HETATM    5  C3  UNL     1      28.100   5.901  47.998  1.00  0.00     0.207 C 
HETATM    6  C4  UNL     1      28.343   7.362  47.910  1.00  0.00     0.049 C 
HETATM    7  C5  UNL     1      27.600   8.199  47.204  1.00  0.00     0.045 C 
HETATM    8  C6  UNL     1      26.235   8.704  47.470  1.00  0.00     0.037 A 
HETATM    9  C7  UNL     1      26.248  10.080  47.176  1.00  0.00     0.060 A 
HETATM   10  N1  UNL     1      25.106  10.780  47.341  1.00  0.00    -0.245 NA
HETATM   11  C8  UNL     1      23.962  10.232  47.769  1.00  0.00     0.235 A 
HETATM   12  N2  UNL     1      23.930   8.902  48.058  1.00  0.00    -0.224 NA
HETATM   13  C9  UNL     1      25.041   8.192  47.904  1.00  0.00     0.141 A 
HETATM   14  N3  UNL     1      24.710   6.841  48.295  1.00  0.00    -0.340 N 
HETATM   15  C10 UNL     1      25.492   5.752  48.791  1.00  0.00     0.043 A 
HETATM   16  C11 UNL     1      24.580   5.012  49.512  1.00  0.00     0.033 A 
HETATM   17  C12 UNL     1      25.059   3.876  50.122  1.00  0.00     0.044 A 
HETATM   18  C13 UNL     1      26.377   3.498  50.018  1.00  0.00     0.117 A 
HETATM   19  F1  UNL     1      26.831   2.380  50.623  1.00  0.00    -0.206 F 
HETATM   20  C14 UNL     1      27.209   4.302  49.278  1.00  0.00     0.054 A 
HETATM   21  C15 UNL     1      26.851   5.482  48.607  1.00  0.00     0.006 A 
HETATM   22  C16 UNL     1      27.335  10.921  46.700  1.00  0.00     0.102 C 
HETATM   23  C17 UNL     1      28.564  11.461  46.823  1.00  0.00     0.019 C 
HETATM   24  C18 UNL     1      28.817  12.322  45.642  1.00  0.00     0.220 C 
HETATM   25  O3  UNL     1      28.812  13.637  46.102  1.00  0.00    -0.384 OA
HETATM   26  C19 UNL     1      28.749  13.786  47.456  1.00  0.00     0.187 C 
HETATM   27  C20 UNL     1      29.665  12.876  48.224  1.00  0.00     0.148 C 
HETATM   28  N4  UNL     1      29.779  11.566  47.625  1.00  0.00    -0.383 N 
HETATM   29  C21 UNL     1      30.859  10.620  47.808  1.00  0.00     0.124 C 
HETATM   30  C22 UNL     1      30.861   9.944  49.145  1.00  0.00     0.040 C 
HETATM   31  C23 UNL     1      29.706   9.073  49.459  1.00  0.00     0.133 C 
HETATM   32  N5  UNL     1      29.464   7.950  48.621  1.00  0.00    -0.317 N 
HETATM   33  H6  UNL     1      23.693   6.652  48.184  1.00  0.00     0.167 HD
ENDROOT
TORSDOF 0
ENDMDL
MODEL 9
REMARK VINA RESULT:      -9.1      8.352     11.692
REMARK  0 active torsions:
REMARK  status: ('A' for Active; 'I' for Inactive)
ROOT
HETATM    1  O1  UNL     1      26.545   6.674  48.035  1.00  0.00    -0.271 OA
HETATM    2  C1  UNL     1      27.791   6.559  47.939  1.00  0.00     0.248 C 
HETATM    3  C2  UNL     1      28.263   5.279  48.577  1.00  0.00     0.272 C 
HETATM    4  O2  UNL     1      29.455   4.946  47.924  1.00  0.00    -0.366 OA
HETATM    5  C3  UNL     1      30.457   5.888  48.280  1.00  0.00     0.207 C 
HETATM    6  C4  UNL     1      29.973   7.266  48.021  1.00  0.00     0.049 C 
HETATM    7  C5  UNL     1      30.610   8.362  48.396  1.00  0.00     0.045 C 
HETATM    8  C6  UNL     1      31.844   8.970  47.849  1.00  0.00     0.037 A 
HETATM    9  C7  UNL     1      31.615  10.357  47.782  1.00  0.00     0.060 A 
HETATM   10  N1  UNL     1      32.604  11.146  47.309  1.00  0.00    -0.245 NA
HETATM   11  C8  UNL     1      33.790  10.676  46.901  1.00  0.00     0.235 A 
HETATM   12  N2  UNL     1      34.029   9.336  46.960  1.00  0.00    -0.224 NA
HETATM   13  C9  UNL     1      33.072   8.540  47.420  1.00  0.00     0.141 A 
HETATM   14  N3  UNL     1      33.601   7.197  47.350  1.00  0.00    -0.340 N 
HETATM   15  C10 UNL     1      32.983   5.912  47.245  1.00  0.00     0.043 A 
HETATM   16  C11 UNL     1      33.951   5.147  46.634  1.00  0.00     0.033 A 
HETATM   17  C12 UNL     1      33.631   3.831  46.395  1.00  0.00     0.044 A 
HETATM   18  C13 UNL     1      32.410   3.306  46.748  1.00  0.00     0.117 A 
HETATM   19  F1  UNL     1      32.111   2.012  46.507  1.00  0.00    -0.206 F 
HETATM   20  C14 UNL     1      31.510   4.149  47.353  1.00  0.00     0.054 A 
HETATM   21  C15 UNL     1      31.709   5.507  47.652  1.00  0.00     0.006 A 
HETATM   22  C16 UNL     1      30.439  11.127  48.154  1.00  0.00     0.102 C 
HETATM   23  C17 UNL     1      29.129  11.428  48.045  1.00  0.00     0.019 C 
HETATM   24  C18 UNL     1      28.823  12.529  48.989  1.00  0.00     0.220 C 
HETATM   25  O3  UNL     1      28.565  13.657  48.211  1.00  0.00    -0.384 OA
HETATM   26  C19 UNL     1      28.498  13.441  46.866  1.00  0.00     0.187 C 
HETATM   27  C20 UNL     1      27.697  12.233  46.471  1.00  0.00     0.148 C 
HETATM   28  N4  UNL     1      27.858  11.132  47.393  1.00  0.00    -0.383 N 
HETATM   29  C21 UNL     1      26.946  10.025  47.588  1.00  0.00     0.124 C 
HETATM   30  C22 UNL     1      26.960   9.019  46.477  1.00  0.00     0.040 C 
HETATM   31  C23 UNL     1      28.220   8.274  46.261  1.00  0.00     0.133 C 
HETATM   32  N5  UNL     1      28.716   7.468  47.321  1.00  0.00    -0.317 N 
HETATM   33  H6  UNL     1      34.640   7.197  47.383  1.00  0.00     0.167 HD
ENDROOT
TORSDOF 0
ENDMDL
