MODEL 1
REMARK VINA RESULT:      -6.3      0.000      0.000
REMARK  8 active torsions:
REMARK  status: ('A' for Active; 'I' for Inactive)
REMARK    1  A    between atoms: C2_2  and  C3_3 
REMARK    2  A    between atoms: N1_4  and  C4_5 
REMARK    3  A    between atoms: C4_5  and  C5_6 
REMARK    4  A    between atoms: C5_6  and  C6_7 
REMARK    5  A    between atoms: C6_7  and  O1_8 
REMARK    6  A    between atoms: O1_8  and  C7_9 
REMARK    7  A    between atoms: C7_9  and  C8_10 
REMARK    8  A    between atoms: C12_16  and  C13_17 
ROOT
HETATM    1  C7  UNL     1      24.695   2.021  52.069  1.00  0.00     0.155 A 
HETATM    2  C10 UNL     1      23.224   1.672  51.775  1.00  0.00     0.039 A 
HETATM    3  C11 UNL     1      22.930   0.511  52.320  1.00  0.00     0.116 A 
HETATM    4  N2  UNL     1      24.074   0.043  52.954  1.00  0.00    -0.261 NA
HETATM    5  C12 UNL     1      25.103   0.848  52.846  1.00  0.00     0.088 A 
ENDROOT
BRANCH   1   6
HETATM    6  O1  UNL     1      25.325   2.052  50.872  1.00  0.00    -0.367 OA
BRANCH   6   7
HETATM    7  C6  UNL     1      26.425   2.860  50.829  1.00  0.00     0.171 C 
BRANCH   7   8
HETATM    8  C5  UNL     1      26.511   3.605  49.484  1.00  0.00     0.048 C 
BRANCH   8   9
HETATM    9  C4  UNL     1      25.472   4.713  49.491  1.00  0.00     0.150 C 
BRANCH   9  10
HETATM   10  N1  UNL     1      26.170   5.977  49.290  1.00  0.00    -0.302 NA
HETATM   11  C3  UNL     1      25.854   7.044  49.900  1.00  0.00     0.109 C 
BRANCH  11  12
HETATM   12  C2  UNL     1      24.765   7.053  50.841  1.00  0.00     0.009 C 
HETATM   13  C1  UNL     1      23.714   7.815  50.617  1.00  0.00     0.013 C 
ENDBRANCH  11  12
ENDBRANCH   9  10
ENDBRANCH   8   9
ENDBRANCH   7   8
ENDBRANCH   6   7
ENDBRANCH   1   6
BRANCH   1  14
HETATM   14  C8  UNL     1      24.604   3.314  52.831  1.00  0.00     0.210 C 
HETATM   15  C9  UNL     1      23.364   4.119  52.610  1.00  0.00     0.049 C 
HETATM   16  F1  UNL     1      24.762   3.118  54.185  1.00  0.00    -0.246 F 
ENDBRANCH   1  14
BRANCH   5  17
HETATM   17  C13 UNL     1      26.326   0.381  53.486  1.00  0.00     0.028 A 
HETATM   18  C14 UNL     1      26.554   0.257  54.838  1.00  0.00     0.153 A 
HETATM   19  N3  UNL     1      27.812  -0.220  55.048  1.00  0.00    -0.185 NA
HETATM   20  N4  UNL     1      28.405  -0.408  53.895  1.00  0.00    -0.285 N 
HETATM   21  C15 UNL     1      29.743  -0.901  53.633  1.00  0.00     0.179 C 
HETATM   22  C16 UNL     1      27.522  -0.050  52.953  1.00  0.00     0.126 A 
ENDBRANCH   5  17
TORSDOF 8
ENDMDL
MODEL 2
REMARK VINA RESULT:      -6.2      2.062      6.206
REMARK  8 active torsions:
REMARK  status: ('A' for Active; 'I' for Inactive)
REMARK    1  A    between atoms: C2_2  and  C3_3 
REMARK    2  A    between atoms: N1_4  and  C4_5 
REMARK    3  A    between atoms: C4_5  and  C5_6 
REMARK    4  A    between atoms: C5_6  and  C6_7 
REMARK    5  A    between atoms: C6_7  and  O1_8 
REMARK    6  A    between atoms: O1_8  and  C7_9 
REMARK    7  A    between atoms: C7_9  and  C8_10 
REMARK    8  A    between atoms: C12_16  and  C13_17 
ROOT
HETATM    1  C7  UNL     1      23.561   2.807  51.473  1.00  0.00     0.155 A 
HETATM    2  C10 UNL     1      22.301   3.411  52.121  1.00  0.00     0.039 A 
HETATM    3  C11 UNL     1      22.268   4.707  51.896  1.00  0.00     0.116 A 
HETATM    4  N2  UNL     1      23.397   5.033  51.157  1.00  0.00    -0.261 NA
HETATM    5  C12 UNL     1      24.167   4.006  50.889  1.00  0.00     0.088 A 
ENDROOT
BRANCH   1   6
HETATM    6  O1  UNL     1      24.317   2.328  52.487  1.00  0.00    -0.367 OA
BRANCH   6   7
HETATM    7  C6  UNL     1      24.895   1.115  52.242  1.00  0.00     0.171 C 
BRANCH   7   8
HETATM    8  C5  UNL     1      25.606   0.578  53.498  1.00  0.00     0.048 C 
BRANCH   8   9
HETATM    9  C4  UNL     1      26.936   1.299  53.633  1.00  0.00     0.150 C 
BRANCH   9  10
HETATM   10  N1  UNL     1      27.563   0.845  54.869  1.00  0.00    -0.302 NA
HETATM   11  C3  UNL     1      28.627   0.154  54.888  1.00  0.00     0.109 C 
BRANCH  11  12
HETATM   12  C2  UNL     1      29.278  -0.221  53.660  1.00  0.00     0.009 C 
HETATM   13  C1  UNL     1      29.492  -1.495  53.397  1.00  0.00     0.013 C 
ENDBRANCH  11  12
ENDBRANCH   9  10
ENDBRANCH   8   9
ENDBRANCH   7   8
ENDBRANCH   6   7
ENDBRANCH   1   6
BRANCH   1  14
HETATM   14  C8  UNL     1      23.010   1.808  50.495  1.00  0.00     0.210 C 
HETATM   15  C9  UNL     1      21.634   1.300  50.782  1.00  0.00     0.049 C 
HETATM   16  F1  UNL     1      23.037   2.290  49.205  1.00  0.00    -0.246 F 
ENDBRANCH   1  14
BRANCH   5  17
HETATM   17  C13 UNL     1      25.371   4.315  50.127  1.00  0.00     0.028 A 
HETATM   18  C14 UNL     1      26.379   3.441  49.789  1.00  0.00     0.153 A 
HETATM   19  N3  UNL     1      27.330   4.097  49.068  1.00  0.00    -0.185 NA
HETATM   20  N4  UNL     1      26.982   5.352  48.927  1.00  0.00    -0.285 N 
HETATM   21  C15 UNL     1      27.685   6.416  48.238  1.00  0.00     0.179 C 
HETATM   22  C16 UNL     1      25.809   5.492  49.559  1.00  0.00     0.126 A 
ENDBRANCH   5  17
TORSDOF 8
ENDMDL
MODEL 3
REMARK VINA RESULT:      -6.1      2.271      5.806
REMARK  8 active torsions:
REMARK  status: ('A' for Active; 'I' for Inactive)
REMARK    1  A    between atoms: C2_2  and  C3_3 
REMARK    2  A    between atoms: N1_4  and  C4_5 
REMARK    3  A    between atoms: C4_5  and  C5_6 
REMARK    4  A    between atoms: C5_6  and  C6_7 
REMARK    5  A    between atoms: C6_7  and  O1_8 
REMARK    6  A    between atoms: O1_8  and  C7_9 
REMARK    7  A    between atoms: C7_9  and  C8_10 
REMARK    8  A    between atoms: C12_16  and  C13_17 
ROOT
HETATM    1  C7  UNL     1      24.049   2.590  51.322  1.00  0.00     0.155 A 
HETATM    2  C10 UNL     1      24.155   3.132  49.884  1.00  0.00     0.039 A 
HETATM    3  C11 UNL     1      23.129   2.709  49.177  1.00  0.00     0.116 A 
HETATM    4  N2  UNL     1      22.340   1.926  50.009  1.00  0.00    -0.261 NA
HETATM    5  C12 UNL     1      22.807   1.818  51.230  1.00  0.00     0.088 A 
ENDROOT
BRANCH   1   6
HETATM    6  O1  UNL     1      25.113   1.774  51.500  1.00  0.00    -0.367 OA
BRANCH   6   7
HETATM    7  C6  UNL     1      26.323   2.353  51.238  1.00  0.00     0.171 C 
BRANCH   7   8
HETATM    8  C5  UNL     1      27.286   2.178  52.427  1.00  0.00     0.048 C 
BRANCH   8   9
HETATM    9  C4  UNL     1      26.709   1.119  53.352  1.00  0.00     0.150 C 
BRANCH   9  10
HETATM   10  N1  UNL     1      27.491   1.130  54.582  1.00  0.00    -0.302 NA
HETATM   11  C3  UNL     1      28.424   0.301  54.813  1.00  0.00     0.109 C 
BRANCH  11  12
HETATM   12  C2  UNL     1      28.758  -0.711  53.846  1.00  0.00     0.009 C 
HETATM   13  C1  UNL     1      30.022  -0.953  53.564  1.00  0.00     0.013 C 
ENDBRANCH  11  12
ENDBRANCH   9  10
ENDBRANCH   8   9
ENDBRANCH   7   8
ENDBRANCH   6   7
ENDBRANCH   1   6
BRANCH   1  14
HETATM   14  C8  UNL     1      23.987   3.833  52.164  1.00  0.00     0.210 C 
HETATM   15  C9  UNL     1      22.712   4.610  52.092  1.00  0.00     0.049 C 
HETATM   16  F1  UNL     1      24.260   3.564  53.488  1.00  0.00    -0.246 F 
ENDBRANCH   1  14
BRANCH   5  17
HETATM   17  C13 UNL     1      22.012   0.988  52.126  1.00  0.00     0.028 A 
HETATM   18  C14 UNL     1      22.409   0.471  53.339  1.00  0.00     0.153 A 
HETATM   19  N3  UNL     1      21.388  -0.245  53.887  1.00  0.00    -0.185 NA
HETATM   20  N4  UNL     1      20.353  -0.214  53.084  1.00  0.00    -0.285 N 
HETATM   21  C15 UNL     1      19.054  -0.833  53.254  1.00  0.00     0.179 C 
HETATM   22  C16 UNL     1      20.719   0.522  52.025  1.00  0.00     0.126 A 
ENDBRANCH   5  17
TORSDOF 8
ENDMDL
MODEL 4
REMARK VINA RESULT:      -6.1      1.728      2.132
REMARK  8 active torsions:
REMARK  status: ('A' for Active; 'I' for Inactive)
REMARK    1  A    between atoms: C2_2  and  C3_3 
REMARK    2  A    between atoms: N1_4  and  C4_5 
REMARK    3  A    between atoms: C4_5  and  C5_6 
REMARK    4  A    between atoms: C5_6  and  C6_7 
REMARK    5  A    between atoms: C6_7  and  O1_8 
REMARK    6  A    between atoms: O1_8  and  C7_9 
REMARK    7  A    between atoms: C7_9  and  C8_10 
REMARK    8  A    between atoms: C12_16  and  C13_17 
ROOT
HETATM    1  C7  UNL     1      24.013   2.557  51.701  1.00  0.00     0.155 A 
HETATM    2  C10 UNL     1      22.555   2.439  51.220  1.00  0.00     0.039 A 
HETATM    3  C11 UNL     1      22.044   1.301  51.640  1.00  0.00     0.116 A 
HETATM    4  N2  UNL     1      23.029   0.639  52.359  1.00  0.00    -0.261 NA
HETATM    5  C12 UNL     1      24.163   1.293  52.428  1.00  0.00     0.088 A 
ENDROOT
BRANCH   1   6
HETATM    6  O1  UNL     1      24.781   2.569  50.587  1.00  0.00    -0.367 OA
BRANCH   6   7
HETATM    7  C6  UNL     1      25.867   3.395  50.654  1.00  0.00     0.171 C 
BRANCH   7   8
HETATM    8  C5  UNL     1      26.677   3.347  49.345  1.00  0.00     0.048 C 
BRANCH   8   9
HETATM    9  C4  UNL     1      26.974   4.775  48.920  1.00  0.00     0.150 C 
BRANCH   9  10
HETATM   10  N1  UNL     1      28.387   4.848  48.568  1.00  0.00    -0.302 NA
HETATM   11  C3  UNL     1      28.932   5.902  48.118  1.00  0.00     0.109 C 
BRANCH  11  12
HETATM   12  C2  UNL     1      28.158   7.102  47.931  1.00  0.00     0.009 C 
HETATM   13  C1  UNL     1      28.557   8.230  48.483  1.00  0.00     0.013 C 
ENDBRANCH  11  12
ENDBRANCH   9  10
ENDBRANCH   8   9
ENDBRANCH   7   8
ENDBRANCH   6   7
ENDBRANCH   1   6
BRANCH   1  14
HETATM   14  C8  UNL     1      24.007   3.801  52.544  1.00  0.00     0.210 C 
HETATM   15  C9  UNL     1      22.778   4.648  52.453  1.00  0.00     0.049 C 
HETATM   16  F1  UNL     1      24.244   3.518  53.871  1.00  0.00    -0.246 F 
ENDBRANCH   1  14
BRANCH   5  17
HETATM   17  C13 UNL     1      25.226   0.619  53.162  1.00  0.00     0.028 A 
HETATM   18  C14 UNL     1      25.236  -0.693  53.578  1.00  0.00     0.153 A 
HETATM   19  N3  UNL     1      26.405  -0.958  54.225  1.00  0.00    -0.185 NA
HETATM   20  N4  UNL     1      27.147   0.121  54.246  1.00  0.00    -0.285 N 
HETATM   21  C15 UNL     1      28.463   0.307  54.824  1.00  0.00     0.179 C 
HETATM   22  C16 UNL     1      26.448   1.072  53.611  1.00  0.00     0.126 A 
ENDBRANCH   5  17
TORSDOF 8
ENDMDL
MODEL 5
REMARK VINA RESULT:      -6.1      2.831      5.240
REMARK  8 active torsions:
REMARK  status: ('A' for Active; 'I' for Inactive)
REMARK    1  A    between atoms: C2_2  and  C3_3 
REMARK    2  A    between atoms: N1_4  and  C4_5 
REMARK    3  A    between atoms: C4_5  and  C5_6 
REMARK    4  A    between atoms: C5_6  and  C6_7 
REMARK    5  A    between atoms: C6_7  and  O1_8 
REMARK    6  A    between atoms: O1_8  and  C7_9 
REMARK    7  A    between atoms: C7_9  and  C8_10 
REMARK    8  A    between atoms: C12_16  and  C13_17 
ROOT
HETATM    1  C7  UNL     1      22.835   1.866  51.269  1.00  0.00     0.155 A 
HETATM    2  C10 UNL     1      22.209   1.893  49.862  1.00  0.00     0.039 A 
HETATM    3  C11 UNL     1      21.380   0.880  49.729  1.00  0.00     0.116 A 
HETATM    4  N2  UNL     1      21.394   0.168  50.921  1.00  0.00    -0.261 NA
HETATM    5  C12 UNL     1      22.196   0.672  51.827  1.00  0.00     0.088 A 
ENDROOT
BRANCH   1   6
HETATM    6  O1  UNL     1      24.161   1.667  51.091  1.00  0.00    -0.367 OA
BRANCH   6   7
HETATM    7  C6  UNL     1      24.954   2.220  52.056  1.00  0.00     0.171 C 
BRANCH   7   8
HETATM    8  C5  UNL     1      26.266   1.430  52.212  1.00  0.00     0.048 C 
BRANCH   8   9
HETATM    9  C4  UNL     1      27.006   1.976  53.421  1.00  0.00     0.150 C 
BRANCH   9  10
HETATM   10  N1  UNL     1      26.914   0.982  54.484  1.00  0.00    -0.302 NA
HETATM   11  C3  UNL     1      27.879   0.222  54.802  1.00  0.00     0.109 C 
BRANCH  11  12
HETATM   12  C2  UNL     1      29.138   0.311  54.110  1.00  0.00     0.009 C 
HETATM   13  C1  UNL     1      29.624  -0.750  53.497  1.00  0.00     0.013 C 
ENDBRANCH  11  12
ENDBRANCH   9  10
ENDBRANCH   8   9
ENDBRANCH   7   8
ENDBRANCH   6   7
ENDBRANCH   1   6
BRANCH   1  14
HETATM   14  C8  UNL     1      22.412   3.177  51.868  1.00  0.00     0.210 C 
HETATM   15  C9  UNL     1      22.223   4.307  50.907  1.00  0.00     0.049 C 
HETATM   16  F1  UNL     1      21.263   3.047  52.618  1.00  0.00    -0.246 F 
ENDBRANCH   1  14
BRANCH   5  17
HETATM   17  C13 UNL     1      22.247  -0.060  53.087  1.00  0.00     0.028 A 
HETATM   18  C14 UNL     1      21.178  -0.568  53.790  1.00  0.00     0.153 A 
HETATM   19  N3  UNL     1      21.626  -1.195  54.912  1.00  0.00    -0.185 NA
HETATM   20  N4  UNL     1      22.932  -1.115  54.966  1.00  0.00    -0.285 N 
HETATM   21  C15 UNL     1      23.832  -1.636  55.975  1.00  0.00     0.179 C 
HETATM   22  C16 UNL     1      23.313  -0.436  53.875  1.00  0.00     0.126 A 
ENDBRANCH   5  17
TORSDOF 8
ENDMDL
MODEL 6
REMARK VINA RESULT:      -6.0      2.820      5.515
REMARK  8 active torsions:
REMARK  status: ('A' for Active; 'I' for Inactive)
REMARK    1  A    between atoms: C2_2  and  C3_3 
REMARK    2  A    between atoms: N1_4  and  C4_5 
REMARK    3  A    between atoms: C4_5  and  C5_6 
REMARK    4  A    between atoms: C5_6  and  C6_7 
REMARK    5  A    between atoms: C6_7  and  O1_8 
REMARK    6  A    between atoms: O1_8  and  C7_9 
REMARK    7  A    between atoms: C7_9  and  C8_10 
REMARK    8  A    between atoms: C12_16  and  C13_17 
ROOT
HETATM    1  C7  UNL     1      22.573   1.732  52.114  1.00  0.00     0.155 A 
HETATM    2  C10 UNL     1      21.385   2.704  52.242  1.00  0.00     0.039 A 
HETATM    3  C11 UNL     1      21.834   3.932  52.391  1.00  0.00     0.116 A 
HETATM    4  N2  UNL     1      23.221   3.875  52.378  1.00  0.00    -0.261 NA
HETATM    5  C12 UNL     1      23.699   2.664  52.228  1.00  0.00     0.088 A 
ENDROOT
BRANCH   1   6
HETATM    6  O1  UNL     1      22.512   0.914  53.188  1.00  0.00    -0.367 OA
BRANCH   6   7
HETATM    7  C6  UNL     1      23.247  -0.232  53.073  1.00  0.00     0.171 C 
BRANCH   7   8
HETATM    8  C5  UNL     1      23.794  -0.677  54.443  1.00  0.00     0.048 C 
BRANCH   8   9
HETATM    9  C4  UNL     1      25.310  -0.721  54.356  1.00  0.00     0.150 C 
BRANCH   9  10
HETATM   10  N1  UNL     1      25.667  -0.988  52.967  1.00  0.00    -0.302 NA
HETATM   11  C3  UNL     1      26.866  -1.130  52.579  1.00  0.00     0.109 C 
BRANCH  11  12
HETATM   12  C2  UNL     1      27.954  -1.033  53.516  1.00  0.00     0.009 C 
HETATM   13  C1  UNL     1      29.124  -1.559  53.217  1.00  0.00     0.013 C 
ENDBRANCH  11  12
ENDBRANCH   9  10
ENDBRANCH   8   9
ENDBRANCH   7   8
ENDBRANCH   6   7
ENDBRANCH   1   6
BRANCH   1  14
HETATM   14  C8  UNL     1      22.373   1.108  50.762  1.00  0.00     0.210 C 
HETATM   15  C9  UNL     1      20.963   0.773  50.397  1.00  0.00     0.049 C 
HETATM   16  F1  UNL     1      22.911   1.883  49.758  1.00  0.00    -0.246 F 
ENDBRANCH   1  14
BRANCH   5  17
HETATM   17  C13 UNL     1      25.153   2.565  52.226  1.00  0.00     0.028 A 
HETATM   18  C14 UNL     1      25.971   2.469  51.124  1.00  0.00     0.153 A 
HETATM   19  N3  UNL     1      27.271   2.405  51.525  1.00  0.00    -0.185 NA
HETATM   20  N4  UNL     1      27.328   2.455  52.832  1.00  0.00    -0.285 N 
HETATM   21  C15 UNL     1      28.495   2.418  53.692  1.00  0.00     0.179 C 
HETATM   22  C16 UNL     1      26.063   2.551  53.261  1.00  0.00     0.126 A 
ENDBRANCH   5  17
TORSDOF 8
ENDMDL
MODEL 7
REMARK VINA RESULT:      -6.0      2.209      4.479
REMARK  8 active torsions:
REMARK  status: ('A' for Active; 'I' for Inactive)
REMARK    1  A    between atoms: C2_2  and  C3_3 
REMARK    2  A    between atoms: N1_4  and  C4_5 
REMARK    3  A    between atoms: C4_5  and  C5_6 
REMARK    4  A    between atoms: C5_6  and  C6_7 
REMARK    5  A    between atoms: C6_7  and  O1_8 
REMARK    6  A    between atoms: O1_8  and  C7_9 
REMARK    7  A    between atoms: C7_9  and  C8_10 
REMARK    8  A    between atoms: C12_16  and  C13_17 
ROOT
HETATM    1  C7  UNL     1      24.547   2.492  51.180  1.00  0.00     0.155 A 
HETATM    2  C10 UNL     1      23.724   3.715  51.626  1.00  0.00     0.039 A 
HETATM    3  C11 UNL     1      23.808   3.850  52.932  1.00  0.00     0.116 A 
HETATM    4  N2  UNL     1      24.613   2.824  53.409  1.00  0.00    -0.261 NA
HETATM    5  C12 UNL     1      25.058   2.023  52.471  1.00  0.00     0.088 A 
ENDROOT
BRANCH   1   6
HETATM    6  O1  UNL     1      23.664   1.609  50.660  1.00  0.00    -0.367 OA
BRANCH   6   7
HETATM    7  C6  UNL     1      22.580   2.178  50.055  1.00  0.00     0.171 C 
BRANCH   7   8
HETATM    8  C5  UNL     1      21.516   1.116  49.718  1.00  0.00     0.048 C 
BRANCH   8   9
HETATM    9  C4  UNL     1      21.207   0.338  50.986  1.00  0.00     0.150 C 
BRANCH   9  10
HETATM   10  N1  UNL     1      20.531   1.243  51.908  1.00  0.00    -0.302 NA
HETATM   11  C3  UNL     1      20.808   1.299  53.145  1.00  0.00     0.109 C 
BRANCH  11  12
HETATM   12  C2  UNL     1      21.826   0.451  53.706  1.00  0.00     0.009 C 
HETATM   13  C1  UNL     1      21.517  -0.392  54.670  1.00  0.00     0.013 C 
ENDBRANCH  11  12
ENDBRANCH   9  10
ENDBRANCH   8   9
ENDBRANCH   7   8
ENDBRANCH   6   7
ENDBRANCH   1   6
BRANCH   1  14
HETATM   14  C8  UNL     1      25.567   3.075  50.244  1.00  0.00     0.210 C 
HETATM   15  C9  UNL     1      25.184   4.354  49.571  1.00  0.00     0.049 C 
HETATM   16  F1  UNL     1      26.783   3.257  50.866  1.00  0.00    -0.246 F 
ENDBRANCH   1  14
BRANCH   5  17
HETATM   17  C13 UNL     1      25.893   0.924  52.938  1.00  0.00     0.028 A 
HETATM   18  C14 UNL     1      25.467  -0.230  53.556  1.00  0.00     0.153 A 
HETATM   19  N3  UNL     1      26.540  -1.022  53.835  1.00  0.00    -0.185 NA
HETATM   20  N4  UNL     1      27.636  -0.432  53.428  1.00  0.00    -0.285 N 
HETATM   21  C15 UNL     1      29.005  -0.899  53.516  1.00  0.00     0.179 C 
HETATM   22  C16 UNL     1      27.258   0.735  52.889  1.00  0.00     0.126 A 
ENDBRANCH   5  17
TORSDOF 8
ENDMDL
MODEL 8
REMARK VINA RESULT:      -5.8      2.177      6.685
REMARK  8 active torsions:
REMARK  status: ('A' for Active; 'I' for Inactive)
REMARK    1  A    between atoms: C2_2  and  C3_3 
REMARK    2  A    between atoms: N1_4  and  C4_5 
REMARK    3  A    between atoms: C4_5  and  C5_6 
REMARK    4  A    between atoms: C5_6  and  C6_7 
REMARK    5  A    between atoms: C6_7  and  O1_8 
REMARK    6  A    between atoms: O1_8  and  C7_9 
REMARK    7  A    between atoms: C7_9  and  C8_10 
REMARK    8  A    between atoms: C12_16  and  C13_17 
ROOT
HETATM    1  C7  UNL     1      23.679   3.586  51.306  1.00  0.00     0.155 A 
HETATM    2  C10 UNL     1      22.388   2.994  51.902  1.00  0.00     0.039 A 
HETATM    3  C11 UNL     1      21.522   3.961  52.124  1.00  0.00     0.116 A 
HETATM    4  N2  UNL     1      22.117   5.154  51.734  1.00  0.00    -0.261 NA
HETATM    5  C12 UNL     1      23.333   5.009  51.267  1.00  0.00     0.088 A 
ENDROOT
BRANCH   1   6
HETATM    6  O1  UNL     1      24.657   3.350  52.210  1.00  0.00    -0.367 OA
BRANCH   6   7
HETATM    7  C6  UNL     1      24.626   2.105  52.770  1.00  0.00     0.171 C 
BRANCH   7   8
HETATM    8  C5  UNL     1      25.958   1.365  52.545  1.00  0.00     0.048 C 
BRANCH   8   9
HETATM    9  C4  UNL     1      26.979   1.922  53.522  1.00  0.00     0.150 C 
BRANCH   9  10
HETATM   10  N1  UNL     1      27.090   0.983  54.631  1.00  0.00    -0.302 NA
HETATM   11  C3  UNL     1      28.115   0.258  54.821  1.00  0.00     0.109 C 
BRANCH  11  12
HETATM   12  C2  UNL     1      29.239   0.334  53.926  1.00  0.00     0.009 C 
HETATM   13  C1  UNL     1      29.845  -0.772  53.542  1.00  0.00     0.013 C 
ENDBRANCH  11  12
ENDBRANCH   9  10
ENDBRANCH   8   9
ENDBRANCH   7   8
ENDBRANCH   6   7
ENDBRANCH   1   6
BRANCH   1  14
HETATM   14  C8  UNL     1      23.797   2.903  49.973  1.00  0.00     0.210 C 
HETATM   15  C9  UNL     1      22.879   3.396  48.900  1.00  0.00     0.049 C 
HETATM   16  F1  UNL     1      25.088   2.941  49.493  1.00  0.00    -0.246 F 
ENDBRANCH   1  14
BRANCH   5  17
HETATM   17  C13 UNL     1      23.994   6.244  50.863  1.00  0.00     0.028 A 
HETATM   18  C14 UNL     1      23.436   7.502  50.821  1.00  0.00     0.153 A 
HETATM   19  N3  UNL     1      24.368   8.401  50.401  1.00  0.00    -0.185 NA
HETATM   20  N4  UNL     1      25.499   7.782  50.171  1.00  0.00    -0.285 N 
HETATM   21  C15 UNL     1      26.759   8.334  49.712  1.00  0.00     0.179 C 
HETATM   22  C16 UNL     1      25.284   6.488  50.445  1.00  0.00     0.126 A 
ENDBRANCH   5  17
TORSDOF 8
ENDMDL
MODEL 9
REMARK VINA RESULT:      -5.7      2.416      6.211
REMARK  8 active torsions:
REMARK  status: ('A' for Active; 'I' for Inactive)
REMARK    1  A    between atoms: C2_2  and  C3_3 
REMARK    2  A    between atoms: N1_4  and  C4_5 
REMARK    3  A    between atoms: C4_5  and  C5_6 
REMARK    4  A    between atoms: C5_6  and  C6_7 
REMARK    5  A    between atoms: C6_7  and  O1_8 
REMARK    6  A    between atoms: O1_8  and  C7_9 
REMARK    7  A    between atoms: C7_9  and  C8_10 
REMARK    8  A    between atoms: C12_16  and  C13_17 
ROOT
HETATM    1  C7  UNL     1      24.319   2.321  51.408  1.00  0.00     0.155 A 
HETATM    2  C10 UNL     1      25.089   3.107  50.331  1.00  0.00     0.039 A 
HETATM    3  C11 UNL     1      24.333   3.245  49.262  1.00  0.00     0.116 A 
HETATM    4  N2  UNL     1      23.122   2.617  49.521  1.00  0.00    -0.261 NA
HETATM    5  C12 UNL     1      23.053   2.075  50.712  1.00  0.00     0.088 A 
ENDROOT
BRANCH   1   6
HETATM    6  O1  UNL     1      25.000   1.167  51.595  1.00  0.00    -0.367 OA
BRANCH   6   7
HETATM    7  C6  UNL     1      26.326   1.329  51.880  1.00  0.00     0.171 C 
BRANCH   7   8
HETATM    8  C5  UNL     1      26.997  -0.026  52.173  1.00  0.00     0.048 C 
BRANCH   8   9
HETATM    9  C4  UNL     1      25.942  -0.965  52.733  1.00  0.00     0.150 C 
BRANCH   9  10
HETATM   10  N1  UNL     1      26.016  -0.899  54.187  1.00  0.00    -0.302 NA
HETATM   11  C3  UNL     1      24.990  -0.796  54.926  1.00  0.00     0.109 C 
BRANCH  11  12
HETATM   12  C2  UNL     1      23.674  -0.740  54.345  1.00  0.00     0.009 C 
HETATM   13  C1  UNL     1      22.643  -1.216  55.013  1.00  0.00     0.013 C 
ENDBRANCH  11  12
ENDBRANCH   9  10
ENDBRANCH   8   9
ENDBRANCH   7   8
ENDBRANCH   6   7
ENDBRANCH   1   6
BRANCH   1  14
HETATM   14  C8  UNL     1      24.256   3.277  52.565  1.00  0.00     0.210 C 
HETATM   15  C9  UNL     1      23.232   4.361  52.465  1.00  0.00     0.049 C 
HETATM   16  F1  UNL     1      24.076   2.617  53.762  1.00  0.00    -0.246 F 
ENDBRANCH   1  14
BRANCH   5  17
HETATM   17  C13 UNL     1      21.801   1.392  51.012  1.00  0.00     0.028 A 
HETATM   18  C14 UNL     1      20.753   1.175  50.146  1.00  0.00     0.153 A 
HETATM   19  N3  UNL     1      19.763   0.496  50.789  1.00  0.00    -0.185 NA
HETATM   20  N4  UNL     1      20.123   0.266  52.027  1.00  0.00    -0.285 N 
HETATM   21  C15 UNL     1      19.391  -0.420  53.073  1.00  0.00     0.179 C 
HETATM   22  C16 UNL     1      21.344   0.800  52.170  1.00  0.00     0.126 A 
ENDBRANCH   5  17
TORSDOF 8
ENDMDL
