MODEL 1
REMARK VINA RESULT:      -7.4      0.000      0.000
REMARK  7 active torsions:
REMARK  status: ('A' for Active; 'I' for Inactive)
REMARK    1  A    between atoms: C2_2  and  C3_3 
REMARK    2  A    between atoms: C4_5  and  N2_6 
REMARK    3  A    between atoms: N3_7  and  C5_8 
REMARK    4  A    between atoms: C5_8  and  C6_9 
REMARK    5  A    between atoms: C9_12  and  O1_13 
REMARK    6  A    between atoms: C12_16  and  N4_17 
REMARK    7  A    between atoms: N4_17  and  C13_18 
ROOT
HETATM    1  C3  UNL     1      28.284   0.102  53.986  1.00  0.00     0.125 A 
HETATM    2  N1  UNL     1      27.333  -0.496  54.622  1.00  0.00    -0.237 NA
HETATM    3  C4  UNL     1      26.129   0.268  54.513  1.00  0.00     0.322 A 
HETATM    4  C12 UNL     1      26.517   1.427  53.705  1.00  0.00     0.154 A 
HETATM    5  N5  UNL     1      27.786   1.304  53.410  1.00  0.00    -0.216 NA
ENDROOT
BRANCH   3   6
HETATM    6  N2  UNL     1      25.172  -0.495  53.763  1.00  0.00    -0.162 NA
HETATM    7  N3  UNL     1      23.990  -0.111  53.736  1.00  0.00    -0.191 NA
BRANCH   7   8
HETATM    8  C5  UNL     1      22.928  -0.757  53.039  1.00  0.00     0.211 C 
BRANCH   8   9
HETATM    9  C6  UNL     1      21.917   0.160  52.498  1.00  0.00    -0.037 A 
HETATM   10  C7  UNL     1      21.573   0.182  51.155  1.00  0.00     0.012 A 
HETATM   11  C8  UNL     1      20.620   1.056  50.681  1.00  0.00     0.037 A 
HETATM   12  C9  UNL     1      20.026   1.905  51.602  1.00  0.00     0.065 A 
HETATM   13  C10 UNL     1      20.346   1.910  52.948  1.00  0.00     0.037 A 
HETATM   14  C11 UNL     1      21.302   1.023  53.379  1.00  0.00     0.012 A 
BRANCH  12  15
HETATM   15  O1  UNL     1      19.065   2.796  51.163  1.00  0.00    -0.361 OA
HETATM   16  H11 UNL     1      19.165   3.261  50.287  1.00  0.00     0.217 HD
ENDBRANCH  12  15
ENDBRANCH   8   9
ENDBRANCH   7   8
ENDBRANCH   3   6
BRANCH   4  17
HETATM   17  N4  UNL     1      25.679   2.483  53.316  1.00  0.00    -0.350 N 
HETATM   18  H14 UNL     1      25.375   3.220  54.004  1.00  0.00     0.166 HD
BRANCH  17  19
HETATM   19  C13 UNL     1      25.205   2.604  51.980  1.00  0.00     0.101 C 
HETATM   20  C14 UNL     1      24.164   3.348  51.620  1.00  0.00    -0.020 C 
HETATM   21  C15 UNL     1      23.688   3.460  50.229  1.00  0.00     0.025 C 
HETATM   22  C19 UNL     1      23.382   4.134  52.575  1.00  0.00     0.013 C 
HETATM   23  C16 UNL     1      22.554   4.041  49.951  1.00  0.00    -0.025 C 
HETATM   24  C17 UNL     1      21.970   4.888  50.716  1.00  0.00     0.012 C 
HETATM   25  C18 UNL     1      22.341   4.865  52.142  1.00  0.00     0.002 C 
ENDBRANCH  17  19
ENDBRANCH   4  17
BRANCH   1  26
HETATM   26  C2  UNL     1      29.691  -0.345  53.844  1.00  0.00     0.075 C 
HETATM   27  C1  UNL     1      29.805  -1.817  53.482  1.00  0.00     0.013 C 
ENDBRANCH   1  26
TORSDOF 7
ENDMDL
MODEL 2
REMARK VINA RESULT:      -7.4      2.916      6.083
REMARK  7 active torsions:
REMARK  status: ('A' for Active; 'I' for Inactive)
REMARK    1  A    between atoms: C2_2  and  C3_3 
REMARK    2  A    between atoms: C4_5  and  N2_6 
REMARK    3  A    between atoms: N3_7  and  C5_8 
REMARK    4  A    between atoms: C5_8  and  C6_9 
REMARK    5  A    between atoms: C9_12  and  O1_13 
REMARK    6  A    between atoms: C12_16  and  N4_17 
REMARK    7  A    between atoms: N4_17  and  C13_18 
ROOT
HETATM    1  C3  UNL     1      24.677   5.318  48.991  1.00  0.00     0.125 A 
HETATM    2  N1  UNL     1      23.805   4.368  48.962  1.00  0.00    -0.237 NA
HETATM    3  C4  UNL     1      24.176   3.347  49.893  1.00  0.00     0.322 A 
HETATM    4  C12 UNL     1      25.420   3.846  50.487  1.00  0.00     0.154 A 
HETATM    5  N5  UNL     1      25.690   5.003  49.939  1.00  0.00    -0.216 NA
ENDROOT
BRANCH   3   6
HETATM    6  N2  UNL     1      23.182   3.292  50.928  1.00  0.00    -0.162 NA
HETATM    7  N3  UNL     1      22.654   2.198  51.192  1.00  0.00    -0.191 NA
BRANCH   7   8
HETATM    8  C5  UNL     1      21.658   1.982  52.187  1.00  0.00     0.211 C 
BRANCH   8   9
HETATM    9  C6  UNL     1      21.981   0.914  53.141  1.00  0.00    -0.037 A 
HETATM   10  C7  UNL     1      21.041   0.377  54.008  1.00  0.00     0.012 A 
HETATM   11  C8  UNL     1      21.379  -0.624  54.891  1.00  0.00     0.037 A 
HETATM   12  C9  UNL     1      22.693  -1.066  54.872  1.00  0.00     0.065 A 
HETATM   13  C10 UNL     1      23.656  -0.554  54.022  1.00  0.00     0.037 A 
HETATM   14  C11 UNL     1      23.277   0.444  53.157  1.00  0.00     0.012 A 
BRANCH  12  15
HETATM   15  O1  UNL     1      23.070  -2.070  55.744  1.00  0.00    -0.361 OA
HETATM   16  H11 UNL     1      22.453  -2.828  55.945  1.00  0.00     0.217 HD
ENDBRANCH  12  15
ENDBRANCH   8   9
ENDBRANCH   7   8
ENDBRANCH   3   6
BRANCH   4  17
HETATM   17  N4  UNL     1      26.186   3.198  51.467  1.00  0.00    -0.350 N 
HETATM   18  H14 UNL     1      26.762   3.745  52.159  1.00  0.00     0.166 HD
BRANCH  17  19
HETATM   19  C13 UNL     1      26.219   1.780  51.571  1.00  0.00     0.101 C 
HETATM   20  C14 UNL     1      27.059   1.106  52.349  1.00  0.00    -0.020 C 
HETATM   21  C15 UNL     1      27.077  -0.365  52.441  1.00  0.00     0.025 C 
HETATM   22  C19 UNL     1      28.055   1.761  53.198  1.00  0.00     0.013 C 
HETATM   23  C16 UNL     1      28.040  -0.989  53.064  1.00  0.00    -0.025 C 
HETATM   24  C17 UNL     1      28.785  -0.453  53.959  1.00  0.00     0.012 C 
HETATM   25  C18 UNL     1      28.873   1.018  53.961  1.00  0.00     0.002 C 
ENDBRANCH  17  19
ENDBRANCH   4  17
BRANCH   1  26
HETATM   26  C2  UNL     1      24.675   6.565  48.188  1.00  0.00     0.075 C 
HETATM   27  C1  UNL     1      26.060   7.177  48.051  1.00  0.00     0.013 C 
ENDBRANCH   1  26
TORSDOF 7
ENDMDL
MODEL 3
REMARK VINA RESULT:      -7.2      2.740      6.183
REMARK  7 active torsions:
REMARK  status: ('A' for Active; 'I' for Inactive)
REMARK    1  A    between atoms: C2_2  and  C3_3 
REMARK    2  A    between atoms: C4_5  and  N2_6 
REMARK    3  A    between atoms: N3_7  and  C5_8 
REMARK    4  A    between atoms: C5_8  and  C6_9 
REMARK    5  A    between atoms: C9_12  and  O1_13 
REMARK    6  A    between atoms: C12_16  and  N4_17 
REMARK    7  A    between atoms: N4_17  and  C13_18 
ROOT
HETATM    1  C3  UNL     1      23.176   5.402  50.498  1.00  0.00     0.125 A 
HETATM    2  N1  UNL     1      22.351   4.622  49.885  1.00  0.00    -0.237 NA
HETATM    3  C4  UNL     1      22.817   3.272  49.967  1.00  0.00     0.322 A 
HETATM    4  C12 UNL     1      24.062   3.374  50.734  1.00  0.00     0.154 A 
HETATM    5  N5  UNL     1      24.248   4.634  51.032  1.00  0.00    -0.216 NA
ENDROOT
BRANCH   3   6
HETATM    6  N2  UNL     1      21.878   2.513  50.744  1.00  0.00    -0.162 NA
HETATM    7  N3  UNL     1      21.950   1.272  50.726  1.00  0.00    -0.191 NA
BRANCH   7   8
HETATM    8  C5  UNL     1      21.096   0.385  51.441  1.00  0.00     0.211 C 
BRANCH   8   9
HETATM    9  C6  UNL     1      21.699  -0.188  52.651  1.00  0.00    -0.037 A 
HETATM   10  C7  UNL     1      23.048  -0.058  52.946  1.00  0.00     0.012 A 
HETATM   11  C8  UNL     1      23.580  -0.609  54.090  1.00  0.00     0.037 A 
HETATM   12  C9  UNL     1      22.711  -1.294  54.926  1.00  0.00     0.065 A 
HETATM   13  C10 UNL     1      21.362  -1.443  54.662  1.00  0.00     0.037 A 
HETATM   14  C11 UNL     1      20.872  -0.878  53.510  1.00  0.00     0.012 A 
BRANCH  12  15
HETATM   15  O1  UNL     1      23.210  -1.860  56.084  1.00  0.00    -0.361 OA
HETATM   16  H11 UNL     1      23.147  -1.378  56.954  1.00  0.00     0.217 HD
ENDBRANCH  12  15
ENDBRANCH   8   9
ENDBRANCH   7   8
ENDBRANCH   3   6
BRANCH   4  17
HETATM   17  N4  UNL     1      24.906   2.310  51.086  1.00  0.00    -0.350 N 
HETATM   18  H14 UNL     1      24.676   1.318  50.813  1.00  0.00     0.166 HD
BRANCH  17  19
HETATM   19  C13 UNL     1      26.104   2.521  51.823  1.00  0.00     0.101 C 
HETATM   20  C14 UNL     1      26.859   1.547  52.319  1.00  0.00    -0.020 C 
HETATM   21  C15 UNL     1      28.098   1.788  53.081  1.00  0.00     0.025 C 
HETATM   22  C19 UNL     1      26.535   0.129  52.156  1.00  0.00     0.013 C 
HETATM   23  C16 UNL     1      28.700   0.817  53.712  1.00  0.00    -0.025 C 
HETATM   24  C17 UNL     1      28.558  -0.425  53.427  1.00  0.00     0.012 C 
HETATM   25  C18 UNL     1      27.344  -0.804  52.683  1.00  0.00     0.002 C 
ENDBRANCH  17  19
ENDBRANCH   4  17
BRANCH   1  26
HETATM   26  C2  UNL     1      23.074   6.874  50.655  1.00  0.00     0.075 C 
HETATM   27  C1  UNL     1      21.636   7.351  50.789  1.00  0.00     0.013 C 
ENDBRANCH   1  26
TORSDOF 7
ENDMDL
MODEL 4
REMARK VINA RESULT:      -7.2      3.003      6.501
REMARK  7 active torsions:
REMARK  status: ('A' for Active; 'I' for Inactive)
REMARK    1  A    between atoms: C2_2  and  C3_3 
REMARK    2  A    between atoms: C4_5  and  N2_6 
REMARK    3  A    between atoms: N3_7  and  C5_8 
REMARK    4  A    between atoms: C5_8  and  C6_9 
REMARK    5  A    between atoms: C9_12  and  O1_13 
REMARK    6  A    between atoms: C12_16  and  N4_17 
REMARK    7  A    between atoms: N4_17  and  C13_18 
ROOT
HETATM    1  C3  UNL     1      24.241   4.645  49.962  1.00  0.00     0.125 A 
HETATM    2  N1  UNL     1      23.789   4.936  51.135  1.00  0.00    -0.237 NA
HETATM    3  C4  UNL     1      23.312   3.748  51.773  1.00  0.00     0.322 A 
HETATM    4  C12 UNL     1      23.554   2.694  50.785  1.00  0.00     0.154 A 
HETATM    5  N5  UNL     1      24.099   3.248  49.732  1.00  0.00    -0.216 NA
ENDROOT
BRANCH   3   6
HETATM    6  N2  UNL     1      24.138   3.482  52.917  1.00  0.00    -0.162 NA
HETATM    7  N3  UNL     1      25.051   2.645  52.813  1.00  0.00    -0.191 NA
BRANCH   7   8
HETATM    8  C5  UNL     1      25.951   2.273  53.852  1.00  0.00     0.211 C 
BRANCH   8   9
HETATM    9  C6  UNL     1      26.657   1.008  53.613  1.00  0.00    -0.037 A 
HETATM   10  C7  UNL     1      26.264   0.107  52.635  1.00  0.00     0.012 A 
HETATM   11  C8  UNL     1      26.949  -1.071  52.438  1.00  0.00     0.037 A 
HETATM   12  C9  UNL     1      28.041  -1.312  53.257  1.00  0.00     0.065 A 
HETATM   13  C10 UNL     1      28.461  -0.437  54.242  1.00  0.00     0.037 A 
HETATM   14  C11 UNL     1      27.749   0.727  54.405  1.00  0.00     0.012 A 
BRANCH  12  15
HETATM   15  O1  UNL     1      28.754  -2.484  53.089  1.00  0.00    -0.361 OA
HETATM   16  H11 UNL     1      28.319  -3.370  53.236  1.00  0.00     0.217 HD
ENDBRANCH  12  15
ENDBRANCH   8   9
ENDBRANCH   7   8
ENDBRANCH   3   6
BRANCH   4  17
HETATM   17  N4  UNL     1      23.253   1.332  50.937  1.00  0.00    -0.350 N 
HETATM   18  H14 UNL     1      23.953   0.587  50.681  1.00  0.00     0.166 HD
BRANCH  17  19
HETATM   19  C13 UNL     1      21.997   0.898  51.444  1.00  0.00     0.101 C 
HETATM   20  C14 UNL     1      21.847   0.144  52.527  1.00  0.00    -0.020 C 
HETATM   21  C15 UNL     1      20.535  -0.296  53.036  1.00  0.00     0.025 C 
HETATM   22  C19 UNL     1      22.977  -0.328  53.329  1.00  0.00     0.013 C 
HETATM   23  C16 UNL     1      20.445  -1.190  53.982  1.00  0.00    -0.025 C 
HETATM   24  C17 UNL     1      21.384  -1.457  54.813  1.00  0.00     0.012 C 
HETATM   25  C18 UNL     1      22.753  -1.088  54.414  1.00  0.00     0.002 C 
ENDBRANCH  17  19
ENDBRANCH   4  17
BRANCH   1  26
HETATM   26  C2  UNL     1      24.829   5.576  48.968  1.00  0.00     0.075 C 
HETATM   27  C1  UNL     1      26.348   5.591  49.004  1.00  0.00     0.013 C 
ENDBRANCH   1  26
TORSDOF 7
ENDMDL
MODEL 5
REMARK VINA RESULT:      -7.1      2.296      2.900
REMARK  7 active torsions:
REMARK  status: ('A' for Active; 'I' for Inactive)
REMARK    1  A    between atoms: C2_2  and  C3_3 
REMARK    2  A    between atoms: C4_5  and  N2_6 
REMARK    3  A    between atoms: N3_7  and  C5_8 
REMARK    4  A    between atoms: C5_8  and  C6_9 
REMARK    5  A    between atoms: C9_12  and  O1_13 
REMARK    6  A    between atoms: C12_16  and  N4_17 
REMARK    7  A    between atoms: N4_17  and  C13_18 
ROOT
HETATM    1  C3  UNL     1      27.778   1.378  53.475  1.00  0.00     0.125 A 
HETATM    2  N1  UNL     1      26.733   1.416  54.232  1.00  0.00    -0.237 NA
HETATM    3  C4  UNL     1      25.595   1.812  53.461  1.00  0.00     0.322 A 
HETATM    4  C12 UNL     1      26.134   2.006  52.111  1.00  0.00     0.154 A 
HETATM    5  N5  UNL     1      27.415   1.744  52.149  1.00  0.00    -0.216 NA
ENDROOT
BRANCH   3   6
HETATM    6  N2  UNL     1      24.671   0.715  53.416  1.00  0.00    -0.162 NA
HETATM    7  N3  UNL     1      23.533   0.909  52.955  1.00  0.00    -0.191 NA
BRANCH   7   8
HETATM    8  C5  UNL     1      22.509  -0.074  52.843  1.00  0.00     0.211 C 
BRANCH   8   9
HETATM    9  C6  UNL     1      21.436   0.278  51.904  1.00  0.00    -0.037 A 
HETATM   10  C7  UNL     1      20.093   0.107  52.207  1.00  0.00     0.012 A 
HETATM   11  C8  UNL     1      19.113   0.447  51.302  1.00  0.00     0.037 A 
HETATM   12  C9  UNL     1      19.528   0.965  50.084  1.00  0.00     0.065 A 
HETATM   13  C10 UNL     1      20.857   1.148  49.750  1.00  0.00     0.037 A 
HETATM   14  C11 UNL     1      21.803   0.796  50.681  1.00  0.00     0.012 A 
BRANCH  12  15
HETATM   15  O1  UNL     1      18.572   1.318  49.151  1.00  0.00    -0.361 OA
HETATM   16  H11 UNL     1      17.671   0.891  49.158  1.00  0.00     0.217 HD
ENDBRANCH  12  15
ENDBRANCH   8   9
ENDBRANCH   7   8
ENDBRANCH   3   6
BRANCH   4  17
HETATM   17  N4  UNL     1      25.406   2.402  50.980  1.00  0.00    -0.350 N 
HETATM   18  H14 UNL     1      25.058   1.696  50.280  1.00  0.00     0.166 HD
BRANCH  17  19
HETATM   19  C13 UNL     1      25.104   3.770  50.729  1.00  0.00     0.101 C 
HETATM   20  C14 UNL     1      25.840   4.570  49.965  1.00  0.00    -0.020 C 
HETATM   21  C15 UNL     1      25.511   5.986  49.718  1.00  0.00     0.025 C 
HETATM   22  C19 UNL     1      27.059   4.123  49.288  1.00  0.00     0.013 C 
HETATM   23  C16 UNL     1      26.359   6.781  49.125  1.00  0.00    -0.025 C 
HETATM   24  C17 UNL     1      27.312   6.382  48.367  1.00  0.00     0.012 C 
HETATM   25  C18 UNL     1      27.755   4.985  48.530  1.00  0.00     0.002 C 
ENDBRANCH  17  19
ENDBRANCH   4  17
BRANCH   1  26
HETATM   26  C2  UNL     1      29.161   1.015  53.869  1.00  0.00     0.075 C 
HETATM   27  C1  UNL     1      29.407  -0.485  53.833  1.00  0.00     0.013 C 
ENDBRANCH   1  26
TORSDOF 7
ENDMDL
MODEL 6
REMARK VINA RESULT:      -7.1      2.249      4.038
REMARK  7 active torsions:
REMARK  status: ('A' for Active; 'I' for Inactive)
REMARK    1  A    between atoms: C2_2  and  C3_3 
REMARK    2  A    between atoms: C4_5  and  N2_6 
REMARK    3  A    between atoms: N3_7  and  C5_8 
REMARK    4  A    between atoms: C5_8  and  C6_9 
REMARK    5  A    between atoms: C9_12  and  O1_13 
REMARK    6  A    between atoms: C12_16  and  N4_17 
REMARK    7  A    between atoms: N4_17  and  C13_18 
ROOT
HETATM    1  C3  UNL     1      27.941   0.831  53.769  1.00  0.00     0.125 A 
HETATM    2  N1  UNL     1      27.724   0.686  52.505  1.00  0.00    -0.237 NA
HETATM    3  C4  UNL     1      26.561   1.429  52.129  1.00  0.00     0.322 A 
HETATM    4  C12 UNL     1      26.115   2.045  53.382  1.00  0.00     0.154 A 
HETATM    5  N5  UNL     1      26.942   1.677  54.327  1.00  0.00    -0.216 NA
ENDROOT
BRANCH   3   6
HETATM    6  N2  UNL     1      26.961   2.480  51.236  1.00  0.00    -0.162 NA
HETATM    7  N3  UNL     1      26.083   3.124  50.638  1.00  0.00    -0.191 NA
BRANCH   7   8
HETATM    8  C5  UNL     1      26.319   4.191  49.724  1.00  0.00     0.211 C 
BRANCH   8   9
HETATM    9  C6  UNL     1      25.106   4.717  49.086  1.00  0.00    -0.037 A 
HETATM   10  C7  UNL     1      24.971   6.049  48.724  1.00  0.00     0.012 A 
HETATM   11  C8  UNL     1      23.819   6.508  48.127  1.00  0.00     0.037 A 
HETATM   12  C9  UNL     1      22.808   5.584  47.906  1.00  0.00     0.065 A 
HETATM   13  C10 UNL     1      22.909   4.250  48.254  1.00  0.00     0.037 A 
HETATM   14  C11 UNL     1      24.076   3.833  48.847  1.00  0.00     0.012 A 
BRANCH  12  15
HETATM   15  O1  UNL     1      21.637   6.009  47.308  1.00  0.00    -0.361 OA
HETATM   16  H11 UNL     1      20.939   5.353  47.033  1.00  0.00     0.217 HD
ENDBRANCH  12  15
ENDBRANCH   8   9
ENDBRANCH   7   8
ENDBRANCH   3   6
BRANCH   4  17
HETATM   17  N4  UNL     1      24.999   2.881  53.541  1.00  0.00    -0.350 N 
HETATM   18  H14 UNL     1      25.068   3.786  54.076  1.00  0.00     0.166 HD
BRANCH  17  19
HETATM   19  C13 UNL     1      23.732   2.544  52.990  1.00  0.00     0.101 C 
HETATM   20  C14 UNL     1      22.913   3.416  52.411  1.00  0.00    -0.020 C 
HETATM   21  C15 UNL     1      21.603   3.047  51.845  1.00  0.00     0.025 C 
HETATM   22  C19 UNL     1      23.233   4.838  52.275  1.00  0.00     0.013 C 
HETATM   23  C16 UNL     1      20.753   3.961  51.464  1.00  0.00    -0.025 C 
HETATM   24  C17 UNL     1      21.076   5.162  51.154  1.00  0.00     0.012 C 
HETATM   25  C18 UNL     1      22.359   5.664  51.677  1.00  0.00     0.002 C 
ENDBRANCH  17  19
ENDBRANCH   4  17
BRANCH   1  26
HETATM   26  C2  UNL     1      29.040   0.235  54.567  1.00  0.00     0.075 C 
HETATM   27  C1  UNL     1      29.774  -0.868  53.822  1.00  0.00     0.013 C 
ENDBRANCH   1  26
TORSDOF 7
ENDMDL
MODEL 7
REMARK VINA RESULT:      -7.0      4.525      7.037
REMARK  7 active torsions:
REMARK  status: ('A' for Active; 'I' for Inactive)
REMARK    1  A    between atoms: C2_2  and  C3_3 
REMARK    2  A    between atoms: C4_5  and  N2_6 
REMARK    3  A    between atoms: N3_7  and  C5_8 
REMARK    4  A    between atoms: C5_8  and  C6_9 
REMARK    5  A    between atoms: C9_12  and  O1_13 
REMARK    6  A    between atoms: C12_16  and  N4_17 
REMARK    7  A    between atoms: N4_17  and  C13_18 
ROOT
HETATM    1  C3  UNL     1      23.751   3.427  51.131  1.00  0.00     0.125 A 
HETATM    2  N1  UNL     1      24.551   2.538  50.645  1.00  0.00    -0.237 NA
HETATM    3  C4  UNL     1      25.710   3.178  50.106  1.00  0.00     0.322 A 
HETATM    4  C12 UNL     1      25.472   4.604  50.349  1.00  0.00     0.154 A 
HETATM    5  N5  UNL     1      24.316   4.720  50.952  1.00  0.00    -0.216 NA
ENDROOT
BRANCH   3   6
HETATM    6  N2  UNL     1      26.852   2.781  50.880  1.00  0.00    -0.162 NA
HETATM    7  N3  UNL     1      26.670   2.305  52.013  1.00  0.00    -0.191 NA
BRANCH   7   8
HETATM    8  C5  UNL     1      27.696   1.867  52.899  1.00  0.00     0.211 C 
BRANCH   8   9
HETATM    9  C6  UNL     1      27.875   0.410  52.939  1.00  0.00    -0.037 A 
HETATM   10  C7  UNL     1      26.887  -0.475  52.534  1.00  0.00     0.012 A 
HETATM   11  C8  UNL     1      27.089  -1.836  52.585  1.00  0.00     0.037 A 
HETATM   12  C9  UNL     1      28.316  -2.276  53.057  1.00  0.00     0.065 A 
HETATM   13  C10 UNL     1      29.323  -1.423  53.469  1.00  0.00     0.037 A 
HETATM   14  C11 UNL     1      29.081  -0.072  53.402  1.00  0.00     0.012 A 
BRANCH  12  15
HETATM   15  O1  UNL     1      28.555  -3.636  53.123  1.00  0.00    -0.361 OA
HETATM   16  H11 UNL     1      29.215  -4.006  53.772  1.00  0.00     0.217 HD
ENDBRANCH  12  15
ENDBRANCH   8   9
ENDBRANCH   7   8
ENDBRANCH   3   6
BRANCH   4  17
HETATM   17  N4  UNL     1      26.329   5.658  49.999  1.00  0.00    -0.350 N 
HETATM   18  H14 UNL     1      27.235   5.818  50.512  1.00  0.00     0.166 HD
BRANCH  17  19
HETATM   19  C13 UNL     1      26.015   6.552  48.939  1.00  0.00     0.101 C 
HETATM   20  C14 UNL     1      26.902   7.021  48.068  1.00  0.00    -0.020 C 
HETATM   21  C15 UNL     1      26.556   7.949  46.976  1.00  0.00     0.025 C 
HETATM   22  C19 UNL     1      28.320   6.660  48.106  1.00  0.00     0.013 C 
HETATM   23  C16 UNL     1      27.485   8.533  46.268  1.00  0.00    -0.025 C 
HETATM   24  C17 UNL     1      28.683   8.094  46.149  1.00  0.00     0.012 C 
HETATM   25  C18 UNL     1      29.163   7.171  47.193  1.00  0.00     0.002 C 
ENDBRANCH  17  19
ENDBRANCH   4  17
BRANCH   1  26
HETATM   26  C2  UNL     1      22.441   3.196  51.785  1.00  0.00     0.075 C 
HETATM   27  C1  UNL     1      22.354   1.837  52.462  1.00  0.00     0.013 C 
ENDBRANCH   1  26
TORSDOF 7
ENDMDL
MODEL 8
REMARK VINA RESULT:      -6.8      2.500      4.710
REMARK  7 active torsions:
REMARK  status: ('A' for Active; 'I' for Inactive)
REMARK    1  A    between atoms: C2_2  and  C3_3 
REMARK    2  A    between atoms: C4_5  and  N2_6 
REMARK    3  A    between atoms: N3_7  and  C5_8 
REMARK    4  A    between atoms: C5_8  and  C6_9 
REMARK    5  A    between atoms: C9_12  and  O1_13 
REMARK    6  A    between atoms: C12_16  and  N4_17 
REMARK    7  A    between atoms: N4_17  and  C13_18 
ROOT
HETATM    1  C3  UNL     1      27.859   0.876  53.759  1.00  0.00     0.125 A 
HETATM    2  N1  UNL     1      27.763   0.877  52.471  1.00  0.00    -0.237 NA
HETATM    3  C4  UNL     1      26.636   1.665  52.076  1.00  0.00     0.322 A 
HETATM    4  C12 UNL     1      26.072   2.137  53.344  1.00  0.00     0.154 A 
HETATM    5  N5  UNL     1      26.809   1.659  54.313  1.00  0.00    -0.216 NA
ENDROOT
BRANCH   3   6
HETATM    6  N2  UNL     1      27.113   2.808  51.350  1.00  0.00    -0.162 NA
HETATM    7  N3  UNL     1      26.697   2.999  50.194  1.00  0.00    -0.191 NA
BRANCH   7   8
HETATM    8  C5  UNL     1      27.074   4.083  49.350  1.00  0.00     0.211 C 
BRANCH   8   9
HETATM    9  C6  UNL     1      25.975   4.999  49.019  1.00  0.00    -0.037 A 
HETATM   10  C7  UNL     1      26.191   6.292  48.568  1.00  0.00     0.012 A 
HETATM   11  C8  UNL     1      25.137   7.125  48.268  1.00  0.00     0.037 A 
HETATM   12  C9  UNL     1      23.859   6.614  48.435  1.00  0.00     0.065 A 
HETATM   13  C10 UNL     1      23.607   5.330  48.883  1.00  0.00     0.037 A 
HETATM   14  C11 UNL     1      24.687   4.532  49.172  1.00  0.00     0.012 A 
BRANCH  12  15
HETATM   15  O1  UNL     1      22.776   7.421  48.143  1.00  0.00    -0.361 OA
HETATM   16  H11 UNL     1      22.703   8.336  48.533  1.00  0.00     0.217 HD
ENDBRANCH  12  15
ENDBRANCH   8   9
ENDBRANCH   7   8
ENDBRANCH   3   6
BRANCH   4  17
HETATM   17  N4  UNL     1      24.943   2.956  53.492  1.00  0.00    -0.350 N 
HETATM   18  H14 UNL     1      24.775   3.499  54.379  1.00  0.00     0.166 HD
BRANCH  17  19
HETATM   19  C13 UNL     1      23.977   3.088  52.456  1.00  0.00     0.101 C 
HETATM   20  C14 UNL     1      23.098   2.147  52.127  1.00  0.00    -0.020 C 
HETATM   21  C15 UNL     1      22.106   2.304  51.049  1.00  0.00     0.025 C 
HETATM   22  C19 UNL     1      23.028   0.853  52.808  1.00  0.00     0.013 C 
HETATM   23  C16 UNL     1      21.397   1.290  50.633  1.00  0.00    -0.025 C 
HETATM   24  C17 UNL     1      21.176   0.233  51.324  1.00  0.00     0.012 C 
HETATM   25  C18 UNL     1      22.115  -0.053  52.424  1.00  0.00     0.002 C 
ENDBRANCH  17  19
ENDBRANCH   4  17
BRANCH   1  26
HETATM   26  C2  UNL     1      28.882   0.187  54.583  1.00  0.00     0.075 C 
HETATM   27  C1  UNL     1      29.652  -0.866  53.802  1.00  0.00     0.013 C 
ENDBRANCH   1  26
TORSDOF 7
ENDMDL
MODEL 9
REMARK VINA RESULT:      -6.8      2.858      6.535
REMARK  7 active torsions:
REMARK  status: ('A' for Active; 'I' for Inactive)
REMARK    1  A    between atoms: C2_2  and  C3_3 
REMARK    2  A    between atoms: C4_5  and  N2_6 
REMARK    3  A    between atoms: N3_7  and  C5_8 
REMARK    4  A    between atoms: C5_8  and  C6_9 
REMARK    5  A    between atoms: C9_12  and  O1_13 
REMARK    6  A    between atoms: C12_16  and  N4_17 
REMARK    7  A    between atoms: N4_17  and  C13_18 
ROOT
HETATM    1  C3  UNL     1      21.324   0.188  53.139  1.00  0.00     0.125 A 
HETATM    2  N1  UNL     1      21.582   1.442  53.301  1.00  0.00    -0.237 NA
HETATM    3  C4  UNL     1      22.955   1.694  52.988  1.00  0.00     0.322 A 
HETATM    4  C12 UNL     1      23.479   0.378  52.611  1.00  0.00     0.154 A 
HETATM    5  N5  UNL     1      22.501  -0.486  52.709  1.00  0.00    -0.216 NA
ENDROOT
BRANCH   3   6
HETATM    6  N2  UNL     1      23.010   2.541  51.831  1.00  0.00    -0.162 NA
HETATM    7  N3  UNL     1      23.224   2.025  50.721  1.00  0.00    -0.191 NA
BRANCH   7   8
HETATM    8  C5  UNL     1      23.307   2.729  49.485  1.00  0.00     0.211 C 
BRANCH   8   9
HETATM    9  C6  UNL     1      24.480   3.604  49.368  1.00  0.00    -0.037 A 
HETATM   10  C7  UNL     1      25.770   3.161  49.620  1.00  0.00     0.012 A 
HETATM   11  C8  UNL     1      26.847   4.010  49.500  1.00  0.00     0.037 A 
HETATM   12  C9  UNL     1      26.584   5.317  49.119  1.00  0.00     0.065 A 
HETATM   13  C10 UNL     1      25.312   5.791  48.861  1.00  0.00     0.037 A 
HETATM   14  C11 UNL     1      24.264   4.912  48.991  1.00  0.00     0.012 A 
BRANCH  12  15
HETATM   15  O1  UNL     1      27.641   6.197  48.989  1.00  0.00    -0.361 OA
HETATM   16  H11 UNL     1      27.544   7.034  48.455  1.00  0.00     0.217 HD
ENDBRANCH  12  15
ENDBRANCH   8   9
ENDBRANCH   7   8
ENDBRANCH   3   6
BRANCH   4  17
HETATM   17  N4  UNL     1      24.795   0.094  52.216  1.00  0.00    -0.350 N 
HETATM   18  H14 UNL     1      25.089   0.166  51.207  1.00  0.00     0.166 HD
BRANCH  17  19
HETATM   19  C13 UNL     1      25.786  -0.303  53.156  1.00  0.00     0.101 C 
HETATM   20  C14 UNL     1      26.858   0.419  53.462  1.00  0.00    -0.020 C 
HETATM   21  C15 UNL     1      27.874  -0.011  54.440  1.00  0.00     0.025 C 
HETATM   22  C19 UNL     1      27.138   1.722  52.856  1.00  0.00     0.013 C 
HETATM   23  C16 UNL     1      29.002   0.633  54.565  1.00  0.00    -0.025 C 
HETATM   24  C17 UNL     1      29.181   1.851  54.208  1.00  0.00     0.012 C 
HETATM   25  C18 UNL     1      28.242   2.399  53.212  1.00  0.00     0.002 C 
ENDBRANCH  17  19
ENDBRANCH   4  17
BRANCH   1  26
HETATM   26  C2  UNL     1      20.027  -0.498  53.352  1.00  0.00     0.075 C 
HETATM   27  C1  UNL     1      18.978  -0.099  52.326  1.00  0.00     0.013 C 
ENDBRANCH   1  26
TORSDOF 7
ENDMDL
