MODEL 1
REMARK VINA RESULT:      -7.4      0.000      0.000
REMARK  6 active torsions:
REMARK  status: ('A' for Active; 'I' for Inactive)
REMARK    1  A    between atoms: O1_2  and  C2_3 
REMARK    2  A    between atoms: C2_3  and  C3_4 
REMARK    3  A    between atoms: C15_20  and  O4_21 
REMARK    4  A    between atoms: C16_22  and  C17_23 
REMARK    5  A    between atoms: C17_23  and  C18_24 
REMARK    6  A    between atoms: C18_24  and  C19_25 
ROOT
HETATM    1  C3  UNL     1      26.451  -0.008  53.110  1.00  0.00     0.157 C 
HETATM    2  O2  UNL     1      26.748   0.308  51.661  1.00  0.00    -0.365 OA
HETATM    3  C4  UNL     1      25.786   1.346  51.318  1.00  0.00     0.134 C 
HETATM    4  C5  UNL     1      24.533   1.653  50.853  1.00  0.00     0.118 A 
HETATM    5  C6  UNL     1      24.934   2.883  50.382  1.00  0.00     0.016 A 
HETATM    6  C7  UNL     1      23.624   3.163  50.872  1.00  0.00     0.165 A 
HETATM    7  N1  UNL     1      22.585   3.610  49.942  1.00  0.00    -0.245 NA
HETATM    8  C8  UNL     1      22.601   4.689  49.153  1.00  0.00     0.229 C 
HETATM    9  N2  UNL     1      23.603   5.584  48.608  1.00  0.00    -0.254 NA
HETATM   10  C9  UNL     1      24.814   5.890  49.014  1.00  0.00     0.120 C 
HETATM   11  C10 UNL     1      25.913   5.130  49.584  1.00  0.00     0.056 C 
HETATM   12  C11 UNL     1      25.871   3.940  50.092  1.00  0.00     0.078 C 
HETATM   13  O3  UNL     1      26.956   3.207  50.601  1.00  0.00    -0.342 OA
HETATM   14  C12 UNL     1      26.693   2.519  51.729  1.00  0.00     0.168 C 
HETATM   15  C13 UNL     1      27.412   2.170  52.896  1.00  0.00     0.050 C 
HETATM   16  C14 UNL     1      26.332   1.376  53.729  1.00  0.00     0.078 C 
HETATM   17  C15 UNL     1      25.007   2.024  53.474  1.00  0.00     0.072 C 
HETATM   18  C16 UNL     1      23.721   1.921  53.119  1.00  0.00     0.042 C 
HETATM   19  N3  UNL     1      23.213   3.106  52.334  1.00  0.00    -0.359 N 
HETATM   20  H20 UNL     1      22.626   3.981  52.533  1.00  0.00     0.162 HD
ENDROOT
BRANCH  18  21
HETATM   21  C17 UNL     1      22.391   1.483  52.715  1.00  0.00     0.053 C 
BRANCH  21  22
HETATM   22  C18 UNL     1      21.377   0.684  52.920  1.00  0.00     0.016 C 
BRANCH  22  23
HETATM   23  C19 UNL     1      20.482  -0.337  53.531  1.00  0.00     0.120 C 
HETATM   24 CL1  UNL     1      21.460  -1.339  54.648  1.00  0.00    -0.130 Cl
ENDBRANCH  22  23
ENDBRANCH  21  22
ENDBRANCH  18  21
BRANCH  17  25
HETATM   25  O4  UNL     1      25.244   3.393  53.792  1.00  0.00    -0.362 OA
HETATM   26  H15 UNL     1      25.949   3.842  53.246  1.00  0.00     0.217 HD
ENDBRANCH  17  25
BRANCH   1  27
HETATM   27  C2  UNL     1      27.593  -0.796  53.590  1.00  0.00     0.199 C 
BRANCH  27  28
HETATM   28  O1  UNL     1      27.574  -2.127  53.150  1.00  0.00    -0.393 OA
HETATM   29  C1  UNL     1      28.897  -2.618  53.167  1.00  0.00     0.201 C 
ENDBRANCH  27  28
ENDBRANCH   1  27
TORSDOF 6
ENDMDL
MODEL 2
REMARK VINA RESULT:      -7.4      6.736      8.895
REMARK  6 active torsions:
REMARK  status: ('A' for Active; 'I' for Inactive)
REMARK    1  A    between atoms: O1_2  and  C2_3 
REMARK    2  A    between atoms: C2_3  and  C3_4 
REMARK    3  A    between atoms: C15_20  and  O4_21 
REMARK    4  A    between atoms: C16_22  and  C17_23 
REMARK    5  A    between atoms: C17_23  and  C18_24 
REMARK    6  A    between atoms: C18_24  and  C19_25 
ROOT
HETATM    1  C3  UNL     1      32.889   5.234  47.207  1.00  0.00     0.157 C 
HETATM    2  O2  UNL     1      32.861   6.490  46.366  1.00  0.00    -0.365 OA
HETATM    3  C4  UNL     1      31.750   7.259  46.910  1.00  0.00     0.134 C 
HETATM    4  C5  UNL     1      30.405   7.526  46.879  1.00  0.00     0.118 A 
HETATM    5  C6  UNL     1      30.578   8.802  47.365  1.00  0.00     0.016 A 
HETATM    6  C7  UNL     1      29.368   8.400  48.004  1.00  0.00     0.165 A 
HETATM    7  N1  UNL     1      28.127   9.123  47.722  1.00  0.00    -0.245 NA
HETATM    8  C8  UNL     1      27.877  10.423  47.903  1.00  0.00     0.229 C 
HETATM    9  N2  UNL     1      28.656  11.636  48.062  1.00  0.00    -0.254 NA
HETATM   10  C9  UNL     1      29.884  11.837  48.478  1.00  0.00     0.120 C 
HETATM   11  C10 UNL     1      31.146  11.144  48.281  1.00  0.00     0.056 C 
HETATM   12  C11 UNL     1      31.327   9.946  47.823  1.00  0.00     0.078 C 
HETATM   13  O3  UNL     1      32.559   9.311  47.602  1.00  0.00    -0.342 OA
HETATM   14  C12 UNL     1      32.595   8.010  47.952  1.00  0.00     0.168 C 
HETATM   15  C13 UNL     1      33.561   7.132  48.496  1.00  0.00     0.050 C 
HETATM   16  C14 UNL     1      32.752   5.782  48.619  1.00  0.00     0.078 C 
HETATM   17  C15 UNL     1      31.344   6.137  48.981  1.00  0.00     0.072 C 
HETATM   18  C16 UNL     1      30.031   6.031  48.746  1.00  0.00     0.042 C 
HETATM   19  N3  UNL     1      29.260   7.295  49.042  1.00  0.00    -0.359 N 
HETATM   20  H20 UNL     1      28.637   7.663  49.834  1.00  0.00     0.162 HD
ENDROOT
BRANCH  18  21
HETATM   21  C17 UNL     1      28.700   5.710  48.248  1.00  0.00     0.053 C 
BRANCH  21  22
HETATM   22  C18 UNL     1      27.462   5.392  48.520  1.00  0.00     0.016 C 
BRANCH  22  23
HETATM   23  C19 UNL     1      26.256   4.875  49.225  1.00  0.00     0.120 C 
HETATM   24 CL1  UNL     1      26.499   3.128  49.537  1.00  0.00    -0.130 Cl
ENDBRANCH  22  23
ENDBRANCH  21  22
ENDBRANCH  18  21
BRANCH  17  25
HETATM   25  O4  UNL     1      31.497   6.950  50.141  1.00  0.00    -0.362 OA
HETATM   26  H15 UNL     1      30.784   7.635  50.279  1.00  0.00     0.217 HD
ENDBRANCH  17  25
BRANCH   1  27
HETATM   27  C2  UNL     1      34.178   4.590  46.924  1.00  0.00     0.199 C 
BRANCH  27  28
HETATM   28  O1  UNL     1      34.298   3.314  47.493  1.00  0.00    -0.393 OA
HETATM   29  C1  UNL     1      33.208   2.530  47.057  1.00  0.00     0.201 C 
ENDBRANCH  27  28
ENDBRANCH   1  27
TORSDOF 6
ENDMDL
MODEL 3
REMARK VINA RESULT:      -7.3      2.304      5.569
REMARK  6 active torsions:
REMARK  status: ('A' for Active; 'I' for Inactive)
REMARK    1  A    between atoms: O1_2  and  C2_3 
REMARK    2  A    between atoms: C2_3  and  C3_4 
REMARK    3  A    between atoms: C15_20  and  O4_21 
REMARK    4  A    between atoms: C16_22  and  C17_23 
REMARK    5  A    between atoms: C17_23  and  C18_24 
REMARK    6  A    between atoms: C18_24  and  C19_25 
ROOT
HETATM    1  C3  UNL     1      22.518   5.315  51.078  1.00  0.00     0.157 C 
HETATM    2  O2  UNL     1      23.789   5.216  51.891  1.00  0.00    -0.365 OA
HETATM    3  C4  UNL     1      23.927   3.793  52.165  1.00  0.00     0.134 C 
HETATM    4  C5  UNL     1      23.629   2.741  52.994  1.00  0.00     0.118 A 
HETATM    5  C6  UNL     1      24.750   2.037  52.617  1.00  0.00     0.016 A 
HETATM    6  C7  UNL     1      23.783   1.001  52.764  1.00  0.00     0.165 A 
HETATM    7  N1  UNL     1      23.982  -0.036  53.779  1.00  0.00    -0.245 NA
HETATM    8  C8  UNL     1      25.011  -0.880  53.897  1.00  0.00     0.229 C 
HETATM    9  N2  UNL     1      26.382  -0.945  53.428  1.00  0.00    -0.254 NA
HETATM   10  C9  UNL     1      26.980  -0.394  52.398  1.00  0.00     0.120 C 
HETATM   11  C10 UNL     1      26.906   0.910  51.763  1.00  0.00     0.056 C 
HETATM   12  C11 UNL     1      25.992   1.815  51.919  1.00  0.00     0.078 C 
HETATM   13  O3  UNL     1      25.962   3.087  51.325  1.00  0.00    -0.342 OA
HETATM   14  C12 UNL     1      24.746   3.484  50.901  1.00  0.00     0.168 C 
HETATM   15  C13 UNL     1      24.247   4.248  49.820  1.00  0.00     0.050 C 
HETATM   16  C14 UNL     1      22.689   4.194  50.064  1.00  0.00     0.078 C 
HETATM   17  C15 UNL     1      22.371   2.842  50.620  1.00  0.00     0.072 C 
HETATM   18  C16 UNL     1      21.789   2.088  51.561  1.00  0.00     0.042 C 
HETATM   19  N3  UNL     1      22.555   0.828  51.885  1.00  0.00    -0.359 N 
HETATM   20  H20 UNL     1      22.485  -0.214  51.639  1.00  0.00     0.162 HD
ENDROOT
BRANCH  18  21
HETATM   21  C17 UNL     1      21.058   1.562  52.706  1.00  0.00     0.053 C 
BRANCH  21  22
HETATM   22  C18 UNL     1      20.240   0.661  53.180  1.00  0.00     0.016 C 
BRANCH  22  23
HETATM   23  C19 UNL     1      19.647  -0.652  53.559  1.00  0.00     0.120 C 
HETATM   24 CL1  UNL     1      20.938  -1.656  54.290  1.00  0.00    -0.130 Cl
ENDBRANCH  22  23
ENDBRANCH  21  22
ENDBRANCH  18  21
BRANCH  17  25
HETATM   25  O4  UNL     1      22.944   1.951  49.666  1.00  0.00    -0.362 OA
HETATM   26  H15 UNL     1      22.484   1.922  48.780  1.00  0.00     0.217 HD
ENDBRANCH  17  25
BRANCH   1  27
HETATM   27  C2  UNL     1      22.514   6.665  50.501  1.00  0.00     0.199 C 
BRANCH  27  28
HETATM   28  O1  UNL     1      23.499   7.503  51.044  1.00  0.00    -0.393 OA
HETATM   29  C1  UNL     1      24.149   8.168  49.982  1.00  0.00     0.201 C 
ENDBRANCH  27  28
ENDBRANCH   1  27
TORSDOF 6
ENDMDL
MODEL 4
REMARK VINA RESULT:      -7.3      3.735      6.971
REMARK  6 active torsions:
REMARK  status: ('A' for Active; 'I' for Inactive)
REMARK    1  A    between atoms: O1_2  and  C2_3 
REMARK    2  A    between atoms: C2_3  and  C3_4 
REMARK    3  A    between atoms: C15_20  and  O4_21 
REMARK    4  A    between atoms: C16_22  and  C17_23 
REMARK    5  A    between atoms: C17_23  and  C18_24 
REMARK    6  A    between atoms: C18_24  and  C19_25 
ROOT
HETATM    1  C3  UNL     1      21.362   4.664  50.082  1.00  0.00     0.157 C 
HETATM    2  O2  UNL     1      21.206   3.161  50.144  1.00  0.00    -0.365 OA
HETATM    3  C4  UNL     1      22.485   2.690  50.655  1.00  0.00     0.134 C 
HETATM    4  C5  UNL     1      23.763   2.279  50.370  1.00  0.00     0.118 A 
HETATM    5  C6  UNL     1      23.850   1.527  51.519  1.00  0.00     0.016 A 
HETATM    6  C7  UNL     1      25.169   2.056  51.408  1.00  0.00     0.165 A 
HETATM    7  N1  UNL     1      26.300   1.145  51.223  1.00  0.00    -0.245 NA
HETATM    8  C8  UNL     1      26.689   0.147  52.022  1.00  0.00     0.229 C 
HETATM    9  N2  UNL     1      26.093  -0.659  53.071  1.00  0.00    -0.254 NA
HETATM   10  C9  UNL     1      25.084  -0.432  53.880  1.00  0.00     0.120 C 
HETATM   11  C10 UNL     1      23.781   0.189  53.722  1.00  0.00     0.056 C 
HETATM   12  C11 UNL     1      23.375   0.940  52.748  1.00  0.00     0.078 C 
HETATM   13  O3  UNL     1      22.095   1.498  52.596  1.00  0.00    -0.342 OA
HETATM   14  C12 UNL     1      22.082   2.764  52.137  1.00  0.00     0.168 C 
HETATM   15  C13 UNL     1      21.284   3.912  52.350  1.00  0.00     0.050 C 
HETATM   16  C14 UNL     1      21.990   4.984  51.430  1.00  0.00     0.078 C 
HETATM   17  C15 UNL     1      23.461   4.712  51.476  1.00  0.00     0.072 C 
HETATM   18  C16 UNL     1      24.615   4.498  50.834  1.00  0.00     0.042 C 
HETATM   19  N3  UNL     1      25.529   3.527  51.541  1.00  0.00    -0.359 N 
HETATM   20  H20 UNL     1      26.401   3.585  52.164  1.00  0.00     0.162 HD
ENDROOT
BRANCH  18  21
HETATM   21  C17 UNL     1      25.686   4.311  49.863  1.00  0.00     0.053 C 
BRANCH  21  22
HETATM   22  C18 UNL     1      26.682   4.833  49.198  1.00  0.00     0.016 C 
BRANCH  22  23
HETATM   23  C19 UNL     1      28.007   5.006  48.539  1.00  0.00     0.120 C 
HETATM   24 CL1  UNL     1      28.072   6.656  47.846  1.00  0.00    -0.130 Cl
ENDBRANCH  22  23
ENDBRANCH  21  22
ENDBRANCH  18  21
BRANCH  17  25
HETATM   25  O4  UNL     1      23.752   4.711  52.871  1.00  0.00    -0.362 OA
HETATM   26  H15 UNL     1      23.482   5.538  53.363  1.00  0.00     0.217 HD
ENDBRANCH  17  25
BRANCH   1  27
HETATM   27  C2  UNL     1      20.009   5.201  49.895  1.00  0.00     0.199 C 
BRANCH  27  28
HETATM   28  O1  UNL     1      19.054   4.214  49.613  1.00  0.00    -0.393 OA
HETATM   29  C1  UNL     1      17.936   4.426  50.449  1.00  0.00     0.201 C 
ENDBRANCH  27  28
ENDBRANCH   1  27
TORSDOF 6
ENDMDL
MODEL 5
REMARK VINA RESULT:      -7.2      3.189      6.336
REMARK  6 active torsions:
REMARK  status: ('A' for Active; 'I' for Inactive)
REMARK    1  A    between atoms: O1_2  and  C2_3 
REMARK    2  A    between atoms: C2_3  and  C3_4 
REMARK    3  A    between atoms: C15_20  and  O4_21 
REMARK    4  A    between atoms: C16_22  and  C17_23 
REMARK    5  A    between atoms: C17_23  and  C18_24 
REMARK    6  A    between atoms: C18_24  and  C19_25 
ROOT
HETATM    1  C3  UNL     1      24.322   3.854  49.692  1.00  0.00     0.157 C 
HETATM    2  O2  UNL     1      23.253   2.787  49.612  1.00  0.00    -0.365 OA
HETATM    3  C4  UNL     1      23.390   2.052  50.862  1.00  0.00     0.134 C 
HETATM    4  C5  UNL     1      23.994   1.022  51.537  1.00  0.00     0.118 A 
HETATM    5  C6  UNL     1      22.944   0.894  52.419  1.00  0.00     0.016 A 
HETATM    6  C7  UNL     1      24.071   0.648  53.257  1.00  0.00     0.165 A 
HETATM    7  N1  UNL     1      24.224  -0.660  53.897  1.00  0.00    -0.245 NA
HETATM    8  C8  UNL     1      23.377  -1.268  54.733  1.00  0.00     0.229 C 
HETATM    9  N2  UNL     1      21.970  -1.167  55.068  1.00  0.00    -0.254 NA
HETATM   10  C9  UNL     1      21.114  -0.177  54.956  1.00  0.00     0.120 C 
HETATM   11  C10 UNL     1      20.869   0.838  53.947  1.00  0.00     0.056 C 
HETATM   12  C11 UNL     1      21.645   1.187  52.970  1.00  0.00     0.078 C 
HETATM   13  O3  UNL     1      21.369   2.144  51.980  1.00  0.00    -0.342 OA
HETATM   14  C12 UNL     1      22.409   2.935  51.653  1.00  0.00     0.168 C 
HETATM   15  C13 UNL     1      22.576   4.285  51.266  1.00  0.00     0.050 C 
HETATM   16  C14 UNL     1      24.142   4.394  51.102  1.00  0.00     0.078 C 
HETATM   17  C15 UNL     1      24.762   3.525  52.151  1.00  0.00     0.072 C 
HETATM   18  C16 UNL     1      25.616   2.550  52.485  1.00  0.00     0.042 C 
HETATM   19  N3  UNL     1      25.127   1.680  53.617  1.00  0.00    -0.359 N 
HETATM   20  H20 UNL     1      25.311   1.592  54.671  1.00  0.00     0.162 HD
ENDROOT
BRANCH  18  21
HETATM   21  C17 UNL     1      26.618   1.493  52.524  1.00  0.00     0.053 C 
BRANCH  21  22
HETATM   22  C18 UNL     1      27.667   0.982  53.111  1.00  0.00     0.016 C 
BRANCH  22  23
HETATM   23  C19 UNL     1      29.040   0.821  53.666  1.00  0.00     0.120 C 
HETATM   24 CL1  UNL     1      29.529  -0.890  53.457  1.00  0.00    -0.130 Cl
ENDBRANCH  22  23
ENDBRANCH  21  22
ENDBRANCH  18  21
BRANCH  17  25
HETATM   25  O4  UNL     1      24.168   3.992  53.359  1.00  0.00    -0.362 OA
HETATM   26  H15 UNL     1      23.307   4.486  53.247  1.00  0.00     0.217 HD
ENDBRANCH  17  25
BRANCH   1  27
HETATM   27  C2  UNL     1      24.011   4.814  48.626  1.00  0.00     0.199 C 
BRANCH  27  28
HETATM   28  O1  UNL     1      24.866   5.925  48.612  1.00  0.00    -0.393 OA
HETATM   29  C1  UNL     1      24.086   7.082  48.400  1.00  0.00     0.201 C 
ENDBRANCH  27  28
ENDBRANCH   1  27
TORSDOF 6
ENDMDL
MODEL 6
REMARK VINA RESULT:      -7.0      2.815      4.858
REMARK  6 active torsions:
REMARK  status: ('A' for Active; 'I' for Inactive)
REMARK    1  A    between atoms: O1_2  and  C2_3 
REMARK    2  A    between atoms: C2_3  and  C3_4 
REMARK    3  A    between atoms: C15_20  and  O4_21 
REMARK    4  A    between atoms: C16_22  and  C17_23 
REMARK    5  A    between atoms: C17_23  and  C18_24 
REMARK    6  A    between atoms: C18_24  and  C19_25 
ROOT
HETATM    1  C3  UNL     1      27.988   1.620  53.678  1.00  0.00     0.157 C 
HETATM    2  O2  UNL     1      26.796   1.642  54.608  1.00  0.00    -0.365 OA
HETATM    3  C4  UNL     1      25.658   1.847  53.723  1.00  0.00     0.134 C 
HETATM    4  C5  UNL     1      24.839   2.741  53.082  1.00  0.00     0.118 A 
HETATM    5  C6  UNL     1      23.789   1.852  53.035  1.00  0.00     0.016 A 
HETATM    6  C7  UNL     1      23.670   2.520  51.781  1.00  0.00     0.165 A 
HETATM    7  N1  UNL     1      22.470   3.309  51.494  1.00  0.00    -0.245 NA
HETATM    8  C8  UNL     1      21.201   2.892  51.476  1.00  0.00     0.229 C 
HETATM    9  N2  UNL     1      20.449   1.773  52.010  1.00  0.00    -0.254 NA
HETATM   10  C9  UNL     1      20.817   0.565  52.369  1.00  0.00     0.120 C 
HETATM   11  C10 UNL     1      21.971   0.024  53.066  1.00  0.00     0.056 C 
HETATM   12  C11 UNL     1      23.104   0.611  53.295  1.00  0.00     0.078 C 
HETATM   13  O3  UNL     1      24.192   0.082  54.007  1.00  0.00    -0.342 OA
HETATM   14  C12 UNL     1      25.400   0.351  53.475  1.00  0.00     0.168 C 
HETATM   15  C13 UNL     1      26.637  -0.327  53.369  1.00  0.00     0.050 C 
HETATM   16  C14 UNL     1      27.515   0.705  52.560  1.00  0.00     0.078 C 
HETATM   17  C15 UNL     1      26.612   1.388  51.580  1.00  0.00     0.072 C 
HETATM   18  C16 UNL     1      26.132   2.517  51.046  1.00  0.00     0.042 C 
HETATM   19  N3  UNL     1      24.679   2.428  50.648  1.00  0.00    -0.359 N 
HETATM   20  H20 UNL     1      24.125   2.289  49.740  1.00  0.00     0.162 HD
ENDROOT
BRANCH  18  21
HETATM   21  C17 UNL     1      25.824   3.892  50.675  1.00  0.00     0.053 C 
BRANCH  21  22
HETATM   22  C18 UNL     1      25.893   4.840  49.779  1.00  0.00     0.016 C 
BRANCH  22  23
HETATM   23  C19 UNL     1      26.361   6.024  49.006  1.00  0.00     0.120 C 
HETATM   24 CL1  UNL     1      27.969   5.639  48.316  1.00  0.00    -0.130 Cl
ENDBRANCH  22  23
ENDBRANCH  21  22
ENDBRANCH  18  21
BRANCH  17  25
HETATM   25  O4  UNL     1      26.009   0.304  50.877  1.00  0.00    -0.362 OA
HETATM   26  H15 UNL     1      25.011   0.296  50.883  1.00  0.00     0.217 HD
ENDBRANCH  17  25
BRANCH   1  27
HETATM   27  C2  UNL     1      29.105   1.090  54.470  1.00  0.00     0.199 C 
BRANCH  27  28
HETATM   28  O1  UNL     1      30.102   0.487  53.690  1.00  0.00    -0.393 OA
HETATM   29  C1  UNL     1      30.111  -0.896  53.972  1.00  0.00     0.201 C 
ENDBRANCH  27  28
ENDBRANCH   1  27
TORSDOF 6
ENDMDL
MODEL 7
REMARK VINA RESULT:      -6.9      3.173      5.340
REMARK  6 active torsions:
REMARK  status: ('A' for Active; 'I' for Inactive)
REMARK    1  A    between atoms: O1_2  and  C2_3 
REMARK    2  A    between atoms: C2_3  and  C3_4 
REMARK    3  A    between atoms: C15_20  and  O4_21 
REMARK    4  A    between atoms: C16_22  and  C17_23 
REMARK    5  A    between atoms: C17_23  and  C18_24 
REMARK    6  A    between atoms: C18_24  and  C19_25 
ROOT
HETATM    1  C3  UNL     1      25.274   2.628  52.746  1.00  0.00     0.157 C 
HETATM    2  O2  UNL     1      24.141   3.370  53.417  1.00  0.00    -0.365 OA
HETATM    3  C4  UNL     1      23.387   3.946  52.312  1.00  0.00     0.134 C 
HETATM    4  C5  UNL     1      23.219   5.002  51.454  1.00  0.00     0.118 A 
HETATM    5  C6  UNL     1      21.882   4.729  51.271  1.00  0.00     0.016 A 
HETATM    6  C7  UNL     1      22.281   5.155  49.970  1.00  0.00     0.165 A 
HETATM    7  N1  UNL     1      21.687   6.362  49.391  1.00  0.00    -0.245 NA
HETATM    8  C8  UNL     1      20.394   6.606  49.155  1.00  0.00     0.229 C 
HETATM    9  N2  UNL     1      19.121   6.089  49.617  1.00  0.00    -0.254 NA
HETATM   10  C9  UNL     1      18.784   4.931  50.134  1.00  0.00     0.120 C 
HETATM   11  C10 UNL     1      19.409   4.028  51.085  1.00  0.00     0.056 C 
HETATM   12  C11 UNL     1      20.640   4.030  51.486  1.00  0.00     0.078 C 
HETATM   13  O3  UNL     1      21.213   3.171  52.439  1.00  0.00    -0.342 OA
HETATM   14  C12 UNL     1      22.452   2.738  52.136  1.00  0.00     0.168 C 
HETATM   15  C13 UNL     1      23.185   1.544  52.329  1.00  0.00     0.050 C 
HETATM   16  C14 UNL     1      24.560   1.879  51.631  1.00  0.00     0.078 C 
HETATM   17  C15 UNL     1      24.259   2.738  50.442  1.00  0.00     0.072 C 
HETATM   18  C16 UNL     1      24.484   3.853  49.738  1.00  0.00     0.042 C 
HETATM   19  N3  UNL     1      23.249   4.405  49.069  1.00  0.00    -0.359 N 
HETATM   20  H20 UNL     1      22.825   4.400  48.083  1.00  0.00     0.162 HD
ENDROOT
BRANCH  18  21
HETATM   21  C17 UNL     1      24.956   5.125  49.207  1.00  0.00     0.053 C 
BRANCH  21  22
HETATM   22  C18 UNL     1      25.943   5.818  48.703  1.00  0.00     0.016 C 
BRANCH  22  23
HETATM   23  C19 UNL     1      27.265   6.484  48.538  1.00  0.00     0.120 C 
HETATM   24 CL1  UNL     1      28.512   5.210  48.358  1.00  0.00    -0.130 Cl
ENDBRANCH  22  23
ENDBRANCH  21  22
ENDBRANCH  18  21
BRANCH  17  25
HETATM   25  O4  UNL     1      23.295   1.975  49.721  1.00  0.00    -0.362 OA
HETATM   26  H15 UNL     1      23.651   1.472  48.936  1.00  0.00     0.217 HD
ENDBRANCH  17  25
BRANCH   1  27
HETATM   27  C2  UNL     1      25.859   1.767  53.781  1.00  0.00     0.199 C 
BRANCH  27  28
HETATM   28  O1  UNL     1      27.067   2.261  54.296  1.00  0.00    -0.393 OA
HETATM   29  C1  UNL     1      28.037   2.214  53.272  1.00  0.00     0.201 C 
ENDBRANCH  27  28
ENDBRANCH   1  27
TORSDOF 6
ENDMDL
MODEL 8
REMARK VINA RESULT:      -6.9      1.845      2.028
REMARK  6 active torsions:
REMARK  status: ('A' for Active; 'I' for Inactive)
REMARK    1  A    between atoms: O1_2  and  C2_3 
REMARK    2  A    between atoms: C2_3  and  C3_4 
REMARK    3  A    between atoms: C15_20  and  O4_21 
REMARK    4  A    between atoms: C16_22  and  C17_23 
REMARK    5  A    between atoms: C17_23  and  C18_24 
REMARK    6  A    between atoms: C18_24  and  C19_25 
ROOT
HETATM    1  C3  UNL     1      25.264   0.337  53.120  1.00  0.00     0.157 C 
HETATM    2  O2  UNL     1      25.862   0.509  51.742  1.00  0.00    -0.365 OA
HETATM    3  C4  UNL     1      25.198   1.691  51.210  1.00  0.00     0.134 C 
HETATM    4  C5  UNL     1      24.129   2.204  50.520  1.00  0.00     0.118 A 
HETATM    5  C6  UNL     1      24.840   3.307  50.103  1.00  0.00     0.016 A 
HETATM    6  C7  UNL     1      23.547   3.858  50.343  1.00  0.00     0.165 A 
HETATM    7  N1  UNL     1      22.793   4.442  49.232  1.00  0.00    -0.245 NA
HETATM    8  C8  UNL     1      23.157   5.452  48.436  1.00  0.00     0.229 C 
HETATM    9  N2  UNL     1      24.394   6.108  48.062  1.00  0.00    -0.254 NA
HETATM   10  C9  UNL     1      25.553   6.201  48.672  1.00  0.00     0.120 C 
HETATM   11  C10 UNL     1      26.365   5.279  49.446  1.00  0.00     0.056 C 
HETATM   12  C11 UNL     1      26.002   4.148  49.964  1.00  0.00     0.078 C 
HETATM   13  O3  UNL     1      26.817   3.252  50.675  1.00  0.00    -0.342 OA
HETATM   14  C12 UNL     1      26.233   2.691  51.752  1.00  0.00     0.168 C 
HETATM   15  C13 UNL     1      26.657   2.278  53.036  1.00  0.00     0.050 C 
HETATM   16  C14 UNL     1      25.315   1.752  53.678  1.00  0.00     0.078 C 
HETATM   17  C15 UNL     1      24.208   2.624  53.175  1.00  0.00     0.072 C 
HETATM   18  C16 UNL     1      23.007   2.748  52.597  1.00  0.00     0.042 C 
HETATM   19  N3  UNL     1      22.886   3.962  51.708  1.00  0.00    -0.359 N 
HETATM   20  H20 UNL     1      22.458   4.943  51.779  1.00  0.00     0.162 HD
ENDROOT
BRANCH  18  21
HETATM   21  C17 UNL     1      21.707   2.549  51.969  1.00  0.00     0.053 C 
BRANCH  21  22
HETATM   22  C18 UNL     1      20.903   1.755  51.314  1.00  0.00     0.016 C 
BRANCH  22  23
HETATM   23  C19 UNL     1      20.171   1.085  50.203  1.00  0.00     0.120 C 
HETATM   24 CL1  UNL     1      21.285   0.944  48.808  1.00  0.00    -0.130 Cl
ENDBRANCH  22  23
ENDBRANCH  21  22
ENDBRANCH  18  21
BRANCH  17  25
HETATM   25  O4  UNL     1      24.652   3.939  53.501  1.00  0.00    -0.362 OA
HETATM   26  H15 UNL     1      24.978   4.482  52.729  1.00  0.00     0.217 HD
ENDBRANCH  17  25
BRANCH   1  27
HETATM   27  C2  UNL     1      26.128  -0.625  53.815  1.00  0.00     0.199 C 
BRANCH  27  28
HETATM   28  O1  UNL     1      25.940  -0.636  55.205  1.00  0.00    -0.393 OA
HETATM   29  C1  UNL     1      24.681  -1.213  55.478  1.00  0.00     0.201 C 
ENDBRANCH  27  28
ENDBRANCH   1  27
TORSDOF 6
ENDMDL
MODEL 9
REMARK VINA RESULT:      -6.7      4.130      7.898
REMARK  6 active torsions:
REMARK  status: ('A' for Active; 'I' for Inactive)
REMARK    1  A    between atoms: O1_2  and  C2_3 
REMARK    2  A    between atoms: C2_3  and  C3_4 
REMARK    3  A    between atoms: C15_20  and  O4_21 
REMARK    4  A    between atoms: C16_22  and  C17_23 
REMARK    5  A    between atoms: C17_23  and  C18_24 
REMARK    6  A    between atoms: C18_24  and  C19_25 
ROOT
HETATM    1  C3  UNL     1      21.770   7.436  48.796  1.00  0.00     0.157 C 
HETATM    2  O2  UNL     1      21.471   5.969  49.008  1.00  0.00    -0.365 OA
HETATM    3  C4  UNL     1      22.711   5.427  49.546  1.00  0.00     0.134 C 
HETATM    4  C5  UNL     1      23.936   4.867  49.288  1.00  0.00     0.118 A 
HETATM    5  C6  UNL     1      23.976   4.225  50.504  1.00  0.00     0.016 A 
HETATM    6  C7  UNL     1      25.337   4.609  50.324  1.00  0.00     0.165 A 
HETATM    7  N1  UNL     1      26.371   3.578  50.215  1.00  0.00    -0.245 NA
HETATM    8  C8  UNL     1      26.680   2.629  51.104  1.00  0.00     0.229 C 
HETATM    9  N2  UNL     1      26.033   1.992  52.235  1.00  0.00    -0.254 NA
HETATM   10  C9  UNL     1      25.069   2.393  53.030  1.00  0.00     0.120 C 
HETATM   11  C10 UNL     1      23.828   3.121  52.829  1.00  0.00     0.056 C 
HETATM   12  C11 UNL     1      23.475   3.809  51.790  1.00  0.00     0.078 C 
HETATM   13  O3  UNL     1      22.251   4.472  51.601  1.00  0.00    -0.342 OA
HETATM   14  C12 UNL     1      22.349   5.683  51.019  1.00  0.00     0.168 C 
HETATM   15  C13 UNL     1      21.671   6.919  51.128  1.00  0.00     0.050 C 
HETATM   16  C14 UNL     1      22.455   7.822  50.098  1.00  0.00     0.078 C 
HETATM   17  C15 UNL     1      23.894   7.413  50.151  1.00  0.00     0.072 C 
HETATM   18  C16 UNL     1      25.008   7.027  49.519  1.00  0.00     0.042 C 
HETATM   19  N3  UNL     1      25.840   6.044  50.306  1.00  0.00    -0.359 N 
HETATM   20  H20 UNL     1      26.726   6.077  50.909  1.00  0.00     0.162 HD
ENDROOT
BRANCH  18  21
HETATM   21  C17 UNL     1      26.033   6.642  48.557  1.00  0.00     0.053 C 
BRANCH  21  22
HETATM   22  C18 UNL     1      27.249   6.808  48.108  1.00  0.00     0.016 C 
BRANCH  22  23
HETATM   23  C19 UNL     1      28.733   6.922  48.051  1.00  0.00     0.120 C 
HETATM   24 CL1  UNL     1      29.420   5.267  48.082  1.00  0.00    -0.130 Cl
ENDBRANCH  22  23
ENDBRANCH  21  22
ENDBRANCH  18  21
BRANCH  17  25
HETATM   25  O4  UNL     1      24.215   7.520  51.536  1.00  0.00    -0.362 OA
HETATM   26  H15 UNL     1      24.738   8.331  51.791  1.00  0.00     0.217 HD
ENDBRANCH  17  25
BRANCH   1  27
HETATM   27  C2  UNL     1      20.470   8.082  48.574  1.00  0.00     0.199 C 
BRANCH  27  28
HETATM   28  O1  UNL     1      19.859   7.703  47.371  1.00  0.00    -0.393 OA
HETATM   29  C1  UNL     1      18.505   7.406  47.635  1.00  0.00     0.201 C 
ENDBRANCH  27  28
ENDBRANCH   1  27
TORSDOF 6
ENDMDL
