MODEL 1
REMARK VINA RESULT:      -7.3      0.000      0.000
REMARK  4 active torsions:
REMARK  status: ('A' for Active; 'I' for Inactive)
REMARK    1  A    between atoms: C1_2  and  O2_3 
REMARK    2  A    between atoms: C1_2  and  C2_4 
REMARK    3  A    between atoms: C2_4  and  C3_5 
REMARK    4  A    between atoms: C3_5  and  C4_6 
ROOT
HETATM    1  C4  UNL     1      25.718   0.743  52.620  1.00  0.00    -0.036 A 
HETATM    2  C5  UNL     1      25.118  -0.241  53.349  1.00  0.00     0.009 A 
HETATM    3  C6  UNL     1      23.790  -0.541  53.444  1.00  0.00     0.003 A 
HETATM    4  C7  UNL     1      23.025   0.323  52.656  1.00  0.00     0.031 A 
HETATM    5  C8  UNL     1      23.538   1.357  51.877  1.00  0.00     0.052 A 
HETATM    6  C9  UNL     1      24.910   1.548  51.877  1.00  0.00     0.062 A 
HETATM    7  S1  UNL     1      25.522   2.933  50.852  1.00  0.00     0.042 SA
HETATM    8  O3  UNL     1      24.134   4.022  50.703  1.00  0.00    -0.239 OA
HETATM    9  C10 UNL     1      23.546   4.462  51.930  1.00  0.00     0.270 C 
HETATM   10  O4  UNL     1      23.807   4.287  53.155  1.00  0.00    -0.264 OA
HETATM   11  C11 UNL     1      22.345   5.302  51.681  1.00  0.00     0.119 C 
HETATM   12  C12 UNL     1      21.188   4.265  51.879  1.00  0.00     0.079 C 
HETATM   13  C13 UNL     1      21.615   3.123  50.971  1.00  0.00     0.078 C 
HETATM   14  S2  UNL     1      20.799   3.146  49.526  1.00  0.00    -0.065 SA
HETATM   15  N1  UNL     1      22.569   2.094  51.188  1.00  0.00    -0.349 N 
HETATM   16  H13 UNL     1      22.640   1.437  50.382  1.00  0.00     0.166 HD
ENDROOT
BRANCH   1  17
HETATM   17  C3  UNL     1      27.152   1.082  52.510  1.00  0.00     0.050 C 
BRANCH  17  18
HETATM   18  C2  UNL     1      27.883   0.978  53.833  1.00  0.00     0.114 C 
BRANCH  18  19
HETATM   19  C1  UNL     1      28.805   2.140  53.919  1.00  0.00     0.139 C 
HETATM   20  O1  UNL     1      29.486   2.275  54.945  1.00  0.00    -0.650 OA
BRANCH  19  21
HETATM   21  O2  UNL     1      28.866   3.020  52.836  1.00  0.00    -0.776 OA
HETATM   22  H1  UNL     1      28.059   3.451  52.428  1.00  0.00     0.167 HD
ENDBRANCH  19  21
ENDBRANCH  18  19
ENDBRANCH  17  18
ENDBRANCH   1  17
TORSDOF 4
ENDMDL
MODEL 2
REMARK VINA RESULT:      -7.0      3.102      4.655
REMARK  4 active torsions:
REMARK  status: ('A' for Active; 'I' for Inactive)
REMARK    1  A    between atoms: C1_2  and  O2_3 
REMARK    2  A    between atoms: C1_2  and  C2_4 
REMARK    3  A    between atoms: C2_4  and  C3_5 
REMARK    4  A    between atoms: C3_5  and  C4_6 
ROOT
HETATM    1  C4  UNL     1      23.769   0.971  52.774  1.00  0.00    -0.036 A 
HETATM    2  C5  UNL     1      25.031   0.467  52.888  1.00  0.00     0.009 A 
HETATM    3  C6  UNL     1      26.217   1.054  52.549  1.00  0.00     0.003 A 
HETATM    4  C7  UNL     1      26.010   2.335  52.030  1.00  0.00     0.031 A 
HETATM    5  C8  UNL     1      24.766   2.940  51.872  1.00  0.00     0.052 A 
HETATM    6  C9  UNL     1      23.644   2.225  52.258  1.00  0.00     0.062 A 
HETATM    7  S1  UNL     1      22.039   3.063  52.006  1.00  0.00     0.042 SA
HETATM    8  O3  UNL     1      22.354   4.254  50.735  1.00  0.00    -0.239 OA
HETATM    9  C10 UNL     1      22.906   3.743  49.519  1.00  0.00     0.270 C 
HETATM   10  O4  UNL     1      23.203   2.590  49.092  1.00  0.00    -0.264 OA
HETATM   11  C11 UNL     1      23.202   4.839  48.560  1.00  0.00     0.119 C 
HETATM   12  C12 UNL     1      24.738   5.048  48.784  1.00  0.00     0.079 C 
HETATM   13  C13 UNL     1      24.828   5.207  50.294  1.00  0.00     0.078 C 
HETATM   14  S2  UNL     1      24.959   6.801  50.738  1.00  0.00    -0.065 SA
HETATM   15  N1  UNL     1      24.816   4.223  51.317  1.00  0.00    -0.349 N 
HETATM   16  H13 UNL     1      24.908   4.634  52.269  1.00  0.00     0.166 HD
ENDROOT
BRANCH   1  17
HETATM   17  C3  UNL     1      22.479   0.349  53.132  1.00  0.00     0.050 C 
BRANCH  17  18
HETATM   18  C2  UNL     1      22.573  -1.158  53.274  1.00  0.00     0.114 C 
BRANCH  18  19
HETATM   19  C1  UNL     1      22.073  -1.503  54.630  1.00  0.00     0.139 C 
HETATM   20  O1  UNL     1      22.894  -1.592  55.554  1.00  0.00    -0.650 OA
BRANCH  19  21
HETATM   21  O2  UNL     1      20.702  -1.703  54.802  1.00  0.00    -0.776 OA
HETATM   22  H1  UNL     1      20.019  -1.471  54.106  1.00  0.00     0.167 HD
ENDBRANCH  19  21
ENDBRANCH  18  19
ENDBRANCH  17  18
ENDBRANCH   1  17
TORSDOF 4
ENDMDL
MODEL 3
REMARK VINA RESULT:      -6.8      2.881      3.508
REMARK  4 active torsions:
REMARK  status: ('A' for Active; 'I' for Inactive)
REMARK    1  A    between atoms: C1_2  and  O2_3 
REMARK    2  A    between atoms: C1_2  and  C2_4 
REMARK    3  A    between atoms: C2_4  and  C3_5 
REMARK    4  A    between atoms: C3_5  and  C4_6 
ROOT
HETATM    1  C4  UNL     1      22.915   0.129  53.250  1.00  0.00    -0.036 A 
HETATM    2  C5  UNL     1      22.536  -0.654  54.300  1.00  0.00     0.009 A 
HETATM    3  C6  UNL     1      21.296  -1.145  54.593  1.00  0.00     0.003 A 
HETATM    4  C7  UNL     1      20.360  -0.742  53.636  1.00  0.00     0.031 A 
HETATM    5  C8  UNL     1      20.644   0.055  52.530  1.00  0.00     0.052 A 
HETATM    6  C9  UNL     1      21.949   0.484  52.358  1.00  0.00     0.062 A 
HETATM    7  S1  UNL     1      22.255   1.545  50.900  1.00  0.00     0.042 SA
HETATM    8  O3  UNL     1      20.675   2.252  50.527  1.00  0.00    -0.239 OA
HETATM    9  C10 UNL     1      20.032   2.953  51.594  1.00  0.00     0.270 C 
HETATM   10  O4  UNL     1      20.344   3.239  52.785  1.00  0.00    -0.264 OA
HETATM   11  C11 UNL     1      18.684   3.430  51.190  1.00  0.00     0.119 C 
HETATM   12  C12 UNL     1      17.761   2.322  51.800  1.00  0.00     0.079 C 
HETATM   13  C13 UNL     1      18.392   1.044  51.270  1.00  0.00     0.078 C 
HETATM   14  S2  UNL     1      17.562   0.443  49.963  1.00  0.00    -0.065 SA
HETATM   15  N1  UNL     1      19.536   0.336  51.724  1.00  0.00    -0.349 N 
HETATM   16  H13 UNL     1      19.722  -0.524  51.166  1.00  0.00     0.166 HD
ENDROOT
BRANCH   1  17
HETATM   17  C3  UNL     1      24.250   0.670  52.921  1.00  0.00     0.050 C 
BRANCH  17  18
HETATM   18  C2  UNL     1      25.371  -0.294  53.252  1.00  0.00     0.114 C 
BRANCH  18  19
HETATM   19  C1  UNL     1      26.043   0.217  54.475  1.00  0.00     0.139 C 
HETATM   20  O1  UNL     1      26.150  -0.544  55.448  1.00  0.00    -0.650 OA
BRANCH  19  21
HETATM   21  O2  UNL     1      26.528   1.526  54.469  1.00  0.00    -0.776 OA
HETATM   22  H1  UNL     1      26.023   2.304  54.847  1.00  0.00     0.167 HD
ENDBRANCH  19  21
ENDBRANCH  18  19
ENDBRANCH  17  18
ENDBRANCH   1  17
TORSDOF 4
ENDMDL
MODEL 4
REMARK VINA RESULT:      -6.8      2.915      4.766
REMARK  4 active torsions:
REMARK  status: ('A' for Active; 'I' for Inactive)
REMARK    1  A    between atoms: C1_2  and  O2_3 
REMARK    2  A    between atoms: C1_2  and  C2_4 
REMARK    3  A    between atoms: C2_4  and  C3_5 
REMARK    4  A    between atoms: C3_5  and  C4_6 
ROOT
HETATM    1  C4  UNL     1      23.729   3.321  49.491  1.00  0.00    -0.036 A 
HETATM    2  C5  UNL     1      23.127   2.789  48.389  1.00  0.00     0.009 A 
HETATM    3  C6  UNL     1      22.194   1.794  48.325  1.00  0.00     0.003 A 
HETATM    4  C7  UNL     1      21.877   1.324  49.602  1.00  0.00     0.031 A 
HETATM    5  C8  UNL     1      22.433   1.797  50.787  1.00  0.00     0.052 A 
HETATM    6  C9  UNL     1      23.371   2.813  50.702  1.00  0.00     0.062 A 
HETATM    7  S1  UNL     1      24.081   3.377  52.290  1.00  0.00     0.042 SA
HETATM    8  O3  UNL     1      23.855   2.009  53.390  1.00  0.00    -0.239 OA
HETATM    9  C10 UNL     1      24.397   0.759  52.957  1.00  0.00     0.270 C 
HETATM   10  O4  UNL     1      25.064   0.379  51.952  1.00  0.00    -0.264 OA
HETATM   11  C11 UNL     1      24.077  -0.329  53.918  1.00  0.00     0.119 C 
HETATM   12  C12 UNL     1      22.841  -1.002  53.232  1.00  0.00     0.079 C 
HETATM   13  C13 UNL     1      21.926   0.185  52.973  1.00  0.00     0.078 C 
HETATM   14  S2  UNL     1      20.722   0.294  54.111  1.00  0.00    -0.065 SA
HETATM   15  N1  UNL     1      21.965   1.157  51.940  1.00  0.00    -0.349 N 
HETATM   16  H13 UNL     1      21.190   1.850  52.012  1.00  0.00     0.166 HD
ENDROOT
BRANCH   1  17
HETATM   17  C3  UNL     1      24.741   4.394  49.577  1.00  0.00     0.050 C 
BRANCH  17  18
HETATM   18  C2  UNL     1      26.152   3.889  49.352  1.00  0.00     0.114 C 
BRANCH  18  19
HETATM   19  C1  UNL     1      26.976   5.056  48.945  1.00  0.00     0.139 C 
HETATM   20  O1  UNL     1      26.405   6.030  48.434  1.00  0.00    -0.650 OA
BRANCH  19  21
HETATM   21  O2  UNL     1      28.354   5.005  49.165  1.00  0.00    -0.776 OA
HETATM   22  H1  UNL     1      28.941   4.266  48.828  1.00  0.00     0.167 HD
ENDBRANCH  19  21
ENDBRANCH  18  19
ENDBRANCH  17  18
ENDBRANCH   1  17
TORSDOF 4
ENDMDL
MODEL 5
REMARK VINA RESULT:      -6.5      4.847      6.131
REMARK  4 active torsions:
REMARK  status: ('A' for Active; 'I' for Inactive)
REMARK    1  A    between atoms: C1_2  and  O2_3 
REMARK    2  A    between atoms: C1_2  and  C2_4 
REMARK    3  A    between atoms: C2_4  and  C3_5 
REMARK    4  A    between atoms: C3_5  and  C4_6 
ROOT
HETATM    1  C4  UNL     1      26.781   6.632  48.418  1.00  0.00    -0.036 A 
HETATM    2  C5  UNL     1      27.419   5.491  48.806  1.00  0.00     0.009 A 
HETATM    3  C6  UNL     1      26.876   4.316  49.241  1.00  0.00     0.003 A 
HETATM    4  C7  UNL     1      25.480   4.386  49.254  1.00  0.00     0.031 A 
HETATM    5  C8  UNL     1      24.734   5.500  48.880  1.00  0.00     0.052 A 
HETATM    6  C9  UNL     1      25.420   6.628  48.459  1.00  0.00     0.062 A 
HETATM    7  S1  UNL     1      24.387   8.065  48.001  1.00  0.00     0.042 SA
HETATM    8  O3  UNL     1      22.863   7.811  48.866  1.00  0.00    -0.239 OA
HETATM    9  C10 UNL     1      22.966   7.635  50.281  1.00  0.00     0.270 C 
HETATM   10  O4  UNL     1      23.918   7.654  51.113  1.00  0.00    -0.264 OA
HETATM   11  C11 UNL     1      21.639   7.349  50.886  1.00  0.00     0.119 C 
HETATM   12  C12 UNL     1      21.681   5.790  51.019  1.00  0.00     0.079 C 
HETATM   13  C13 UNL     1      22.075   5.353  49.617  1.00  0.00     0.078 C 
HETATM   14  S2  UNL     1      20.762   4.836  48.742  1.00  0.00    -0.065 SA
HETATM   15  N1  UNL     1      23.350   5.331  48.993  1.00  0.00    -0.349 N 
HETATM   16  H13 UNL     1      23.313   4.964  48.018  1.00  0.00     0.166 HD
ENDROOT
BRANCH   1  17
HETATM   17  C3  UNL     1      27.354   7.910  47.950  1.00  0.00     0.050 C 
BRANCH  17  18
HETATM   18  C2  UNL     1      28.299   8.534  48.958  1.00  0.00     0.114 C 
BRANCH  18  19
HETATM   19  C1  UNL     1      27.500   9.475  49.784  1.00  0.00     0.139 C 
HETATM   20  O1  UNL     1      26.862  10.367  49.208  1.00  0.00    -0.650 OA
BRANCH  19  21
HETATM   21  O2  UNL     1      27.499   9.306  51.170  1.00  0.00    -0.776 OA
HETATM   22  H1  UNL     1      26.945   8.617  51.643  1.00  0.00     0.167 HD
ENDBRANCH  19  21
ENDBRANCH  18  19
ENDBRANCH  17  18
ENDBRANCH   1  17
TORSDOF 4
ENDMDL
MODEL 6
REMARK VINA RESULT:      -6.4      1.696      1.886
REMARK  4 active torsions:
REMARK  status: ('A' for Active; 'I' for Inactive)
REMARK    1  A    between atoms: C1_2  and  O2_3 
REMARK    2  A    between atoms: C1_2  and  C2_4 
REMARK    3  A    between atoms: C2_4  and  C3_5 
REMARK    4  A    between atoms: C3_5  and  C4_6 
ROOT
HETATM    1  C4  UNL     1      25.194   1.268  52.490  1.00  0.00    -0.036 A 
HETATM    2  C5  UNL     1      24.236   0.485  53.064  1.00  0.00     0.009 A 
HETATM    3  C6  UNL     1      22.924   0.346  52.709  1.00  0.00     0.003 A 
HETATM    4  C7  UNL     1      22.618   1.146  51.604  1.00  0.00     0.031 A 
HETATM    5  C8  UNL     1      23.521   1.978  50.947  1.00  0.00     0.052 A 
HETATM    6  C9  UNL     1      24.823   2.021  51.418  1.00  0.00     0.062 A 
HETATM    7  S1  UNL     1      25.956   3.148  50.529  1.00  0.00     0.042 SA
HETATM    8  O3  UNL     1      24.890   4.338  49.766  1.00  0.00    -0.239 OA
HETATM    9  C10 UNL     1      23.996   5.032  50.640  1.00  0.00     0.270 C 
HETATM   10  O4  UNL     1      23.794   5.033  51.888  1.00  0.00    -0.264 OA
HETATM   11  C11 UNL     1      23.098   5.941  49.880  1.00  0.00     0.119 C 
HETATM   12  C12 UNL     1      21.796   5.079  49.768  1.00  0.00     0.079 C 
HETATM   13  C13 UNL     1      22.323   3.765  49.213  1.00  0.00     0.078 C 
HETATM   14  S2  UNL     1      22.061   3.637  47.578  1.00  0.00    -0.065 SA
HETATM   15  N1  UNL     1      22.973   2.690  49.875  1.00  0.00    -0.349 N 
HETATM   16  H13 UNL     1      23.209   1.906  49.231  1.00  0.00     0.166 HD
ENDROOT
BRANCH   1  17
HETATM   17  C3  UNL     1      26.614   1.432  52.864  1.00  0.00     0.050 C 
BRANCH  17  18
HETATM   18  C2  UNL     1      27.355   0.112  52.943  1.00  0.00     0.114 C 
BRANCH  18  19
HETATM   19  C1  UNL     1      27.777  -0.070  54.357  1.00  0.00     0.139 C 
HETATM   20  O1  UNL     1      28.977   0.064  54.634  1.00  0.00    -0.650 OA
BRANCH  19  21
HETATM   21  O2  UNL     1      26.800  -0.374  55.307  1.00  0.00    -0.776 OA
HETATM   22  H1  UNL     1      27.010  -0.693  56.233  1.00  0.00     0.167 HD
ENDBRANCH  19  21
ENDBRANCH  18  19
ENDBRANCH  17  18
ENDBRANCH   1  17
TORSDOF 4
ENDMDL
MODEL 7
REMARK VINA RESULT:      -6.4      3.723      5.389
REMARK  4 active torsions:
REMARK  status: ('A' for Active; 'I' for Inactive)
REMARK    1  A    between atoms: C1_2  and  O2_3 
REMARK    2  A    between atoms: C1_2  and  C2_4 
REMARK    3  A    between atoms: C2_4  and  C3_5 
REMARK    4  A    between atoms: C3_5  and  C4_6 
ROOT
HETATM    1  C4  UNL     1      25.711   6.028  49.067  1.00  0.00    -0.036 A 
HETATM    2  C5  UNL     1      26.893   5.348  49.047  1.00  0.00     0.009 A 
HETATM    3  C6  UNL     1      27.106   4.007  49.192  1.00  0.00     0.003 A 
HETATM    4  C7  UNL     1      25.900   3.326  49.377  1.00  0.00     0.031 A 
HETATM    5  C8  UNL     1      24.644   3.925  49.413  1.00  0.00     0.052 A 
HETATM    6  C9  UNL     1      24.577   5.299  49.253  1.00  0.00     0.062 A 
HETATM    7  S1  UNL     1      22.902   6.030  49.332  1.00  0.00     0.042 SA
HETATM    8  O3  UNL     1      21.948   4.857  50.252  1.00  0.00    -0.239 OA
HETATM    9  C10 UNL     1      22.458   4.506  51.541  1.00  0.00     0.270 C 
HETATM   10  O4  UNL     1      23.449   4.872  52.236  1.00  0.00    -0.264 OA
HETATM   11  C11 UNL     1      21.622   3.459  52.184  1.00  0.00     0.119 C 
HETATM   12  C12 UNL     1      22.443   2.163  51.869  1.00  0.00     0.079 C 
HETATM   13  C13 UNL     1      22.650   2.265  50.366  1.00  0.00     0.078 C 
HETATM   14  S2  UNL     1      21.586   1.304  49.531  1.00  0.00    -0.065 SA
HETATM   15  N1  UNL     1      23.587   3.034  49.625  1.00  0.00    -0.349 N 
HETATM   16  H13 UNL     1      23.500   2.889  48.597  1.00  0.00     0.166 HD
ENDROOT
BRANCH   1  17
HETATM   17  C3  UNL     1      25.465   7.476  48.915  1.00  0.00     0.050 C 
BRANCH  17  18
HETATM   18  C2  UNL     1      25.712   8.251  50.195  1.00  0.00     0.114 C 
BRANCH  18  19
HETATM   19  C1  UNL     1      26.993   8.984  50.023  1.00  0.00     0.139 C 
HETATM   20  O1  UNL     1      27.512   9.005  48.898  1.00  0.00    -0.650 OA
BRANCH  19  21
HETATM   21  O2  UNL     1      27.549   9.620  51.135  1.00  0.00    -0.776 OA
HETATM   22  H1  UNL     1      27.078  10.336  51.654  1.00  0.00     0.167 HD
ENDBRANCH  19  21
ENDBRANCH  18  19
ENDBRANCH  17  18
ENDBRANCH   1  17
TORSDOF 4
ENDMDL
MODEL 8
REMARK VINA RESULT:      -6.1      8.753     10.764
REMARK  4 active torsions:
REMARK  status: ('A' for Active; 'I' for Inactive)
REMARK    1  A    between atoms: C1_2  and  O2_3 
REMARK    2  A    between atoms: C1_2  and  C2_4 
REMARK    3  A    between atoms: C2_4  and  C3_5 
REMARK    4  A    between atoms: C3_5  and  C4_6 
ROOT
HETATM    1  C4  UNL     1      30.234   8.134  48.768  1.00  0.00    -0.036 A 
HETATM    2  C5  UNL     1      28.934   7.754  48.608  1.00  0.00     0.009 A 
HETATM    3  C6  UNL     1      28.443   6.539  48.223  1.00  0.00     0.003 A 
HETATM    4  C7  UNL     1      29.481   5.632  47.989  1.00  0.00     0.031 A 
HETATM    5  C8  UNL     1      30.836   5.920  48.123  1.00  0.00     0.052 A 
HETATM    6  C9  UNL     1      31.191   7.198  48.521  1.00  0.00     0.062 A 
HETATM    7  S1  UNL     1      32.986   7.521  48.658  1.00  0.00     0.042 SA
HETATM    8  O3  UNL     1      33.737   6.314  47.602  1.00  0.00    -0.239 OA
HETATM    9  C10 UNL     1      33.282   6.296  46.247  1.00  0.00     0.270 C 
HETATM   10  O4  UNL     1      32.465   6.987  45.574  1.00  0.00    -0.264 OA
HETATM   11  C11 UNL     1      33.920   5.195  45.480  1.00  0.00     0.119 C 
HETATM   12  C12 UNL     1      32.807   4.095  45.523  1.00  0.00     0.079 C 
HETATM   13  C13 UNL     1      32.491   4.008  47.007  1.00  0.00     0.078 C 
HETATM   14  S2  UNL     1      33.235   2.707  47.721  1.00  0.00    -0.065 SA
HETATM   15  N1  UNL     1      31.684   4.850  47.818  1.00  0.00    -0.349 N 
HETATM   16  H13 UNL     1      31.642   4.531  48.809  1.00  0.00     0.166 HD
ENDROOT
BRANCH   1  17
HETATM   17  C3  UNL     1      30.781   9.443  49.179  1.00  0.00     0.050 C 
BRANCH  17  18
HETATM   18  C2  UNL     1      30.403  10.562  48.228  1.00  0.00     0.114 C 
BRANCH  18  19
HETATM   19  C1  UNL     1      29.820  11.656  49.047  1.00  0.00     0.139 C 
HETATM   20  O1  UNL     1      30.516  12.656  49.273  1.00  0.00    -0.650 OA
BRANCH  19  21
HETATM   21  O2  UNL     1      28.513  11.510  49.516  1.00  0.00    -0.776 OA
HETATM   22  H1  UNL     1      27.953  12.276  49.839  1.00  0.00     0.167 HD
ENDBRANCH  19  21
ENDBRANCH  18  19
ENDBRANCH  17  18
ENDBRANCH   1  17
TORSDOF 4
ENDMDL
MODEL 9
REMARK VINA RESULT:      -6.1      3.579      5.814
REMARK  4 active torsions:
REMARK  status: ('A' for Active; 'I' for Inactive)
REMARK    1  A    between atoms: C1_2  and  O2_3 
REMARK    2  A    between atoms: C1_2  and  C2_4 
REMARK    3  A    between atoms: C2_4  and  C3_5 
REMARK    4  A    between atoms: C3_5  and  C4_6 
ROOT
HETATM    1  C4  UNL     1      21.856   0.247  53.638  1.00  0.00    -0.036 A 
HETATM    2  C5  UNL     1      22.969  -0.490  53.913  1.00  0.00     0.009 A 
HETATM    3  C6  UNL     1      24.260  -0.259  53.531  1.00  0.00     0.003 A 
HETATM    4  C7  UNL     1      24.353   0.906  52.763  1.00  0.00     0.031 A 
HETATM    5  C8  UNL     1      23.279   1.726  52.426  1.00  0.00     0.052 A 
HETATM    6  C9  UNL     1      22.022   1.368  52.883  1.00  0.00     0.062 A 
HETATM    7  S1  UNL     1      20.650   2.472  52.390  1.00  0.00     0.042 SA
HETATM    8  O3  UNL     1      21.236   3.284  50.930  1.00  0.00    -0.239 OA
HETATM    9  C10 UNL     1      21.667   2.431  49.867  1.00  0.00     0.270 C 
HETATM   10  O4  UNL     1      21.699   1.179  49.687  1.00  0.00    -0.264 OA
HETATM   11  C11 UNL     1      22.212   3.219  48.731  1.00  0.00     0.119 C 
HETATM   12  C12 UNL     1      23.753   3.125  48.991  1.00  0.00     0.079 C 
HETATM   13  C13 UNL     1      23.865   3.560  50.444  1.00  0.00     0.078 C 
HETATM   14  S2  UNL     1      24.351   5.142  50.577  1.00  0.00    -0.065 SA
HETATM   15  N1  UNL     1      23.623   2.828  51.636  1.00  0.00    -0.349 N 
HETATM   16  H13 UNL     1      23.798   3.391  52.494  1.00  0.00     0.166 HD
ENDROOT
BRANCH   1  17
HETATM   17  C3  UNL     1      20.455   0.009  54.041  1.00  0.00     0.050 C 
BRANCH  17  18
HETATM   18  C2  UNL     1      20.033  -1.437  53.873  1.00  0.00     0.114 C 
BRANCH  18  19
HETATM   19  C1  UNL     1      18.632  -1.431  53.379  1.00  0.00     0.139 C 
HETATM   20  O1  UNL     1      17.877  -2.345  53.741  1.00  0.00    -0.650 OA
BRANCH  19  21
HETATM   21  O2  UNL     1      18.229  -0.394  52.536  1.00  0.00    -0.776 OA
HETATM   22  H1  UNL     1      17.682   0.387  52.843  1.00  0.00     0.167 HD
ENDBRANCH  19  21
ENDBRANCH  18  19
ENDBRANCH  17  18
ENDBRANCH   1  17
TORSDOF 4
ENDMDL
