MODEL 1
REMARK VINA RESULT:      -8.3      0.000      0.000
REMARK  5 active torsions:
REMARK  status: ('A' for Active; 'I' for Inactive)
REMARK    1  A    between atoms: C1_2  and  C2_3 
REMARK       I    between atoms: C1_2  and  N1_11 
REMARK    2  A    between atoms: C2_3  and  C3_4 
REMARK    3  A    between atoms: C6_7  and  O2_8 
REMARK    4  A    between atoms: N1_11  and  S1_12 
REMARK    5  A    between atoms: S1_12  and  C9_14 
ROOT
HETATM    1  O1  UNL     1      26.928   2.420  51.118  1.00  0.00    -0.272 OA
HETATM    2  C1  UNL     1      26.871   2.374  52.374  1.00  0.00     0.233 C 
HETATM    3  N1  UNL     1      25.728   2.600  53.176  1.00  0.00    -0.272 N 
HETATM    4  H8  UNL     1      25.816   2.531  54.218  1.00  0.00     0.179 HD
ENDROOT
BRANCH   2   5
HETATM    5  C2  UNL     1      28.152   2.049  53.044  1.00  0.00     0.142 C 
BRANCH   5   6
HETATM    6  C3  UNL     1      28.391   0.605  53.154  1.00  0.00    -0.049 A 
HETATM    7  C4  UNL     1      29.575   0.006  53.572  1.00  0.00     0.010 A 
HETATM    8  C5  UNL     1      29.671  -1.364  53.629  1.00  0.00     0.037 A 
HETATM    9  C6  UNL     1      28.621  -2.190  53.285  1.00  0.00     0.065 A 
HETATM   10  C7  UNL     1      27.421  -1.638  52.862  1.00  0.00     0.037 A 
HETATM   11  C8  UNL     1      27.357  -0.262  52.815  1.00  0.00     0.010 A 
BRANCH   9  12
HETATM   12  O2  UNL     1      28.770  -3.564  53.361  1.00  0.00    -0.361 OA
HETATM   13  H5  UNL     1      28.843  -4.137  52.529  1.00  0.00     0.217 HD
ENDBRANCH   9  12
ENDBRANCH   5   6
ENDBRANCH   2   5
BRANCH   3  14
HETATM   14  S1  UNL     1      24.261   2.978  52.280  1.00  0.00     0.153 S 
HETATM   15  O3  UNL     1      23.762   4.359  52.628  1.00  0.00    -0.230 OA
BRANCH  14  16
HETATM   16  C9  UNL     1      23.055   1.760  52.727  1.00  0.00     0.052 A 
HETATM   17  C10 UNL     1      23.616   0.593  53.224  1.00  0.00     0.024 A 
HETATM   18  C11 UNL     1      22.825  -0.476  53.628  1.00  0.00     0.025 A 
HETATM   19  C12 UNL     1      21.448  -0.314  53.507  1.00  0.00     0.034 A 
HETATM   20 CL1  UNL     1      20.396  -1.627  54.000  1.00  0.00    -0.084 Cl
HETATM   21  C13 UNL     1      20.897   0.851  53.012  1.00  0.00     0.025 A 
HETATM   22  C14 UNL     1      21.682   1.908  52.613  1.00  0.00     0.024 A 
ENDBRANCH  14  16
ENDBRANCH   3  14
TORSDOF 5
ENDMDL
MODEL 2
REMARK VINA RESULT:      -7.7      3.017      3.892
REMARK  5 active torsions:
REMARK  status: ('A' for Active; 'I' for Inactive)
REMARK    1  A    between atoms: C1_2  and  C2_3 
REMARK       I    between atoms: C1_2  and  N1_11 
REMARK    2  A    between atoms: C2_3  and  C3_4 
REMARK    3  A    between atoms: C6_7  and  O2_8 
REMARK    4  A    between atoms: N1_11  and  S1_12 
REMARK    5  A    between atoms: S1_12  and  C9_14 
ROOT
HETATM    1  O1  UNL     1      24.142   1.519  53.292  1.00  0.00    -0.272 OA
HETATM    2  C1  UNL     1      24.442   0.321  53.051  1.00  0.00     0.233 C 
HETATM    3  N1  UNL     1      23.687  -0.824  53.395  1.00  0.00    -0.272 N 
HETATM    4  H8  UNL     1      24.052  -1.772  53.135  1.00  0.00     0.179 HD
ENDROOT
BRANCH   2   5
HETATM    5  C2  UNL     1      25.725   0.133  52.334  1.00  0.00     0.142 C 
BRANCH   5   6
HETATM    6  C3  UNL     1      26.878   0.660  53.074  1.00  0.00    -0.049 A 
HETATM    7  C4  UNL     1      27.537   0.018  54.118  1.00  0.00     0.010 A 
HETATM    8  C5  UNL     1      28.608   0.622  54.732  1.00  0.00     0.037 A 
HETATM    9  C6  UNL     1      29.070   1.865  54.349  1.00  0.00     0.065 A 
HETATM   10  C7  UNL     1      28.444   2.543  53.314  1.00  0.00     0.037 A 
HETATM   11  C8  UNL     1      27.373   1.910  52.720  1.00  0.00     0.010 A 
BRANCH   9  12
HETATM   12  O2  UNL     1      30.153   2.430  55.001  1.00  0.00    -0.361 OA
HETATM   13  H5  UNL     1      30.291   2.316  55.997  1.00  0.00     0.217 HD
ENDBRANCH   9  12
ENDBRANCH   5   6
ENDBRANCH   2   5
BRANCH   3  14
HETATM   14  S1  UNL     1      22.182  -0.488  54.243  1.00  0.00     0.153 S 
HETATM   15  O3  UNL     1      21.798  -1.645  55.132  1.00  0.00    -0.230 OA
BRANCH  14  16
HETATM   16  C9  UNL     1      20.941  -0.228  53.006  1.00  0.00     0.052 A 
HETATM   17  C10 UNL     1      19.677  -0.633  53.407  1.00  0.00     0.024 A 
HETATM   18  C11 UNL     1      18.576  -0.506  52.568  1.00  0.00     0.025 A 
HETATM   19  C12 UNL     1      18.808   0.046  51.312  1.00  0.00     0.034 A 
HETATM   20 CL1  UNL     1      17.459   0.232  50.208  1.00  0.00    -0.084 Cl
HETATM   21  C13 UNL     1      20.069   0.448  50.920  1.00  0.00     0.025 A 
HETATM   22  C14 UNL     1      21.158   0.322  51.753  1.00  0.00     0.024 A 
ENDBRANCH  14  16
ENDBRANCH   3  14
TORSDOF 5
ENDMDL
MODEL 3
REMARK VINA RESULT:      -7.3      3.864      5.264
REMARK  5 active torsions:
REMARK  status: ('A' for Active; 'I' for Inactive)
REMARK    1  A    between atoms: C1_2  and  C2_3 
REMARK       I    between atoms: C1_2  and  N1_11 
REMARK    2  A    between atoms: C2_3  and  C3_4 
REMARK    3  A    between atoms: C6_7  and  O2_8 
REMARK    4  A    between atoms: N1_11  and  S1_12 
REMARK    5  A    between atoms: S1_12  and  C9_14 
ROOT
HETATM    1  O1  UNL     1      22.802   1.123  53.410  1.00  0.00    -0.272 OA
HETATM    2  C1  UNL     1      23.870   0.721  52.880  1.00  0.00     0.233 C 
HETATM    3  N1  UNL     1      24.561   1.329  51.806  1.00  0.00    -0.272 N 
HETATM    4  H8  UNL     1      25.446   0.889  51.456  1.00  0.00     0.179 HD
ENDROOT
BRANCH   2   5
HETATM    5  C2  UNL     1      24.429  -0.518  53.470  1.00  0.00     0.142 C 
BRANCH   5   6
HETATM    6  C3  UNL     1      25.884  -0.462  53.649  1.00  0.00    -0.049 A 
HETATM    7  C4  UNL     1      26.560   0.333  54.569  1.00  0.00     0.010 A 
HETATM    8  C5  UNL     1      27.933   0.294  54.636  1.00  0.00     0.037 A 
HETATM    9  C6  UNL     1      28.687  -0.517  53.813  1.00  0.00     0.065 A 
HETATM   10  C7  UNL     1      28.057  -1.326  52.880  1.00  0.00     0.037 A 
HETATM   11  C8  UNL     1      26.680  -1.264  52.838  1.00  0.00     0.010 A 
BRANCH   9  12
HETATM   12  O2  UNL     1      30.067  -0.518  53.921  1.00  0.00    -0.361 OA
HETATM   13  H5  UNL     1      30.562   0.223  54.400  1.00  0.00     0.217 HD
ENDBRANCH   9  12
ENDBRANCH   5   6
ENDBRANCH   2   5
BRANCH   3  14
HETATM   14  S1  UNL     1      23.811   2.794  51.182  1.00  0.00     0.153 S 
HETATM   15  O3  UNL     1      22.656   2.458  50.271  1.00  0.00    -0.230 OA
BRANCH  14  16
HETATM   16  C9  UNL     1      25.063   3.671  50.285  1.00  0.00     0.052 A 
HETATM   17  C10 UNL     1      24.722   4.987  50.016  1.00  0.00     0.024 A 
HETATM   18  C11 UNL     1      25.581   5.831  49.322  1.00  0.00     0.025 A 
HETATM   19  C12 UNL     1      26.795   5.286  48.913  1.00  0.00     0.034 A 
HETATM   20 CL1  UNL     1      27.921   6.301  48.033  1.00  0.00    -0.084 Cl
HETATM   21  C13 UNL     1      27.128   3.975  49.185  1.00  0.00     0.025 A 
HETATM   22  C14 UNL     1      26.276   3.142  49.873  1.00  0.00     0.024 A 
ENDBRANCH  14  16
ENDBRANCH   3  14
TORSDOF 5
ENDMDL
MODEL 4
REMARK VINA RESULT:      -7.2      4.125      5.554
REMARK  5 active torsions:
REMARK  status: ('A' for Active; 'I' for Inactive)
REMARK    1  A    between atoms: C1_2  and  C2_3 
REMARK       I    between atoms: C1_2  and  N1_11 
REMARK    2  A    between atoms: C2_3  and  C3_4 
REMARK    3  A    between atoms: C6_7  and  O2_8 
REMARK    4  A    between atoms: N1_11  and  S1_12 
REMARK    5  A    between atoms: S1_12  and  C9_14 
ROOT
HETATM    1  O1  UNL     1      22.889   2.796  52.663  1.00  0.00    -0.272 OA
HETATM    2  C1  UNL     1      23.058   1.911  51.784  1.00  0.00     0.233 C 
HETATM    3  N1  UNL     1      23.085   2.106  50.384  1.00  0.00    -0.272 N 
HETATM    4  H8  UNL     1      23.235   1.279  49.757  1.00  0.00     0.179 HD
ENDROOT
BRANCH   2   5
HETATM    5  C2  UNL     1      23.243   0.538  52.311  1.00  0.00     0.142 C 
BRANCH   5   6
HETATM    6  C3  UNL     1      24.603   0.292  52.803  1.00  0.00    -0.049 A 
HETATM    7  C4  UNL     1      25.780   0.547  52.105  1.00  0.00     0.010 A 
HETATM    8  C5  UNL     1      26.997   0.268  52.681  1.00  0.00     0.037 A 
HETATM    9  C6  UNL     1      27.105  -0.263  53.950  1.00  0.00     0.065 A 
HETATM   10  C7  UNL     1      25.960  -0.533  54.684  1.00  0.00     0.037 A 
HETATM   11  C8  UNL     1      24.756  -0.244  54.078  1.00  0.00     0.010 A 
BRANCH   9  12
HETATM   12  O2  UNL     1      28.355  -0.524  54.484  1.00  0.00    -0.361 OA
HETATM   13  H5  UNL     1      28.509  -1.298  55.119  1.00  0.00     0.217 HD
ENDBRANCH   9  12
ENDBRANCH   5   6
ENDBRANCH   2   5
BRANCH   3  14
HETATM   14  S1  UNL     1      22.856   3.773  49.867  1.00  0.00     0.153 S 
HETATM   15  O3  UNL     1      21.917   3.843  48.687  1.00  0.00    -0.230 OA
BRANCH  14  16
HETATM   16  C9  UNL     1      24.452   4.397  49.417  1.00  0.00     0.052 A 
HETATM   17  C10 UNL     1      25.469   3.470  49.589  1.00  0.00     0.024 A 
HETATM   18  C11 UNL     1      26.790   3.781  49.287  1.00  0.00     0.025 A 
HETATM   19  C12 UNL     1      27.035   5.064  48.808  1.00  0.00     0.034 A 
HETATM   20 CL1  UNL     1      28.681   5.516  48.410  1.00  0.00    -0.084 Cl
HETATM   21  C13 UNL     1      26.017   5.981  48.639  1.00  0.00     0.025 A 
HETATM   22  C14 UNL     1      24.711   5.671  48.938  1.00  0.00     0.024 A 
ENDBRANCH  14  16
ENDBRANCH   3  14
TORSDOF 5
ENDMDL
MODEL 5
REMARK VINA RESULT:      -7.2      4.223      5.716
REMARK  5 active torsions:
REMARK  status: ('A' for Active; 'I' for Inactive)
REMARK    1  A    between atoms: C1_2  and  C2_3 
REMARK       I    between atoms: C1_2  and  N1_11 
REMARK    2  A    between atoms: C2_3  and  C3_4 
REMARK    3  A    between atoms: C6_7  and  O2_8 
REMARK    4  A    between atoms: N1_11  and  S1_12 
REMARK    5  A    between atoms: S1_12  and  C9_14 
ROOT
HETATM    1  O1  UNL     1      23.292   2.993  52.797  1.00  0.00    -0.272 OA
HETATM    2  C1  UNL     1      23.890   2.020  52.270  1.00  0.00     0.233 C 
HETATM    3  N1  UNL     1      24.162   1.841  50.894  1.00  0.00    -0.272 N 
HETATM    4  H8  UNL     1      24.672   0.979  50.584  1.00  0.00     0.179 HD
ENDROOT
BRANCH   2   5
HETATM    5  C2  UNL     1      24.339   0.976  53.222  1.00  0.00     0.142 C 
BRANCH   5   6
HETATM    6  C3  UNL     1      25.797   0.821  53.256  1.00  0.00    -0.049 A 
HETATM    7  C4  UNL     1      26.493  -0.370  53.073  1.00  0.00     0.010 A 
HETATM    8  C5  UNL     1      27.867  -0.381  53.132  1.00  0.00     0.037 A 
HETATM    9  C6  UNL     1      28.603   0.763  53.368  1.00  0.00     0.065 A 
HETATM   10  C7  UNL     1      27.952   1.973  53.556  1.00  0.00     0.037 A 
HETATM   11  C8  UNL     1      26.575   1.950  53.492  1.00  0.00     0.010 A 
BRANCH   9  12
HETATM   12  O2  UNL     1      29.984   0.697  53.416  1.00  0.00    -0.361 OA
HETATM   13  H5  UNL     1      30.470  -0.186  53.521  1.00  0.00     0.217 HD
ENDBRANCH   9  12
ENDBRANCH   5   6
ENDBRANCH   2   5
BRANCH   3  14
HETATM   14  S1  UNL     1      23.587   3.139  49.854  1.00  0.00     0.153 S 
HETATM   15  O3  UNL     1      22.908   2.580  48.627  1.00  0.00    -0.230 OA
BRANCH  14  16
HETATM   16  C9  UNL     1      25.006   4.092  49.388  1.00  0.00     0.052 A 
HETATM   17  C10 UNL     1      24.688   5.375  48.969  1.00  0.00     0.024 A 
HETATM   18  C11 UNL     1      25.673   6.270  48.565  1.00  0.00     0.025 A 
HETATM   19  C12 UNL     1      26.986   5.811  48.603  1.00  0.00     0.034 A 
HETATM   20 CL1  UNL     1      28.272   6.893  48.105  1.00  0.00    -0.084 Cl
HETATM   21  C13 UNL     1      27.295   4.533  49.021  1.00  0.00     0.025 A 
HETATM   22  C14 UNL     1      26.319   3.649  49.420  1.00  0.00     0.024 A 
ENDBRANCH  14  16
ENDBRANCH   3  14
TORSDOF 5
ENDMDL
MODEL 6
REMARK VINA RESULT:      -7.2      4.235      6.157
REMARK  5 active torsions:
REMARK  status: ('A' for Active; 'I' for Inactive)
REMARK    1  A    between atoms: C1_2  and  C2_3 
REMARK       I    between atoms: C1_2  and  N1_11 
REMARK    2  A    between atoms: C2_3  and  C3_4 
REMARK    3  A    between atoms: C6_7  and  O2_8 
REMARK    4  A    between atoms: N1_11  and  S1_12 
REMARK    5  A    between atoms: S1_12  and  C9_14 
ROOT
HETATM    1  O1  UNL     1      21.926   2.179  52.687  1.00  0.00    -0.272 OA
HETATM    2  C1  UNL     1      22.171   1.438  51.700  1.00  0.00     0.233 C 
HETATM    3  N1  UNL     1      22.548   1.857  50.403  1.00  0.00    -0.272 N 
HETATM    4  H8  UNL     1      22.725   1.132  49.665  1.00  0.00     0.179 HD
ENDROOT
BRANCH   2   5
HETATM    5  C2  UNL     1      22.041  -0.014  51.964  1.00  0.00     0.142 C 
BRANCH   5   6
HETATM    6  C3  UNL     1      22.774  -0.447  53.159  1.00  0.00    -0.049 A 
HETATM    7  C4  UNL     1      22.217  -1.057  54.279  1.00  0.00     0.010 A 
HETATM    8  C5  UNL     1      23.017  -1.415  55.339  1.00  0.00     0.037 A 
HETATM    9  C6  UNL     1      24.379  -1.192  55.341  1.00  0.00     0.065 A 
HETATM   10  C7  UNL     1      24.978  -0.588  54.246  1.00  0.00     0.037 A 
HETATM   11  C8  UNL     1      24.149  -0.240  53.201  1.00  0.00     0.010 A 
BRANCH   9  12
HETATM   12  O2  UNL     1      25.139  -1.572  56.433  1.00  0.00    -0.361 OA
HETATM   13  H5  UNL     1      25.022  -1.134  57.339  1.00  0.00     0.217 HD
ENDBRANCH   9  12
ENDBRANCH   5   6
ENDBRANCH   2   5
BRANCH   3  14
HETATM   14  S1  UNL     1      22.673   3.600  50.198  1.00  0.00     0.153 S 
HETATM   15  O3  UNL     1      21.735   4.081  49.118  1.00  0.00    -0.230 OA
BRANCH  14  16
HETATM   16  C9  UNL     1      24.352   3.947  49.749  1.00  0.00     0.052 A 
HETATM   17  C10 UNL     1      24.519   5.204  49.189  1.00  0.00     0.024 A 
HETATM   18  C11 UNL     1      25.768   5.652  48.776  1.00  0.00     0.025 A 
HETATM   19  C12 UNL     1      26.836   4.776  48.952  1.00  0.00     0.034 A 
HETATM   20 CL1  UNL     1      28.436   5.284  48.450  1.00  0.00    -0.084 Cl
HETATM   21  C13 UNL     1      26.661   3.526  49.511  1.00  0.00     0.025 A 
HETATM   22  C14 UNL     1      25.424   3.085  49.920  1.00  0.00     0.024 A 
ENDBRANCH  14  16
ENDBRANCH   3  14
TORSDOF 5
ENDMDL
MODEL 7
REMARK VINA RESULT:      -7.2      3.777      4.739
REMARK  5 active torsions:
REMARK  status: ('A' for Active; 'I' for Inactive)
REMARK    1  A    between atoms: C1_2  and  C2_3 
REMARK       I    between atoms: C1_2  and  N1_11 
REMARK    2  A    between atoms: C2_3  and  C3_4 
REMARK    3  A    between atoms: C6_7  and  O2_8 
REMARK    4  A    between atoms: N1_11  and  S1_12 
REMARK    5  A    between atoms: S1_12  and  C9_14 
ROOT
HETATM    1  O1  UNL     1      24.776   2.024  51.327  1.00  0.00    -0.272 OA
HETATM    2  C1  UNL     1      25.914   2.341  51.759  1.00  0.00     0.233 C 
HETATM    3  N1  UNL     1      26.870   3.152  51.105  1.00  0.00    -0.272 N 
HETATM    4  H8  UNL     1      27.787   3.341  51.577  1.00  0.00     0.179 HD
ENDROOT
BRANCH   2   5
HETATM    5  C2  UNL     1      26.251   1.787  53.092  1.00  0.00     0.142 C 
BRANCH   5   6
HETATM    6  C3  UNL     1      26.791   0.424  53.026  1.00  0.00    -0.049 A 
HETATM    7  C4  UNL     1      26.097  -0.706  52.606  1.00  0.00     0.010 A 
HETATM    8  C5  UNL     1      26.720  -1.932  52.592  1.00  0.00     0.037 A 
HETATM    9  C6  UNL     1      28.033  -2.094  52.984  1.00  0.00     0.065 A 
HETATM   10  C7  UNL     1      28.764  -0.995  53.410  1.00  0.00     0.037 A 
HETATM   11  C8  UNL     1      28.111   0.218  53.413  1.00  0.00     0.010 A 
BRANCH   9  12
HETATM   12  O2  UNL     1      28.613  -3.350  52.951  1.00  0.00    -0.361 OA
HETATM   13  H5  UNL     1      28.646  -3.897  52.100  1.00  0.00     0.217 HD
ENDBRANCH   9  12
ENDBRANCH   5   6
ENDBRANCH   2   5
BRANCH   3  14
HETATM   14  S1  UNL     1      26.369   3.758  49.530  1.00  0.00     0.153 S 
HETATM   15  O3  UNL     1      27.536   4.375  48.798  1.00  0.00    -0.230 OA
BRANCH  14  16
HETATM   16  C9  UNL     1      25.116   4.976  49.821  1.00  0.00     0.052 A 
HETATM   17  C10 UNL     1      23.859   4.580  49.390  1.00  0.00     0.024 A 
HETATM   18  C11 UNL     1      22.750   5.406  49.536  1.00  0.00     0.025 A 
HETATM   19  C12 UNL     1      22.968   6.644  50.133  1.00  0.00     0.034 A 
HETATM   20 CL1  UNL     1      21.609   7.730  50.345  1.00  0.00    -0.084 Cl
HETATM   21  C13 UNL     1      24.222   7.031  50.560  1.00  0.00     0.025 A 
HETATM   22  C14 UNL     1      25.318   6.212  50.415  1.00  0.00     0.024 A 
ENDBRANCH  14  16
ENDBRANCH   3  14
TORSDOF 5
ENDMDL
MODEL 8
REMARK VINA RESULT:      -7.0      2.947      6.278
REMARK  5 active torsions:
REMARK  status: ('A' for Active; 'I' for Inactive)
REMARK    1  A    between atoms: C1_2  and  C2_3 
REMARK       I    between atoms: C1_2  and  N1_11 
REMARK    2  A    between atoms: C2_3  and  C3_4 
REMARK    3  A    between atoms: C6_7  and  O2_8 
REMARK    4  A    between atoms: N1_11  and  S1_12 
REMARK    5  A    between atoms: S1_12  and  C9_14 
ROOT
HETATM    1  O1  UNL     1      23.661   3.849  52.587  1.00  0.00    -0.272 OA
HETATM    2  C1  UNL     1      23.584   2.795  51.904  1.00  0.00     0.233 C 
HETATM    3  N1  UNL     1      24.663   2.051  51.374  1.00  0.00    -0.272 N 
HETATM    4  H8  UNL     1      24.461   1.185  50.818  1.00  0.00     0.179 HD
ENDROOT
BRANCH   2   5
HETATM    5  C2  UNL     1      22.204   2.319  51.649  1.00  0.00     0.142 C 
BRANCH   5   6
HETATM    6  C3  UNL     1      21.808   1.214  52.530  1.00  0.00    -0.049 A 
HETATM    7  C4  UNL     1      20.520   0.964  52.993  1.00  0.00     0.010 A 
HETATM    8  C5  UNL     1      20.280  -0.109  53.818  1.00  0.00     0.037 A 
HETATM    9  C6  UNL     1      21.282  -0.970  54.216  1.00  0.00     0.065 A 
HETATM   10  C7  UNL     1      22.582  -0.761  53.779  1.00  0.00     0.037 A 
HETATM   11  C8  UNL     1      22.789   0.324  52.954  1.00  0.00     0.010 A 
BRANCH   9  12
HETATM   12  O2  UNL     1      20.987  -2.035  55.048  1.00  0.00    -0.361 OA
HETATM   13  H5  UNL     1      21.172  -1.999  56.043  1.00  0.00     0.217 HD
ENDBRANCH   9  12
ENDBRANCH   5   6
ENDBRANCH   2   5
BRANCH   3  14
HETATM   14  S1  UNL     1      26.257   2.704  51.735  1.00  0.00     0.153 S 
HETATM   15  O3  UNL     1      26.904   3.257  50.488  1.00  0.00    -0.230 OA
BRANCH  14  16
HETATM   16  C9  UNL     1      27.224   1.371  52.388  1.00  0.00     0.052 A 
HETATM   17  C10 UNL     1      28.373   1.796  53.037  1.00  0.00     0.024 A 
HETATM   18  C11 UNL     1      29.256   0.891  53.615  1.00  0.00     0.025 A 
HETATM   19  C12 UNL     1      28.928  -0.457  53.506  1.00  0.00     0.034 A 
HETATM   20 CL1  UNL     1      30.002  -1.647  54.214  1.00  0.00    -0.084 Cl
HETATM   21  C13 UNL     1      27.782  -0.873  52.858  1.00  0.00     0.025 A 
HETATM   22  C14 UNL     1      26.909   0.025  52.288  1.00  0.00     0.024 A 
ENDBRANCH  14  16
ENDBRANCH   3  14
TORSDOF 5
ENDMDL
MODEL 9
REMARK VINA RESULT:      -6.9      3.316      4.457
REMARK  5 active torsions:
REMARK  status: ('A' for Active; 'I' for Inactive)
REMARK    1  A    between atoms: C1_2  and  C2_3 
REMARK       I    between atoms: C1_2  and  N1_11 
REMARK    2  A    between atoms: C2_3  and  C3_4 
REMARK    3  A    between atoms: C6_7  and  O2_8 
REMARK    4  A    between atoms: N1_11  and  S1_12 
REMARK    5  A    between atoms: S1_12  and  C9_14 
ROOT
HETATM    1  O1  UNL     1      21.927   0.980  50.127  1.00  0.00    -0.272 OA
HETATM    2  C1  UNL     1      22.266   1.665  51.127  1.00  0.00     0.233 C 
HETATM    3  N1  UNL     1      21.421   2.470  51.925  1.00  0.00    -0.272 N 
HETATM    4  H8  UNL     1      21.833   2.993  52.736  1.00  0.00     0.179 HD
ENDROOT
BRANCH   2   5
HETATM    5  C2  UNL     1      23.706   1.594  51.470  1.00  0.00     0.142 C 
BRANCH   5   6
HETATM    6  C3  UNL     1      23.978   0.728  52.623  1.00  0.00    -0.049 A 
HETATM    7  C4  UNL     1      23.065  -0.125  53.234  1.00  0.00     0.010 A 
HETATM    8  C5  UNL     1      23.447  -0.886  54.313  1.00  0.00     0.037 A 
HETATM    9  C6  UNL     1      24.726  -0.841  54.829  1.00  0.00     0.065 A 
HETATM   10  C7  UNL     1      25.671  -0.005  54.253  1.00  0.00     0.037 A 
HETATM   11  C8  UNL     1      25.256   0.745  53.173  1.00  0.00     0.010 A 
BRANCH   9  12
HETATM   12  O2  UNL     1      25.060  -1.628  55.917  1.00  0.00    -0.361 OA
HETATM   13  H5  UNL     1      25.957  -2.092  55.981  1.00  0.00     0.217 HD
ENDBRANCH   9  12
ENDBRANCH   5   6
ENDBRANCH   2   5
BRANCH   3  14
HETATM   14  S1  UNL     1      19.732   2.482  51.431  1.00  0.00     0.153 S 
HETATM   15  O3  UNL     1      19.003   3.652  52.046  1.00  0.00    -0.230 OA
BRANCH  14  16
HETATM   16  C9  UNL     1      19.021   0.957  51.986  1.00  0.00     0.052 A 
HETATM   17  C10 UNL     1      19.753   0.348  52.994  1.00  0.00     0.024 A 
HETATM   18  C11 UNL     1      19.348  -0.858  53.555  1.00  0.00     0.025 A 
HETATM   19  C12 UNL     1      18.177  -1.418  53.053  1.00  0.00     0.034 A 
HETATM   20 CL1  UNL     1      17.616  -2.938  53.720  1.00  0.00    -0.084 Cl
HETATM   21  C13 UNL     1      17.454  -0.805  52.050  1.00  0.00     0.025 A 
HETATM   22  C14 UNL     1      17.856   0.388  51.496  1.00  0.00     0.024 A 
ENDBRANCH  14  16
ENDBRANCH   3  14
TORSDOF 5
ENDMDL
