MODEL 1
REMARK VINA RESULT:      -9.0      0.000      0.000
REMARK  4 active torsions:
REMARK  status: ('A' for Active; 'I' for Inactive)
REMARK    1  A    between atoms: C2_2  and  C3_3 
REMARK       I    between atoms: C3_3  and  N1_5 
REMARK    2  A    between atoms: N1_5  and  C4_6 
REMARK    3  A    between atoms: C13_16  and  N2_17 
REMARK    4  A    between atoms: C21_27  and  O2_28 
ROOT
HETATM    1  C4  UNL     1      22.481   3.080  50.337  1.00  0.00     0.174 C 
HETATM    2  C5  UNL     1      22.388   1.630  50.747  1.00  0.00    -0.028 C 
HETATM    3  C6  UNL     1      23.566   1.287  51.401  1.00  0.00     0.021 C 
HETATM    4  C7  UNL     1      23.678   0.450  52.638  1.00  0.00    -0.024 A 
HETATM    5  C8  UNL     1      25.010   0.378  53.072  1.00  0.00     0.012 A 
HETATM    6  C9  UNL     1      25.275  -0.351  54.203  1.00  0.00     0.004 A 
HETATM    7  C10 UNL     1      24.262  -0.990  54.887  1.00  0.00     0.043 A 
HETATM    8  C11 UNL     1      22.947  -0.956  54.513  1.00  0.00     0.126 A 
HETATM    9  F1  UNL     1      21.985  -1.588  55.194  1.00  0.00    -0.205 F 
HETATM   10  C12 UNL     1      22.700  -0.228  53.388  1.00  0.00     0.028 A 
HETATM   11  C13 UNL     1      21.193  -0.308  53.129  1.00  0.00     0.286 C 
HETATM   12  C14 UNL     1      20.915   0.424  51.920  1.00  0.00    -0.009 C 
HETATM   13  C15 UNL     1      21.420   0.472  50.648  1.00  0.00     0.017 C 
HETATM   14  C16 UNL     1      19.857   1.350  52.246  1.00  0.00     0.119 A 
HETATM   15  C17 UNL     1      20.815   2.234  52.406  1.00  0.00     0.070 A 
HETATM   16  C18 UNL     1      19.785   3.083  52.074  1.00  0.00     0.114 A 
HETATM   17  N3  UNL     1      18.447   3.074  51.757  1.00  0.00    -0.265 NA
HETATM   18  C19 UNL     1      17.816   1.845  51.717  1.00  0.00     0.223 A 
HETATM   19  N4  UNL     1      18.705   0.780  52.017  1.00  0.00    -0.264 NA
HETATM   20  C20 UNL     1      20.473   4.377  51.731  1.00  0.00     0.044 C 
HETATM   21  C21 UNL     1      21.581   4.034  50.988  1.00  0.00     0.071 C 
ENDROOT
BRANCH   1  22
HETATM   22  N1  UNL     1      23.888   3.496  50.529  1.00  0.00    -0.343 N 
HETATM   23  C3  UNL     1      24.590   4.217  49.487  1.00  0.00     0.241 C 
HETATM   24  O1  UNL     1      23.897   4.440  48.446  1.00  0.00    -0.269 OA
HETATM   25  H4  UNL     1      24.225   3.192  51.469  1.00  0.00     0.163 HD
BRANCH  23  26
HETATM   26  C2  UNL     1      25.966   4.561  49.815  1.00  0.00     0.064 C 
HETATM   27  C1  UNL     1      27.043   4.460  49.055  1.00  0.00     0.017 C 
ENDBRANCH  23  26
ENDBRANCH   1  22
BRANCH  21  28
HETATM   28  O2  UNL     1      21.880   5.364  50.876  1.00  0.00    -0.358 OA
HETATM   29  C22 UNL     1      21.311   6.390  50.168  1.00  0.00     0.209 C 
ENDBRANCH  21  28
BRANCH  11  30
HETATM   30  N2  UNL     1      20.507   0.099  54.299  1.00  0.00     0.091 N 
HETATM   31  H11 UNL     1      20.654   1.081  54.598  1.00  0.00     0.314 HD
HETATM   32  H12 UNL     1      19.481  -0.067  54.238  1.00  0.00     0.314 HD
ENDBRANCH  11  30
TORSDOF 4
ENDMDL
MODEL 2
REMARK VINA RESULT:      -8.8      1.980      2.671
REMARK  4 active torsions:
REMARK  status: ('A' for Active; 'I' for Inactive)
REMARK    1  A    between atoms: C2_2  and  C3_3 
REMARK       I    between atoms: C3_3  and  N1_5 
REMARK    2  A    between atoms: N1_5  and  C4_6 
REMARK    3  A    between atoms: C13_16  and  N2_17 
REMARK    4  A    between atoms: C21_27  and  O2_28 
ROOT
HETATM    1  C4  UNL     1      24.092   3.190  50.924  1.00  0.00     0.174 C 
HETATM    2  C5  UNL     1      23.244   1.944  50.835  1.00  0.00    -0.028 C 
HETATM    3  C6  UNL     1      23.590   1.105  51.888  1.00  0.00     0.021 C 
HETATM    4  C7  UNL     1      22.644   0.317  52.739  1.00  0.00    -0.024 A 
HETATM    5  C8  UNL     1      23.330  -0.352  53.763  1.00  0.00     0.012 A 
HETATM    6  C9  UNL     1      22.596  -1.114  54.634  1.00  0.00     0.004 A 
HETATM    7  C10 UNL     1      21.226  -1.217  54.503  1.00  0.00     0.043 A 
HETATM    8  C11 UNL     1      20.503  -0.590  53.528  1.00  0.00     0.126 A 
HETATM    9  F1  UNL     1      19.175  -0.709  53.423  1.00  0.00    -0.205 F 
HETATM   10  C12 UNL     1      21.247   0.164  52.670  1.00  0.00     0.028 A 
HETATM   11  C13 UNL     1      20.274   0.779  51.660  1.00  0.00     0.286 C 
HETATM   12  C14 UNL     1      21.046   1.550  50.720  1.00  0.00    -0.009 C 
HETATM   13  C15 UNL     1      22.164   1.355  49.954  1.00  0.00     0.017 C 
HETATM   14  C16 UNL     1      20.438   2.858  50.679  1.00  0.00     0.119 A 
HETATM   15  C17 UNL     1      21.372   3.209  51.534  1.00  0.00     0.070 A 
HETATM   16  C18 UNL     1      21.135   4.432  50.951  1.00  0.00     0.114 A 
HETATM   17  N3  UNL     1      20.346   5.032  49.998  1.00  0.00    -0.265 NA
HETATM   18  C19 UNL     1      19.450   4.226  49.322  1.00  0.00     0.223 A 
HETATM   19  N4  UNL     1      19.522   2.875  49.750  1.00  0.00    -0.264 NA
HETATM   20  C20 UNL     1      22.318   5.269  51.361  1.00  0.00     0.044 C 
HETATM   21  C21 UNL     1      23.422   4.453  51.238  1.00  0.00     0.071 C 
ENDROOT
BRANCH   1  22
HETATM   22  N1  UNL     1      25.157   2.919  51.915  1.00  0.00    -0.343 N 
HETATM   23  C3  UNL     1      26.515   2.661  51.483  1.00  0.00     0.241 C 
HETATM   24  O1  UNL     1      26.679   2.692  50.224  1.00  0.00    -0.269 OA
HETATM   25  H4  UNL     1      24.762   2.951  52.881  1.00  0.00     0.163 HD
BRANCH  23  26
HETATM   26  C2  UNL     1      27.456   2.412  52.566  1.00  0.00     0.064 C 
HETATM   27  C1  UNL     1      27.278   1.699  53.664  1.00  0.00     0.017 C 
ENDBRANCH  23  26
ENDBRANCH   1  22
BRANCH  21  28
HETATM   28  O2  UNL     1      24.203   5.500  51.646  1.00  0.00    -0.358 OA
HETATM   29  C22 UNL     1      24.463   6.732  51.106  1.00  0.00     0.209 C 
ENDBRANCH  21  28
BRANCH  11  30
HETATM   30  N2  UNL     1      19.253   1.461  52.367  1.00  0.00     0.091 N 
HETATM   31  H11 UNL     1      18.300   1.405  51.961  1.00  0.00     0.314 HD
HETATM   32  H12 UNL     1      19.194   1.167  53.364  1.00  0.00     0.314 HD
ENDBRANCH  11  30
TORSDOF 4
ENDMDL
MODEL 3
REMARK VINA RESULT:      -8.7      6.892     10.311
REMARK  4 active torsions:
REMARK  status: ('A' for Active; 'I' for Inactive)
REMARK    1  A    between atoms: C2_2  and  C3_3 
REMARK       I    between atoms: C3_3  and  N1_5 
REMARK    2  A    between atoms: N1_5  and  C4_6 
REMARK    3  A    between atoms: C13_16  and  N2_17 
REMARK    4  A    between atoms: C21_27  and  O2_28 
ROOT
HETATM    1  C4  UNL     1      30.715   7.030  47.592  1.00  0.00     0.174 C 
HETATM    2  C5  UNL     1      29.216   7.106  47.428  1.00  0.00    -0.028 C 
HETATM    3  C6  UNL     1      28.670   5.898  47.846  1.00  0.00     0.021 C 
HETATM    4  C7  UNL     1      27.431   5.725  48.668  1.00  0.00    -0.024 A 
HETATM    5  C8  UNL     1      27.222   4.373  48.977  1.00  0.00     0.012 A 
HETATM    6  C9  UNL     1      26.125   4.053  49.735  1.00  0.00     0.004 A 
HETATM    7  C10 UNL     1      25.258   5.031  50.175  1.00  0.00     0.043 A 
HETATM    8  C11 UNL     1      25.409   6.363  49.905  1.00  0.00     0.126 A 
HETATM    9  F1  UNL     1      24.551   7.291  50.343  1.00  0.00    -0.205 F 
HETATM   10  C12 UNL     1      26.503   6.665  49.152  1.00  0.00     0.028 A 
HETATM   11  C13 UNL     1      26.502   8.184  48.956  1.00  0.00     0.286 C 
HETATM   12  C14 UNL     1      27.632   8.521  48.129  1.00  0.00    -0.009 C 
HETATM   13  C15 UNL     1      28.165   8.083  46.946  1.00  0.00     0.017 C 
HETATM   14  C16 UNL     1      28.349   9.558  48.831  1.00  0.00     0.119 A 
HETATM   15  C17 UNL     1      29.123   8.590  49.266  1.00  0.00     0.070 A 
HETATM   16  C18 UNL     1      30.017   9.634  49.331  1.00  0.00     0.114 A 
HETATM   17  N3  UNL     1      30.106  10.986  49.099  1.00  0.00    -0.265 NA
HETATM   18  C19 UNL     1      28.972  11.622  48.629  1.00  0.00     0.223 A 
HETATM   19  N4  UNL     1      27.888  10.722  48.460  1.00  0.00    -0.264 NA
HETATM   20  C20 UNL     1      31.356   8.961  49.469  1.00  0.00     0.044 C 
HETATM   21  C21 UNL     1      31.337   7.893  48.598  1.00  0.00     0.071 C 
ENDROOT
BRANCH   1  22
HETATM   22  N1  UNL     1      31.050   5.614  47.858  1.00  0.00    -0.343 N 
HETATM   23  C3  UNL     1      31.984   4.908  47.006  1.00  0.00     0.241 C 
HETATM   24  O1  UNL     1      32.457   5.605  46.055  1.00  0.00    -0.269 OA
HETATM   25  H4  UNL     1      30.528   5.275  48.696  1.00  0.00     0.163 HD
BRANCH  23  26
HETATM   26  C2  UNL     1      32.219   3.522  47.387  1.00  0.00     0.064 C 
HETATM   27  C1  UNL     1      32.426   2.477  46.606  1.00  0.00     0.017 C 
ENDBRANCH  23  26
ENDBRANCH   1  22
BRANCH  21  28
HETATM   28  O2  UNL     1      32.616   7.596  48.983  1.00  0.00    -0.358 OA
HETATM   29  C22 UNL     1      33.843   7.930  48.473  1.00  0.00     0.209 C 
ENDBRANCH  21  28
BRANCH  11  30
HETATM   30  N2  UNL     1      26.426   8.807  50.225  1.00  0.00     0.091 N 
HETATM   31  H11 UNL     1      25.479   8.878  50.644  1.00  0.00     0.314 HD
HETATM   32  H12 UNL     1      27.053   8.362  50.927  1.00  0.00     0.314 HD
ENDBRANCH  11  30
TORSDOF 4
ENDMDL
MODEL 4
REMARK VINA RESULT:      -8.5      2.395      5.079
REMARK  4 active torsions:
REMARK  status: ('A' for Active; 'I' for Inactive)
REMARK    1  A    between atoms: C2_2  and  C3_3 
REMARK       I    between atoms: C3_3  and  N1_5 
REMARK    2  A    between atoms: N1_5  and  C4_6 
REMARK    3  A    between atoms: C13_16  and  N2_17 
REMARK    4  A    between atoms: C21_27  and  O2_28 
ROOT
HETATM    1  C4  UNL     1      24.607   4.621  50.705  1.00  0.00     0.174 C 
HETATM    2  C5  UNL     1      23.890   3.935  51.843  1.00  0.00    -0.028 C 
HETATM    3  C6  UNL     1      22.667   3.474  51.371  1.00  0.00     0.021 C 
HETATM    4  C7  UNL     1      22.042   2.148  51.680  1.00  0.00    -0.024 A 
HETATM    5  C8  UNL     1      20.847   1.981  50.966  1.00  0.00     0.012 A 
HETATM    6  C9  UNL     1      20.158   0.808  51.139  1.00  0.00     0.004 A 
HETATM    7  C10 UNL     1      20.629  -0.172  51.988  1.00  0.00     0.043 A 
HETATM    8  C11 UNL     1      21.785  -0.066  52.710  1.00  0.00     0.126 A 
HETATM    9  F1  UNL     1      22.217  -1.030  53.529  1.00  0.00    -0.205 F 
HETATM   10  C12 UNL     1      22.458   1.105  52.528  1.00  0.00     0.028 A 
HETATM   11  C13 UNL     1      23.709   1.040  53.408  1.00  0.00     0.286 C 
HETATM   12  C14 UNL     1      24.416   2.286  53.260  1.00  0.00    -0.009 C 
HETATM   13  C15 UNL     1      24.105   3.619  53.307  1.00  0.00     0.017 C 
HETATM   14  C16 UNL     1      25.778   1.939  52.931  1.00  0.00     0.119 A 
HETATM   15  C17 UNL     1      25.423   2.142  51.682  1.00  0.00     0.070 A 
HETATM   16  C18 UNL     1      26.767   2.417  51.578  1.00  0.00     0.114 A 
HETATM   17  N3  UNL     1      27.916   2.455  52.331  1.00  0.00    -0.265 NA
HETATM   18  C19 UNL     1      27.803   2.136  53.672  1.00  0.00     0.223 A 
HETATM   19  N4  UNL     1      26.467   1.823  54.034  1.00  0.00    -0.264 NA
HETATM   20  C20 UNL     1      26.894   3.128  50.257  1.00  0.00     0.044 C 
HETATM   21  C21 UNL     1      25.827   3.997  50.190  1.00  0.00     0.071 C 
ENDROOT
BRANCH   1  22
HETATM   22  N1  UNL     1      23.623   4.794  49.614  1.00  0.00    -0.343 N 
HETATM   23  C3  UNL     1      23.371   6.105  49.053  1.00  0.00     0.241 C 
HETATM   24  O1  UNL     1      24.054   7.039  49.575  1.00  0.00    -0.269 OA
HETATM   25  H4  UNL     1      23.200   3.872  49.366  1.00  0.00     0.163 HD
BRANCH  23  26
HETATM   26  C2  UNL     1      22.379   6.124  47.986  1.00  0.00     0.064 C 
HETATM   27  C1  UNL     1      22.055   5.157  47.145  1.00  0.00     0.017 C 
ENDBRANCH  23  26
ENDBRANCH   1  22
BRANCH  21  28
HETATM   28  O2  UNL     1      26.285   4.415  48.970  1.00  0.00    -0.358 OA
HETATM   29  C22 UNL     1      27.402   5.107  48.582  1.00  0.00     0.209 C 
ENDBRANCH  21  28
BRANCH  11  30
HETATM   30  N2  UNL     1      24.422  -0.144  53.102  1.00  0.00     0.091 N 
HETATM   31  H11 UNL     1      24.409  -0.887  53.825  1.00  0.00     0.314 HD
HETATM   32  H12 UNL     1      24.119  -0.570  52.201  1.00  0.00     0.314 HD
ENDBRANCH  11  30
TORSDOF 4
ENDMDL
MODEL 5
REMARK VINA RESULT:      -8.4      2.472      5.303
REMARK  4 active torsions:
REMARK  status: ('A' for Active; 'I' for Inactive)
REMARK    1  A    between atoms: C2_2  and  C3_3 
REMARK       I    between atoms: C3_3  and  N1_5 
REMARK    2  A    between atoms: N1_5  and  C4_6 
REMARK    3  A    between atoms: C13_16  and  N2_17 
REMARK    4  A    between atoms: C21_27  and  O2_28 
ROOT
HETATM    1  C4  UNL     1      21.249   2.629  51.129  1.00  0.00     0.174 C 
HETATM    2  C5  UNL     1      22.483   2.796  51.982  1.00  0.00    -0.028 C 
HETATM    3  C6  UNL     1      22.757   1.578  52.594  1.00  0.00     0.021 C 
HETATM    4  C7  UNL     1      24.108   0.956  52.762  1.00  0.00    -0.024 A 
HETATM    5  C8  UNL     1      24.005  -0.314  53.347  1.00  0.00     0.012 A 
HETATM    6  C9  UNL     1      25.163  -1.016  53.561  1.00  0.00     0.004 A 
HETATM    7  C10 UNL     1      26.387  -0.486  53.211  1.00  0.00     0.043 A 
HETATM    8  C11 UNL     1      26.551   0.745  52.640  1.00  0.00     0.126 A 
HETATM    9  F1  UNL     1      27.752   1.236  52.313  1.00  0.00    -0.205 F 
HETATM   10  C12 UNL     1      25.392   1.430  52.433  1.00  0.00     0.028 A 
HETATM   11  C13 UNL     1      25.773   2.769  51.795  1.00  0.00     0.286 C 
HETATM   12  C14 UNL     1      24.563   3.526  51.604  1.00  0.00    -0.009 C 
HETATM   13  C15 UNL     1      23.476   3.872  52.362  1.00  0.00     0.017 C 
HETATM   14  C16 UNL     1      24.563   3.940  50.222  1.00  0.00     0.119 A 
HETATM   15  C17 UNL     1      23.789   2.899  50.013  1.00  0.00     0.070 A 
HETATM   16  C18 UNL     1      23.371   3.696  48.973  1.00  0.00     0.114 A 
HETATM   17  N3  UNL     1      23.610   4.921  48.397  1.00  0.00    -0.265 NA
HETATM   18  C19 UNL     1      24.574   5.718  48.985  1.00  0.00     0.223 A 
HETATM   19  N4  UNL     1      25.155   5.099  50.123  1.00  0.00    -0.264 NA
HETATM   20  C20 UNL     1      22.079   3.066  48.525  1.00  0.00     0.044 C 
HETATM   21  C21 UNL     1      21.404   2.723  49.676  1.00  0.00     0.071 C 
ENDROOT
BRANCH   1  22
HETATM   22  N1  UNL     1      20.642   1.330  51.493  1.00  0.00    -0.343 N 
HETATM   23  C3  UNL     1      19.243   1.250  51.859  1.00  0.00     0.241 C 
HETATM   24  O1  UNL     1      18.630   2.361  51.834  1.00  0.00    -0.269 OA
HETATM   25  H4  UNL     1      21.358   0.573  51.435  1.00  0.00     0.163 HD
BRANCH  23  26
HETATM   26  C2  UNL     1      18.783  -0.091  52.192  1.00  0.00     0.064 C 
HETATM   27  C1  UNL     1      19.125  -0.847  53.221  1.00  0.00     0.017 C 
ENDBRANCH  23  26
ENDBRANCH   1  22
BRANCH  21  28
HETATM   28  O2  UNL     1      20.382   2.250  48.899  1.00  0.00    -0.358 OA
HETATM   29  C22 UNL     1      19.287   2.849  48.334  1.00  0.00     0.209 C 
ENDBRANCH  21  28
BRANCH  11  30
HETATM   30  N2  UNL     1      26.563   2.518  50.647  1.00  0.00     0.091 N 
HETATM   31  H11 UNL     1      27.418   1.948  50.794  1.00  0.00     0.314 HD
HETATM   32  H12 UNL     1      26.017   2.081  49.875  1.00  0.00     0.314 HD
ENDBRANCH  11  30
TORSDOF 4
ENDMDL
MODEL 6
REMARK VINA RESULT:      -8.0      2.985      5.591
REMARK  4 active torsions:
REMARK  status: ('A' for Active; 'I' for Inactive)
REMARK    1  A    between atoms: C2_2  and  C3_3 
REMARK       I    between atoms: C3_3  and  N1_5 
REMARK    2  A    between atoms: N1_5  and  C4_6 
REMARK    3  A    between atoms: C13_16  and  N2_17 
REMARK    4  A    between atoms: C21_27  and  O2_28 
ROOT
HETATM    1  C4  UNL     1      20.985   1.859  52.538  1.00  0.00     0.174 C 
HETATM    2  C5  UNL     1      21.939   3.010  52.330  1.00  0.00    -0.028 C 
HETATM    3  C6  UNL     1      23.234   2.504  52.309  1.00  0.00     0.021 C 
HETATM    4  C7  UNL     1      24.328   2.912  51.372  1.00  0.00    -0.024 A 
HETATM    5  C8  UNL     1      25.478   2.135  51.578  1.00  0.00     0.012 A 
HETATM    6  C9  UNL     1      26.569   2.386  50.787  1.00  0.00     0.004 A 
HETATM    7  C10 UNL     1      26.534   3.371  49.823  1.00  0.00     0.043 A 
HETATM    8  C11 UNL     1      25.444   4.160  49.576  1.00  0.00     0.126 A 
HETATM    9  F1  UNL     1      25.438   5.110  48.635  1.00  0.00    -0.205 F 
HETATM   10  C12 UNL     1      24.368   3.898  50.370  1.00  0.00     0.028 A 
HETATM   11  C13 UNL     1      23.260   4.870  49.951  1.00  0.00     0.286 C 
HETATM   12  C14 UNL     1      22.124   4.636  50.805  1.00  0.00    -0.009 C 
HETATM   13  C15 UNL     1      21.900   4.512  52.150  1.00  0.00     0.017 C 
HETATM   14  C16 UNL     1      20.994   4.448  49.928  1.00  0.00     0.119 A 
HETATM   15  C17 UNL     1      21.212   3.162  50.085  1.00  0.00     0.070 A 
HETATM   16  C18 UNL     1      19.864   3.126  49.814  1.00  0.00     0.114 A 
HETATM   17  N3  UNL     1      18.807   3.953  49.512  1.00  0.00    -0.265 NA
HETATM   18  C19 UNL     1      19.068   5.309  49.438  1.00  0.00     0.223 A 
HETATM   19  N4  UNL     1      20.431   5.604  49.704  1.00  0.00    -0.264 NA
HETATM   20  C20 UNL     1      19.440   1.748  50.245  1.00  0.00     0.044 C 
HETATM   21  C21 UNL     1      20.088   1.506  51.437  1.00  0.00     0.071 C 
ENDROOT
BRANCH   1  22
HETATM   22  N1  UNL     1      21.799   0.686  52.927  1.00  0.00    -0.343 N 
HETATM   23  C3  UNL     1      21.534  -0.014  54.166  1.00  0.00     0.241 C 
HETATM   24  O1  UNL     1      20.575   0.467  54.846  1.00  0.00    -0.269 OA
HETATM   25  H4  UNL     1      22.521   0.496  52.198  1.00  0.00     0.163 HD
BRANCH  23  26
HETATM   26  C2  UNL     1      22.412  -1.148  54.419  1.00  0.00     0.064 C 
HETATM   27  C1  UNL     1      23.191  -1.371  55.463  1.00  0.00     0.017 C 
ENDBRANCH  23  26
ENDBRANCH   1  22
BRANCH  21  28
HETATM   28  O2  UNL     1      19.474   0.284  51.487  1.00  0.00    -0.358 OA
HETATM   29  C22 UNL     1      18.194  -0.126  51.218  1.00  0.00     0.209 C 
ENDBRANCH  21  28
BRANCH  11  30
HETATM   30  N2  UNL     1      23.051   4.749  48.556  1.00  0.00     0.091 N 
HETATM   31  H11 UNL     1      22.889   3.789  48.198  1.00  0.00     0.314 HD
HETATM   32  H12 UNL     1      22.274   5.353  48.215  1.00  0.00     0.314 HD
ENDBRANCH  11  30
TORSDOF 4
ENDMDL
MODEL 7
REMARK VINA RESULT:      -7.6      2.123      5.164
REMARK  4 active torsions:
REMARK  status: ('A' for Active; 'I' for Inactive)
REMARK    1  A    between atoms: C2_2  and  C3_3 
REMARK       I    between atoms: C3_3  and  N1_5 
REMARK    2  A    between atoms: N1_5  and  C4_6 
REMARK    3  A    between atoms: C13_16  and  N2_17 
REMARK    4  A    between atoms: C21_27  and  O2_28 
ROOT
HETATM    1  C4  UNL     1      19.764   3.538  50.864  1.00  0.00     0.174 C 
HETATM    2  C5  UNL     1      20.753   3.314  51.983  1.00  0.00    -0.028 C 
HETATM    3  C6  UNL     1      20.355   2.189  52.696  1.00  0.00     0.021 C 
HETATM    4  C7  UNL     1      21.252   1.108  53.214  1.00  0.00    -0.024 A 
HETATM    5  C8  UNL     1      20.505   0.082  53.811  1.00  0.00     0.012 A 
HETATM    6  C9  UNL     1      21.187  -0.988  54.330  1.00  0.00     0.004 A 
HETATM    7  C10 UNL     1      22.563  -1.049  54.265  1.00  0.00     0.043 A 
HETATM    8  C11 UNL     1      23.345  -0.082  53.697  1.00  0.00     0.126 A 
HETATM    9  F1  UNL     1      24.679  -0.166  53.649  1.00  0.00    -0.205 F 
HETATM   10  C12 UNL     1      22.652   0.974  53.186  1.00  0.00     0.028 A 
HETATM   11  C13 UNL     1      23.685   1.942  52.601  1.00  0.00     0.286 C 
HETATM   12  C14 UNL     1      22.975   3.086  52.089  1.00  0.00    -0.009 C 
HETATM   13  C15 UNL     1      22.009   3.943  52.544  1.00  0.00     0.017 C 
HETATM   14  C16 UNL     1      23.429   3.266  50.731  1.00  0.00     0.119 A 
HETATM   15  C17 UNL     1      22.347   2.604  50.387  1.00  0.00     0.070 A 
HETATM   16  C18 UNL     1      22.525   3.346  49.243  1.00  0.00     0.114 A 
HETATM   17  N3  UNL     1      23.371   4.278  48.689  1.00  0.00    -0.265 NA
HETATM   18  C19 UNL     1      24.442   4.695  49.458  1.00  0.00     0.223 A 
HETATM   19  N4  UNL     1      24.463   4.062  50.728  1.00  0.00    -0.264 NA
HETATM   20  C20 UNL     1      21.208   3.231  48.523  1.00  0.00     0.044 C 
HETATM   21  C21 UNL     1      20.234   3.356  49.490  1.00  0.00     0.071 C 
ENDROOT
BRANCH   1  22
HETATM   22  N1  UNL     1      18.605   2.657  51.127  1.00  0.00    -0.343 N 
HETATM   23  C3  UNL     1      17.275   3.214  51.258  1.00  0.00     0.241 C 
HETATM   24  O1  UNL     1      17.219   4.477  51.129  1.00  0.00    -0.269 OA
HETATM   25  H4  UNL     1      18.919   1.664  51.189  1.00  0.00     0.163 HD
BRANCH  23  26
HETATM   26  C2  UNL     1      16.232   2.231  51.514  1.00  0.00     0.064 C 
HETATM   27  C1  UNL     1      15.597   1.459  50.649  1.00  0.00     0.017 C 
ENDBRANCH  23  26
ENDBRANCH   1  22
BRANCH  21  28
HETATM   28  O2  UNL     1      19.288   3.227  48.509  1.00  0.00    -0.358 OA
HETATM   29  C22 UNL     1      19.371   3.102  47.147  1.00  0.00     0.209 C 
ENDBRANCH  21  28
BRANCH  11  30
HETATM   30  N2  UNL     1      24.508   1.236  51.690  1.00  0.00     0.091 N 
HETATM   31  H11 UNL     1      24.365   0.209  51.646  1.00  0.00     0.314 HD
HETATM   32  H12 UNL     1      24.443   1.609  50.721  1.00  0.00     0.314 HD
ENDBRANCH  11  30
TORSDOF 4
ENDMDL
MODEL 8
REMARK VINA RESULT:      -7.6      9.523     12.981
REMARK  4 active torsions:
REMARK  status: ('A' for Active; 'I' for Inactive)
REMARK    1  A    between atoms: C2_2  and  C3_3 
REMARK       I    between atoms: C3_3  and  N1_5 
REMARK    2  A    between atoms: N1_5  and  C4_6 
REMARK    3  A    between atoms: C13_16  and  N2_17 
REMARK    4  A    between atoms: C21_27  and  O2_28 
ROOT
HETATM    1  C4  UNL     1      33.364   5.473  46.914  1.00  0.00     0.174 C 
HETATM    2  C5  UNL     1      32.128   6.209  46.458  1.00  0.00    -0.028 C 
HETATM    3  C6  UNL     1      31.016   5.555  46.976  1.00  0.00     0.021 C 
HETATM    4  C7  UNL     1      29.803   6.204  47.566  1.00  0.00    -0.024 A 
HETATM    5  C8  UNL     1      28.916   5.242  48.069  1.00  0.00     0.012 A 
HETATM    6  C9  UNL     1      27.755   5.684  48.651  1.00  0.00     0.004 A 
HETATM    7  C10 UNL     1      27.473   7.031  48.734  1.00  0.00     0.043 A 
HETATM    8  C11 UNL     1      28.298   8.015  48.262  1.00  0.00     0.126 A 
HETATM    9  F1  UNL     1      27.999   9.315  48.355  1.00  0.00    -0.205 F 
HETATM   10  C12 UNL     1      29.447   7.560  47.688  1.00  0.00     0.028 A 
HETATM   11  C13 UNL     1      30.230   8.792  47.224  1.00  0.00     0.286 C 
HETATM   12  C14 UNL     1      31.432   8.331  46.579  1.00  0.00    -0.009 C 
HETATM   13  C15 UNL     1      31.755   7.411  45.618  1.00  0.00     0.017 C 
HETATM   14  C16 UNL     1      32.521   9.041  47.205  1.00  0.00     0.119 A 
HETATM   15  C17 UNL     1      32.664   7.966  47.947  1.00  0.00     0.070 A 
HETATM   16  C18 UNL     1      33.955   8.437  47.990  1.00  0.00     0.114 A 
HETATM   17  N3  UNL     1      34.734   9.476  47.539  1.00  0.00    -0.265 NA
HETATM   18  C19 UNL     1      34.117  10.433  46.755  1.00  0.00     0.223 A 
HETATM   19  N4  UNL     1      32.742  10.148  46.550  1.00  0.00    -0.264 NA
HETATM   20  C20 UNL     1      34.755   7.267  48.499  1.00  0.00     0.044 C 
HETATM   21  C21 UNL     1      34.262   6.157  47.847  1.00  0.00     0.071 C 
ENDROOT
BRANCH   1  22
HETATM   22  N1  UNL     1      32.916   4.186  47.491  1.00  0.00    -0.343 N 
HETATM   23  C3  UNL     1      33.441   2.934  46.988  1.00  0.00     0.241 C 
HETATM   24  O1  UNL     1      34.285   3.059  46.048  1.00  0.00    -0.269 OA
HETATM   25  H4  UNL     1      32.219   4.359  48.249  1.00  0.00     0.163 HD
BRANCH  23  26
HETATM   26  C2  UNL     1      32.911   1.750  47.649  1.00  0.00     0.064 C 
HETATM   27  C1  UNL     1      33.244   1.243  48.824  1.00  0.00     0.017 C 
ENDBRANCH  23  26
ENDBRANCH   1  22
BRANCH  21  28
HETATM   28  O2  UNL     1      35.182   5.395  48.514  1.00  0.00    -0.358 OA
HETATM   29  C22 UNL     1      35.853   5.570  49.696  1.00  0.00     0.209 C 
ENDBRANCH  21  28
BRANCH  11  30
HETATM   30  N2  UNL     1      30.386   9.673  48.322  1.00  0.00     0.091 N 
HETATM   31  H11 UNL     1      30.922  10.542  48.140  1.00  0.00     0.314 HD
HETATM   32  H12 UNL     1      29.476   9.943  48.750  1.00  0.00     0.314 HD
ENDBRANCH  11  30
TORSDOF 4
ENDMDL
MODEL 9
REMARK VINA RESULT:      -7.3      7.944     12.552
REMARK  4 active torsions:
REMARK  status: ('A' for Active; 'I' for Inactive)
REMARK    1  A    between atoms: C2_2  and  C3_3 
REMARK       I    between atoms: C3_3  and  N1_5 
REMARK    2  A    between atoms: N1_5  and  C4_6 
REMARK    3  A    between atoms: C13_16  and  N2_17 
REMARK    4  A    between atoms: C21_27  and  O2_28 
ROOT
HETATM    1  C4  UNL     1      29.611   8.171  48.231  1.00  0.00     0.174 C 
HETATM    2  C5  UNL     1      30.948   7.506  48.454  1.00  0.00    -0.028 C 
HETATM    3  C6  UNL     1      30.810   6.150  48.178  1.00  0.00     0.021 C 
HETATM    4  C7  UNL     1      31.787   5.296  47.432  1.00  0.00    -0.024 A 
HETATM    5  C8  UNL     1      31.287   3.996  47.263  1.00  0.00     0.012 A 
HETATM    6  C9  UNL     1      32.068   3.093  46.589  1.00  0.00     0.004 A 
HETATM    7  C10 UNL     1      33.305   3.455  46.096  1.00  0.00     0.043 A 
HETATM    8  C11 UNL     1      33.844   4.704  46.229  1.00  0.00     0.126 A 
HETATM    9  F1  UNL     1      35.047   5.028  45.743  1.00  0.00    -0.205 F 
HETATM   10  C12 UNL     1      33.056   5.590  46.901  1.00  0.00     0.028 A 
HETATM   11  C13 UNL     1      33.821   6.916  46.951  1.00  0.00     0.286 C 
HETATM   12  C14 UNL     1      33.020   7.857  47.691  1.00  0.00    -0.009 C 
HETATM   13  C15 UNL     1      32.351   7.871  48.886  1.00  0.00     0.017 C 
HETATM   14  C16 UNL     1      32.913   9.033  46.862  1.00  0.00     0.119 A 
HETATM   15  C17 UNL     1      31.754   8.542  46.487  1.00  0.00     0.070 A 
HETATM   16  C18 UNL     1      31.503   9.879  46.284  1.00  0.00     0.114 A 
HETATM   17  N3  UNL     1      32.106  11.111  46.381  1.00  0.00    -0.265 NA
HETATM   18  C19 UNL     1      33.410  11.141  46.838  1.00  0.00     0.223 A 
HETATM   19  N4  UNL     1      33.899   9.843  47.139  1.00  0.00    -0.264 NA
HETATM   20  C20 UNL     1      30.005   9.955  46.152  1.00  0.00     0.044 C 
HETATM   21  C21 UNL     1      29.496   9.118  47.121  1.00  0.00     0.071 C 
ENDROOT
BRANCH   1  22
HETATM   22  N1  UNL     1      28.608   7.093  48.088  1.00  0.00    -0.343 N 
HETATM   23  C3  UNL     1      27.380   7.126  48.853  1.00  0.00     0.241 C 
HETATM   24  O1  UNL     1      27.267   8.132  49.621  1.00  0.00    -0.269 OA
HETATM   25  H4  UNL     1      28.941   6.387  47.395  1.00  0.00     0.163 HD
BRANCH  23  26
HETATM   26  C2  UNL     1      26.487   6.002  48.610  1.00  0.00     0.064 C 
HETATM   27  C1  UNL     1      26.612   4.749  49.011  1.00  0.00     0.017 C 
ENDBRANCH  23  26
ENDBRANCH   1  22
BRANCH  21  28
HETATM   28  O2  UNL     1      28.236   9.461  46.710  1.00  0.00    -0.358 OA
HETATM   29  C22 UNL     1      27.416  10.518  47.007  1.00  0.00     0.209 C 
ENDBRANCH  21  28
BRANCH  11  30
HETATM   30  N2  UNL     1      34.187   7.281  45.632  1.00  0.00     0.091 N 
HETATM   31  H11 UNL     1      35.190   7.178  45.390  1.00  0.00     0.314 HD
HETATM   32  H12 UNL     1      33.631   6.777  44.910  1.00  0.00     0.314 HD
ENDBRANCH  11  30
TORSDOF 4
ENDMDL
