MODEL 1
REMARK VINA RESULT:      -7.5      0.000      0.000
REMARK  8 active torsions:
REMARK  status: ('A' for Active; 'I' for Inactive)
REMARK    1  A    between atoms: O1_2  and  C2_3 
REMARK    2  A    between atoms: C2_3  and  C3_4 
REMARK    3  A    between atoms: C3_4  and  O2_5 
REMARK    4  A    between atoms: O2_5  and  C4_6 
REMARK    5  A    between atoms: C5_7  and  O3_8 
REMARK    6  A    between atoms: O3_8  and  C6_9 
REMARK    7  A    between atoms: C6_9  and  C7_10 
REMARK    8  A    between atoms: C7_10  and  O4_11 
ROOT
HETATM    1  C4  UNL     1      25.665   3.032  50.919  1.00  0.00     0.099 C 
HETATM    2  C5  UNL     1      24.385   2.513  50.606  1.00  0.00     0.090 C 
HETATM    3  C9  UNL     1      24.443   1.463  51.505  1.00  0.00     0.152 C 
HETATM    4  C10 UNL     1      23.899   0.708  52.472  1.00  0.00    -0.139 C 
HETATM    5  C11 UNL     1      23.471   0.090  53.272  1.00  0.00     0.014 A 
HETATM    6  C12 UNL     1      22.979  -0.650  54.246  1.00  0.00    -0.040 A 
HETATM    7  C13 UNL     1      21.755  -1.048  54.884  1.00  0.00     0.047 C 
HETATM    8  C14 UNL     1      24.274  -0.886  54.408  1.00  0.00     0.154 A 
HETATM    9  N1  UNL     1      25.407  -0.419  53.703  1.00  0.00    -0.361 N 
HETATM   10  C15 UNL     1      26.502   0.495  53.568  1.00  0.00     0.133 A 
HETATM   11  N2  UNL     1      27.022  -0.157  54.483  1.00  0.00    -0.225 NA
HETATM   12  C16 UNL     1      28.307   0.197  54.967  1.00  0.00     0.229 A 
HETATM   13  N3  UNL     1      28.839   1.192  54.392  1.00  0.00    -0.278 NA
HETATM   14  C17 UNL     1      28.400   2.033  53.346  1.00  0.00     0.192 A 
HETATM   15  C18 UNL     1      27.035   1.658  52.871  1.00  0.00     0.010 A 
HETATM   16  C19 UNL     1      26.714   2.571  51.914  1.00  0.00     0.052 C 
HETATM   17  H21 UNL     1      25.233  -1.209  53.002  1.00  0.00     0.162 HD
ENDROOT
BRANCH   1  18
HETATM   18  O2  UNL     1      25.837   4.097  50.133  1.00  0.00    -0.346 OA
BRANCH  18  19
HETATM   19  C3  UNL     1      26.947   4.359  49.286  1.00  0.00     0.201 C 
BRANCH  19  20
HETATM   20  C2  UNL     1      26.781   5.780  48.816  1.00  0.00     0.193 C 
BRANCH  20  21
HETATM   21  O1  UNL     1      27.863   6.236  48.115  1.00  0.00    -0.394 OA
HETATM   22  C1  UNL     1      29.013   5.507  48.277  1.00  0.00     0.201 C 
ENDBRANCH  20  21
ENDBRANCH  19  20
ENDBRANCH  18  19
ENDBRANCH   1  18
BRANCH   2  23
HETATM   23  O3  UNL     1      23.762   3.232  49.654  1.00  0.00    -0.350 OA
BRANCH  23  24
HETATM   24  C6  UNL     1      22.463   3.115  49.161  1.00  0.00     0.201 C 
BRANCH  24  25
HETATM   25  C7  UNL     1      22.539   2.171  47.966  1.00  0.00     0.193 C 
BRANCH  25  26
HETATM   26  O4  UNL     1      21.647   1.121  48.046  1.00  0.00    -0.394 OA
HETATM   27  C8  UNL     1      21.218   1.048  49.370  1.00  0.00     0.201 C 
ENDBRANCH  25  26
ENDBRANCH  24  25
ENDBRANCH  23  24
ENDBRANCH   2  23
TORSDOF 8
ENDMDL
MODEL 2
REMARK VINA RESULT:      -7.3      1.640      5.080
REMARK  8 active torsions:
REMARK  status: ('A' for Active; 'I' for Inactive)
REMARK    1  A    between atoms: O1_2  and  C2_3 
REMARK    2  A    between atoms: C2_3  and  C3_4 
REMARK    3  A    between atoms: C3_4  and  O2_5 
REMARK    4  A    between atoms: O2_5  and  C4_6 
REMARK    5  A    between atoms: C5_7  and  O3_8 
REMARK    6  A    between atoms: O3_8  and  C6_9 
REMARK    7  A    between atoms: C6_9  and  C7_10 
REMARK    8  A    between atoms: C7_10  and  O4_11 
ROOT
HETATM    1  C4  UNL     1      24.301   2.107  51.162  1.00  0.00     0.099 C 
HETATM    2  C5  UNL     1      25.600   2.636  50.961  1.00  0.00     0.090 C 
HETATM    3  C9  UNL     1      26.176   1.988  52.039  1.00  0.00     0.152 C 
HETATM    4  C10 UNL     1      27.163   1.262  52.587  1.00  0.00    -0.139 C 
HETATM    5  C11 UNL     1      27.956   0.657  53.045  1.00  0.00     0.014 A 
HETATM    6  C12 UNL     1      28.892  -0.084  53.605  1.00  0.00    -0.040 A 
HETATM    7  C13 UNL     1      30.257  -0.510  53.472  1.00  0.00     0.047 C 
HETATM    8  C14 UNL     1      27.889  -0.302  54.446  1.00  0.00     0.154 A 
HETATM    9  N1  UNL     1      26.561   0.181  54.466  1.00  0.00    -0.361 N 
HETATM   10  C15 UNL     1      25.170   0.017  54.167  1.00  0.00     0.133 A 
HETATM   11  N2  UNL     1      25.167  -0.775  55.119  1.00  0.00    -0.225 NA
HETATM   12  C16 UNL     1      23.969  -1.436  55.492  1.00  0.00     0.229 A 
HETATM   13  N3  UNL     1      22.956  -1.141  54.790  1.00  0.00    -0.278 NA
HETATM   14  C17 UNL     1      22.780  -0.272  53.692  1.00  0.00     0.192 A 
HETATM   15  C18 UNL     1      24.060   0.392  53.301  1.00  0.00     0.010 A 
HETATM   16  C19 UNL     1      23.764   1.149  52.210  1.00  0.00     0.052 C 
HETATM   17  H21 UNL     1      26.939   1.051  54.961  1.00  0.00     0.162 HD
ENDROOT
BRANCH   1  18
HETATM   18  O2  UNL     1      23.536   2.622  50.197  1.00  0.00    -0.346 OA
BRANCH  18  19
HETATM   19  C3  UNL     1      22.130   2.819  50.241  1.00  0.00     0.201 C 
BRANCH  19  20
HETATM   20  C2  UNL     1      21.920   4.140  50.932  1.00  0.00     0.193 C 
BRANCH  20  21
HETATM   21  O1  UNL     1      21.432   4.002  52.202  1.00  0.00    -0.394 OA
HETATM   22  C1  UNL     1      20.524   2.989  52.372  1.00  0.00     0.201 C 
ENDBRANCH  20  21
ENDBRANCH  19  20
ENDBRANCH  18  19
ENDBRANCH   1  18
BRANCH   2  23
HETATM   23  O3  UNL     1      25.656   3.459  49.897  1.00  0.00    -0.350 OA
BRANCH  23  24
HETATM   24  C6  UNL     1      26.765   4.041  49.284  1.00  0.00     0.201 C 
BRANCH  24  25
HETATM   25  C7  UNL     1      26.438   5.521  49.119  1.00  0.00     0.193 C 
BRANCH  25  26
HETATM   26  O4  UNL     1      25.577   5.998  50.087  1.00  0.00    -0.394 OA
HETATM   27  C8  UNL     1      25.756   7.379  50.150  1.00  0.00     0.201 C 
ENDBRANCH  25  26
ENDBRANCH  24  25
ENDBRANCH  23  24
ENDBRANCH   2  23
TORSDOF 8
ENDMDL
MODEL 3
REMARK VINA RESULT:      -7.2      3.662      7.665
REMARK  8 active torsions:
REMARK  status: ('A' for Active; 'I' for Inactive)
REMARK    1  A    between atoms: O1_2  and  C2_3 
REMARK    2  A    between atoms: C2_3  and  C3_4 
REMARK    3  A    between atoms: C3_4  and  O2_5 
REMARK    4  A    between atoms: O2_5  and  C4_6 
REMARK    5  A    between atoms: C5_7  and  O3_8 
REMARK    6  A    between atoms: O3_8  and  C6_9 
REMARK    7  A    between atoms: C6_9  and  C7_10 
REMARK    8  A    between atoms: C7_10  and  O4_11 
ROOT
HETATM    1  C4  UNL     1      24.394   2.047  52.289  1.00  0.00     0.099 C 
HETATM    2  C5  UNL     1      25.516   1.525  51.599  1.00  0.00     0.090 C 
HETATM    3  C9  UNL     1      25.589   2.546  50.670  1.00  0.00     0.152 C 
HETATM    4  C10 UNL     1      26.285   3.456  49.971  1.00  0.00    -0.139 C 
HETATM    5  C11 UNL     1      26.840   4.214  49.403  1.00  0.00     0.014 A 
HETATM    6  C12 UNL     1      27.490   5.141  48.726  1.00  0.00    -0.040 A 
HETATM    7  C13 UNL     1      28.793   5.532  48.269  1.00  0.00     0.047 C 
HETATM    8  C14 UNL     1      26.256   5.623  48.654  1.00  0.00     0.154 A 
HETATM    9  N1  UNL     1      25.029   5.139  49.163  1.00  0.00    -0.361 N 
HETATM   10  C15 UNL     1      24.012   5.134  50.172  1.00  0.00     0.133 A 
HETATM   11  N2  UNL     1      23.675   6.222  49.688  1.00  0.00    -0.225 NA
HETATM   12  C16 UNL     1      22.577   6.934  50.234  1.00  0.00     0.229 A 
HETATM   13  N3  UNL     1      22.005   6.366  51.212  1.00  0.00    -0.278 NA
HETATM   14  C17 UNL     1      22.248   5.145  51.877  1.00  0.00     0.192 A 
HETATM   15  C18 UNL     1      23.424   4.426  51.302  1.00  0.00     0.010 A 
HETATM   16  C19 UNL     1      23.580   3.308  52.061  1.00  0.00     0.052 C 
HETATM   17  H21 UNL     1      24.966   4.529  48.286  1.00  0.00     0.162 HD
ENDROOT
BRANCH   1  18
HETATM   18  O2  UNL     1      24.127   1.185  53.272  1.00  0.00    -0.346 OA
BRANCH  18  19
HETATM   19  C3  UNL     1      22.916   0.470  53.470  1.00  0.00     0.201 C 
BRANCH  19  20
HETATM   20  C2  UNL     1      23.298  -0.797  54.188  1.00  0.00     0.193 C 
BRANCH  20  21
HETATM   21  O1  UNL     1      22.263  -1.335  54.902  1.00  0.00    -0.394 OA
HETATM   22  C1  UNL     1      21.044  -1.307  54.275  1.00  0.00     0.201 C 
ENDBRANCH  20  21
ENDBRANCH  19  20
ENDBRANCH  18  19
ENDBRANCH   1  18
BRANCH   2  23
HETATM   23  O3  UNL     1      25.950   0.367  52.134  1.00  0.00    -0.350 OA
BRANCH  23  24
HETATM   24  C6  UNL     1      27.234   0.001  52.532  1.00  0.00     0.201 C 
BRANCH  24  25
HETATM   25  C7  UNL     1      27.873   1.250  53.129  1.00  0.00     0.193 C 
BRANCH  25  26
HETATM   26  O4  UNL     1      27.873   1.253  54.509  1.00  0.00    -0.394 OA
HETATM   27  C8  UNL     1      28.586   0.129  54.921  1.00  0.00     0.201 C 
ENDBRANCH  25  26
ENDBRANCH  24  25
ENDBRANCH  23  24
ENDBRANCH   2  23
TORSDOF 8
ENDMDL
MODEL 4
REMARK VINA RESULT:      -6.8      3.663      5.804
REMARK  8 active torsions:
REMARK  status: ('A' for Active; 'I' for Inactive)
REMARK    1  A    between atoms: O1_2  and  C2_3 
REMARK    2  A    between atoms: C2_3  and  C3_4 
REMARK    3  A    between atoms: C3_4  and  O2_5 
REMARK    4  A    between atoms: O2_5  and  C4_6 
REMARK    5  A    between atoms: C5_7  and  O3_8 
REMARK    6  A    between atoms: O3_8  and  C6_9 
REMARK    7  A    between atoms: C6_9  and  C7_10 
REMARK    8  A    between atoms: C7_10  and  O4_11 
ROOT
HETATM    1  C4  UNL     1      25.178   1.078  52.325  1.00  0.00     0.099 C 
HETATM    2  C5  UNL     1      23.951   0.981  53.027  1.00  0.00     0.090 C 
HETATM    3  C9  UNL     1      23.427   2.167  52.545  1.00  0.00     0.152 C 
HETATM    4  C10 UNL     1      22.424   2.881  52.012  1.00  0.00    -0.139 C 
HETATM    5  C11 UNL     1      21.616   3.475  51.564  1.00  0.00     0.014 A 
HETATM    6  C12 UNL     1      20.662   4.197  51.009  1.00  0.00    -0.040 A 
HETATM    7  C13 UNL     1      19.246   4.254  50.783  1.00  0.00     0.047 C 
HETATM    8  C14 UNL     1      21.721   4.935  50.701  1.00  0.00     0.154 A 
HETATM    9  N1  UNL     1      23.096   4.765  50.981  1.00  0.00    -0.361 N 
HETATM   10  C15 UNL     1      24.403   4.327  50.593  1.00  0.00     0.133 A 
HETATM   11  N2  UNL     1      24.413   5.335  49.875  1.00  0.00    -0.225 NA
HETATM   12  C16 UNL     1      25.544   5.626  49.070  1.00  0.00     0.229 A 
HETATM   13  N3  UNL     1      26.493   4.792  49.163  1.00  0.00    -0.278 NA
HETATM   14  C17 UNL     1      26.653   3.612  49.921  1.00  0.00     0.192 A 
HETATM   15  C18 UNL     1      25.439   3.313  50.740  1.00  0.00     0.010 A 
HETATM   16  C19 UNL     1      25.701   2.136  51.370  1.00  0.00     0.052 C 
HETATM   17  H21 UNL     1      22.907   5.225  51.930  1.00  0.00     0.162 HD
ENDROOT
BRANCH   1  18
HETATM   18  O2  UNL     1      25.883  -0.007  52.655  1.00  0.00    -0.346 OA
BRANCH  18  19
HETATM   19  C3  UNL     1      27.266  -0.058  52.972  1.00  0.00     0.201 C 
BRANCH  19  20
HETATM   20  C2  UNL     1      27.380   0.411  54.398  1.00  0.00     0.193 C 
BRANCH  20  21
HETATM   21  O1  UNL     1      28.437   1.255  54.595  1.00  0.00    -0.394 OA
HETATM   22  C1  UNL     1      28.590   2.232  53.646  1.00  0.00     0.201 C 
ENDBRANCH  20  21
ENDBRANCH  19  20
ENDBRANCH  18  19
ENDBRANCH   1  18
BRANCH   2  23
HETATM   23  O3  UNL     1      23.879  -0.136  53.775  1.00  0.00    -0.350 OA
BRANCH  23  24
HETATM   24  C6  UNL     1      22.923  -1.150  53.765  1.00  0.00     0.201 C 
BRANCH  24  25
HETATM   25  C7  UNL     1      22.006  -0.890  54.955  1.00  0.00     0.193 C 
BRANCH  25  26
HETATM   26  O4  UNL     1      21.139   0.165  54.751  1.00  0.00    -0.394 OA
HETATM   27  C8  UNL     1      20.311  -0.186  53.685  1.00  0.00     0.201 C 
ENDBRANCH  25  26
ENDBRANCH  24  25
ENDBRANCH  23  24
ENDBRANCH   2  23
TORSDOF 8
ENDMDL
MODEL 5
REMARK VINA RESULT:      -6.7      2.688      5.520
REMARK  8 active torsions:
REMARK  status: ('A' for Active; 'I' for Inactive)
REMARK    1  A    between atoms: O1_2  and  C2_3 
REMARK    2  A    between atoms: C2_3  and  C3_4 
REMARK    3  A    between atoms: C3_4  and  O2_5 
REMARK    4  A    between atoms: O2_5  and  C4_6 
REMARK    5  A    between atoms: C5_7  and  O3_8 
REMARK    6  A    between atoms: O3_8  and  C6_9 
REMARK    7  A    between atoms: C6_9  and  C7_10 
REMARK    8  A    between atoms: C7_10  and  O4_11 
ROOT
HETATM    1  C4  UNL     1      25.212   1.541  52.487  1.00  0.00     0.099 C 
HETATM    2  C5  UNL     1      24.849   2.367  51.395  1.00  0.00     0.090 C 
HETATM    3  C9  UNL     1      23.536   1.936  51.333  1.00  0.00     0.152 C 
HETATM    4  C10 UNL     1      22.220   2.179  51.233  1.00  0.00    -0.139 C 
HETATM    5  C11 UNL     1      21.139   2.363  51.165  1.00  0.00     0.014 A 
HETATM    6  C12 UNL     1      19.838   2.569  51.102  1.00  0.00    -0.040 A 
HETATM    7  C13 UNL     1      18.842   3.529  50.719  1.00  0.00     0.047 C 
HETATM    8  C14 UNL     1      19.856   1.352  51.628  1.00  0.00     0.154 A 
HETATM    9  N1  UNL     1      20.926   0.494  51.974  1.00  0.00    -0.361 N 
HETATM   10  C15 UNL     1      21.830  -0.041  52.947  1.00  0.00     0.133 A 
HETATM   11  N2  UNL     1      20.850  -0.683  53.350  1.00  0.00    -0.225 NA
HETATM   12  C16 UNL     1      20.982  -1.568  54.449  1.00  0.00     0.229 A 
HETATM   13  N3  UNL     1      22.146  -1.635  54.945  1.00  0.00    -0.278 NA
HETATM   14  C17 UNL     1      23.359  -0.992  54.614  1.00  0.00     0.192 A 
HETATM   15  C18 UNL     1      23.189  -0.045  53.471  1.00  0.00     0.010 A 
HETATM   16  C19 UNL     1      24.404   0.541  53.295  1.00  0.00     0.052 C 
HETATM   17  H21 UNL     1      20.935   0.178  50.951  1.00  0.00     0.162 HD
ENDROOT
BRANCH   1  18
HETATM   18  O2  UNL     1      26.499   1.794  52.733  1.00  0.00    -0.346 OA
BRANCH  18  19
HETATM   19  C3  UNL     1      27.561   0.851  52.759  1.00  0.00     0.201 C 
BRANCH  19  20
HETATM   20  C2  UNL     1      27.921   0.675  54.210  1.00  0.00     0.193 C 
BRANCH  20  21
HETATM   21  O1  UNL     1      28.404  -0.573  54.489  1.00  0.00    -0.394 OA
HETATM   22  C1  UNL     1      29.553  -0.917  53.825  1.00  0.00     0.201 C 
ENDBRANCH  20  21
ENDBRANCH  19  20
ENDBRANCH  18  19
ENDBRANCH   1  18
BRANCH   2  23
HETATM   23  O3  UNL     1      25.876   3.124  50.965  1.00  0.00    -0.350 OA
BRANCH  23  24
HETATM   24  C6  UNL     1      26.462   3.189  49.702  1.00  0.00     0.201 C 
BRANCH  24  25
HETATM   25  C7  UNL     1      26.526   4.667  49.332  1.00  0.00     0.193 C 
BRANCH  25  26
HETATM   26  O4  UNL     1      25.633   5.444  50.043  1.00  0.00    -0.394 OA
HETATM   27  C8  UNL     1      25.877   6.771  49.693  1.00  0.00     0.201 C 
ENDBRANCH  25  26
ENDBRANCH  24  25
ENDBRANCH  23  24
ENDBRANCH   2  23
TORSDOF 8
ENDMDL
MODEL 6
REMARK VINA RESULT:      -6.6      2.377      5.504
REMARK  8 active torsions:
REMARK  status: ('A' for Active; 'I' for Inactive)
REMARK    1  A    between atoms: O1_2  and  C2_3 
REMARK    2  A    between atoms: C2_3  and  C3_4 
REMARK    3  A    between atoms: C3_4  and  O2_5 
REMARK    4  A    between atoms: O2_5  and  C4_6 
REMARK    5  A    between atoms: C5_7  and  O3_8 
REMARK    6  A    between atoms: O3_8  and  C6_9 
REMARK    7  A    between atoms: C6_9  and  C7_10 
REMARK    8  A    between atoms: C7_10  and  O4_11 
ROOT
HETATM    1  C4  UNL     1      21.751   3.470  51.917  1.00  0.00     0.099 C 
HETATM    2  C5  UNL     1      23.105   3.884  51.928  1.00  0.00     0.090 C 
HETATM    3  C9  UNL     1      23.585   2.754  52.564  1.00  0.00     0.152 C 
HETATM    4  C10 UNL     1      24.472   1.753  52.678  1.00  0.00    -0.139 C 
HETATM    5  C11 UNL     1      25.182   0.921  52.775  1.00  0.00     0.014 A 
HETATM    6  C12 UNL     1      26.016  -0.094  52.895  1.00  0.00    -0.040 A 
HETATM    7  C13 UNL     1      27.322  -0.559  52.526  1.00  0.00     0.047 C 
HETATM    8  C14 UNL     1      24.982  -0.560  53.583  1.00  0.00     0.154 A 
HETATM    9  N1  UNL     1      23.719   0.004  53.877  1.00  0.00    -0.361 N 
HETATM   10  C15 UNL     1      22.323   0.151  53.593  1.00  0.00     0.133 A 
HETATM   11  N2  UNL     1      22.213  -0.984  54.076  1.00  0.00    -0.225 NA
HETATM   12  C16 UNL     1      20.940  -1.604  54.154  1.00  0.00     0.229 A 
HETATM   13  N3  UNL     1      19.979  -0.910  53.707  1.00  0.00    -0.278 NA
HETATM   14  C17 UNL     1      19.923   0.381  53.137  1.00  0.00     0.192 A 
HETATM   15  C18 UNL     1      21.277   1.003  53.042  1.00  0.00     0.010 A 
HETATM   16  C19 UNL     1      21.089   2.205  52.432  1.00  0.00     0.052 C 
HETATM   17  H21 UNL     1      24.190   0.501  54.700  1.00  0.00     0.162 HD
ENDROOT
BRANCH   1  18
HETATM   18  O2  UNL     1      21.066   4.453  51.327  1.00  0.00    -0.346 OA
BRANCH  18  19
HETATM   19  C3  UNL     1      19.963   4.308  50.444  1.00  0.00     0.201 C 
BRANCH  19  20
HETATM   20  C2  UNL     1      20.551   3.936  49.108  1.00  0.00     0.193 C 
BRANCH  20  21
HETATM   21  O1  UNL     1      20.081   2.742  48.637  1.00  0.00    -0.394 OA
HETATM   22  C1  UNL     1      20.965   1.697  48.709  1.00  0.00     0.201 C 
ENDBRANCH  20  21
ENDBRANCH  19  20
ENDBRANCH  18  19
ENDBRANCH   1  18
BRANCH   2  23
HETATM   23  O3  UNL     1      23.274   5.092  51.357  1.00  0.00    -0.350 OA
BRANCH  23  24
HETATM   24  C6  UNL     1      24.398   5.627  50.730  1.00  0.00     0.201 C 
BRANCH  24  25
HETATM   25  C7  UNL     1      24.934   4.540  49.805  1.00  0.00     0.193 C 
BRANCH  25  26
HETATM   26  O4  UNL     1      26.172   4.063  50.187  1.00  0.00    -0.394 OA
HETATM   27  C8  UNL     1      27.040   4.276  49.118  1.00  0.00     0.201 C 
ENDBRANCH  25  26
ENDBRANCH  24  25
ENDBRANCH  23  24
ENDBRANCH   2  23
TORSDOF 8
ENDMDL
MODEL 7
REMARK VINA RESULT:      -6.5      1.290      1.346
REMARK  8 active torsions:
REMARK  status: ('A' for Active; 'I' for Inactive)
REMARK    1  A    between atoms: O1_2  and  C2_3 
REMARK    2  A    between atoms: C2_3  and  C3_4 
REMARK    3  A    between atoms: C3_4  and  O2_5 
REMARK    4  A    between atoms: O2_5  and  C4_6 
REMARK    5  A    between atoms: C5_7  and  O3_8 
REMARK    6  A    between atoms: O3_8  and  C6_9 
REMARK    7  A    between atoms: C6_9  and  C7_10 
REMARK    8  A    between atoms: C7_10  and  O4_11 
ROOT
HETATM    1  C4  UNL     1      24.961   3.115  50.224  1.00  0.00     0.099 C 
HETATM    2  C5  UNL     1      23.619   2.730  49.980  1.00  0.00     0.090 C 
HETATM    3  C9  UNL     1      23.589   1.735  50.941  1.00  0.00     0.152 C 
HETATM    4  C10 UNL     1      22.996   1.106  51.967  1.00  0.00    -0.139 C 
HETATM    5  C11 UNL     1      22.529   0.590  52.816  1.00  0.00     0.014 A 
HETATM    6  C12 UNL     1      21.989  -0.030  53.848  1.00  0.00    -0.040 A 
HETATM    7  C13 UNL     1      20.751  -0.245  54.543  1.00  0.00     0.047 C 
HETATM    8  C14 UNL     1      23.254  -0.405  53.987  1.00  0.00     0.154 A 
HETATM    9  N1  UNL     1      24.408  -0.114  53.224  1.00  0.00    -0.361 N 
HETATM   10  C15 UNL     1      25.594   0.657  53.002  1.00  0.00     0.133 A 
HETATM   11  N2  UNL     1      26.068   0.005  53.941  1.00  0.00    -0.225 NA
HETATM   12  C16 UNL     1      27.401   0.235  54.366  1.00  0.00     0.229 A 
HETATM   13  N3  UNL     1      28.023   1.126  53.716  1.00  0.00    -0.278 NA
HETATM   14  C17 UNL     1      27.647   1.950  52.632  1.00  0.00     0.192 A 
HETATM   15  C18 UNL     1      26.232   1.708  52.219  1.00  0.00     0.010 A 
HETATM   16  C19 UNL     1      25.984   2.594  51.217  1.00  0.00     0.052 C 
HETATM   17  H21 UNL     1      24.120  -0.918  52.578  1.00  0.00     0.162 HD
ENDROOT
BRANCH   1  18
HETATM   18  O2  UNL     1      25.225   4.105  49.369  1.00  0.00    -0.346 OA
BRANCH  18  19
HETATM   19  C3  UNL     1      26.151   5.165  49.556  1.00  0.00     0.201 C 
BRANCH  19  20
HETATM   20  C2  UNL     1      27.352   4.818  48.717  1.00  0.00     0.193 C 
BRANCH  20  21
HETATM   21  O1  UNL     1      28.061   5.919  48.325  1.00  0.00    -0.394 OA
HETATM   22  C1  UNL     1      29.403   5.714  48.139  1.00  0.00     0.201 C 
ENDBRANCH  20  21
ENDBRANCH  19  20
ENDBRANCH  18  19
ENDBRANCH   1  18
BRANCH   2  23
HETATM   23  O3  UNL     1      23.049   3.459  49.002  1.00  0.00    -0.350 OA
BRANCH  23  24
HETATM   24  C6  UNL     1      21.728   3.881  48.866  1.00  0.00     0.201 C 
BRANCH  24  25
HETATM   25  C7  UNL     1      20.916   2.643  48.499  1.00  0.00     0.193 C 
BRANCH  25  26
HETATM   26  O4  UNL     1      20.148   2.815  47.365  1.00  0.00    -0.394 OA
HETATM   27  C8  UNL     1      18.867   3.167  47.788  1.00  0.00     0.201 C 
ENDBRANCH  25  26
ENDBRANCH  24  25
ENDBRANCH  23  24
ENDBRANCH   2  23
TORSDOF 8
ENDMDL
MODEL 8
REMARK VINA RESULT:      -6.5      3.691      7.619
REMARK  8 active torsions:
REMARK  status: ('A' for Active; 'I' for Inactive)
REMARK    1  A    between atoms: O1_2  and  C2_3 
REMARK    2  A    between atoms: C2_3  and  C3_4 
REMARK    3  A    between atoms: C3_4  and  O2_5 
REMARK    4  A    between atoms: O2_5  and  C4_6 
REMARK    5  A    between atoms: C5_7  and  O3_8 
REMARK    6  A    between atoms: O3_8  and  C6_9 
REMARK    7  A    between atoms: C6_9  and  C7_10 
REMARK    8  A    between atoms: C7_10  and  O4_11 
ROOT
HETATM    1  C4  UNL     1      25.005   2.105  52.219  1.00  0.00     0.099 C 
HETATM    2  C5  UNL     1      26.314   2.337  51.730  1.00  0.00     0.090 C 
HETATM    3  C9  UNL     1      25.924   3.174  50.700  1.00  0.00     0.152 C 
HETATM    4  C10 UNL     1      26.057   4.299  49.982  1.00  0.00    -0.139 C 
HETATM    5  C11 UNL     1      26.146   5.223  49.394  1.00  0.00     0.014 A 
HETATM    6  C12 UNL     1      26.229   6.335  48.690  1.00  0.00    -0.040 A 
HETATM    7  C13 UNL     1      27.109   7.414  48.341  1.00  0.00     0.047 C 
HETATM    8  C14 UNL     1      24.979   5.982  48.421  1.00  0.00     0.154 A 
HETATM    9  N1  UNL     1      24.206   4.875  48.840  1.00  0.00    -0.361 N 
HETATM   10  C15 UNL     1      23.238   4.291  49.719  1.00  0.00     0.133 A 
HETATM   11  N2  UNL     1      22.411   4.948  49.073  1.00  0.00    -0.225 NA
HETATM   12  C16 UNL     1      21.033   4.878  49.401  1.00  0.00     0.229 A 
HETATM   13  N3  UNL     1      20.753   4.108  50.367  1.00  0.00    -0.278 NA
HETATM   14  C17 UNL     1      21.553   3.293  51.198  1.00  0.00     0.192 A 
HETATM   15  C18 UNL     1      23.001   3.405  50.851  1.00  0.00     0.010 A 
HETATM   16  C19 UNL     1      23.657   2.622  51.751  1.00  0.00     0.052 C 
HETATM   17  H21 UNL     1      24.657   4.323  48.040  1.00  0.00     0.162 HD
ENDROOT
BRANCH   1  18
HETATM   18  O2  UNL     1      25.138   1.281  53.262  1.00  0.00    -0.346 OA
BRANCH  18  19
HETATM   19  C3  UNL     1      24.640  -0.044  53.367  1.00  0.00     0.201 C 
BRANCH  19  20
HETATM   20  C2  UNL     1      25.454  -0.707  54.446  1.00  0.00     0.193 C 
BRANCH  20  21
HETATM   21  O1  UNL     1      26.471  -1.473  53.948  1.00  0.00    -0.394 OA
HETATM   22  C1  UNL     1      26.476  -1.623  52.585  1.00  0.00     0.201 C 
ENDBRANCH  20  21
ENDBRANCH  19  20
ENDBRANCH  18  19
ENDBRANCH   1  18
BRANCH   2  23
HETATM   23  O3  UNL     1      27.249   1.684  52.445  1.00  0.00    -0.350 OA
BRANCH  23  24
HETATM   24  C6  UNL     1      28.301   2.193  53.204  1.00  0.00     0.201 C 
BRANCH  24  25
HETATM   25  C7  UNL     1      28.854   1.024  54.013  1.00  0.00     0.193 C 
BRANCH  25  26
HETATM   26  O4  UNL     1      29.973   0.452  53.444  1.00  0.00    -0.394 OA
HETATM   27  C8  UNL     1      29.911  -0.916  53.705  1.00  0.00     0.201 C 
ENDBRANCH  25  26
ENDBRANCH  24  25
ENDBRANCH  23  24
ENDBRANCH   2  23
TORSDOF 8
ENDMDL
MODEL 9
REMARK VINA RESULT:      -6.5      5.706      8.966
REMARK  8 active torsions:
REMARK  status: ('A' for Active; 'I' for Inactive)
REMARK    1  A    between atoms: O1_2  and  C2_3 
REMARK    2  A    between atoms: C2_3  and  C3_4 
REMARK    3  A    between atoms: C3_4  and  O2_5 
REMARK    4  A    between atoms: O2_5  and  C4_6 
REMARK    5  A    between atoms: C5_7  and  O3_8 
REMARK    6  A    between atoms: O3_8  and  C6_9 
REMARK    7  A    between atoms: C6_9  and  C7_10 
REMARK    8  A    between atoms: C7_10  and  O4_11 
ROOT
HETATM    1  C4  UNL     1      30.598   6.948  47.183  1.00  0.00     0.099 C 
HETATM    2  C5  UNL     1      30.553   5.587  47.576  1.00  0.00     0.090 C 
HETATM    3  C9  UNL     1      29.382   5.698  48.304  1.00  0.00     0.152 C 
HETATM    4  C10 UNL     1      28.161   5.258  48.645  1.00  0.00    -0.139 C 
HETATM    5  C11 UNL     1      27.155   4.917  48.923  1.00  0.00     0.014 A 
HETATM    6  C12 UNL     1      25.939   4.531  49.256  1.00  0.00    -0.040 A 
HETATM    7  C13 UNL     1      25.049   3.404  49.257  1.00  0.00     0.047 C 
HETATM    8  C14 UNL     1      25.886   5.805  49.622  1.00  0.00     0.154 A 
HETATM    9  N1  UNL     1      26.848   6.839  49.561  1.00  0.00    -0.361 N 
HETATM   10  C15 UNL     1      27.414   7.978  48.903  1.00  0.00     0.133 A 
HETATM   11  N2  UNL     1      26.418   8.582  49.320  1.00  0.00    -0.225 NA
HETATM   12  C16 UNL     1      26.249   9.960  49.032  1.00  0.00     0.229 A 
HETATM   13  N3  UNL     1      27.178  10.480  48.346  1.00  0.00    -0.278 NA
HETATM   14  C17 UNL     1      28.369   9.952  47.801  1.00  0.00     0.192 A 
HETATM   15  C18 UNL     1      28.511   8.494  48.095  1.00  0.00     0.010 A 
HETATM   16  C19 UNL     1      29.658   8.103  47.474  1.00  0.00     0.052 C 
HETATM   17  H21 UNL     1      27.230   6.467  50.490  1.00  0.00     0.162 HD
ENDROOT
BRANCH   1  18
HETATM   18  O2  UNL     1      31.699   7.085  46.440  1.00  0.00    -0.346 OA
BRANCH  18  19
HETATM   19  C3  UNL     1      32.635   8.151  46.496  1.00  0.00     0.201 C 
BRANCH  19  20
HETATM   20  C2  UNL     1      33.400   7.962  47.780  1.00  0.00     0.193 C 
BRANCH  20  21
HETATM   21  O1  UNL     1      34.307   6.942  47.710  1.00  0.00    -0.394 OA
HETATM   22  C1  UNL     1      35.428   7.103  48.482  1.00  0.00     0.201 C 
ENDBRANCH  20  21
ENDBRANCH  19  20
ENDBRANCH  18  19
ENDBRANCH   1  18
BRANCH   2  23
HETATM   23  O3  UNL     1      31.593   4.882  47.092  1.00  0.00    -0.350 OA
BRANCH  23  24
HETATM   24  C6  UNL     1      32.412   3.956  47.735  1.00  0.00     0.201 C 
BRANCH  24  25
HETATM   25  C7  UNL     1      32.910   3.000  46.657  1.00  0.00     0.193 C 
BRANCH  25  26
HETATM   26  O4  UNL     1      34.287   2.913  46.602  1.00  0.00    -0.394 OA
HETATM   27  C8  UNL     1      34.778   3.438  47.796  1.00  0.00     0.201 C 
ENDBRANCH  25  26
ENDBRANCH  24  25
ENDBRANCH  23  24
ENDBRANCH   2  23
TORSDOF 8
ENDMDL
