MODEL 1
REMARK VINA RESULT:      -9.2      0.000      0.000
REMARK  3 active torsions:
REMARK  status: ('A' for Active; 'I' for Inactive)
REMARK    1  A    between atoms: C7_7  and  N1_8 
REMARK    2  A    between atoms: N4_17  and  C13_18 
REMARK    3  A    between atoms: C16_21  and  O1_22 
ROOT
HETATM    1  N1  UNL     1      26.430   0.574  52.650  1.00  0.00    -0.294 N 
HETATM    2  C8  UNL     1      25.255  -0.068  53.163  1.00  0.00     0.178 C 
HETATM    3  C9  UNL     1      24.009   0.636  52.906  1.00  0.00     0.024 A 
HETATM    4  C10 UNL     1      22.964   0.027  53.610  1.00  0.00     0.132 A 
HETATM    5  N2  UNL     1      21.689   0.499  53.472  1.00  0.00    -0.230 NA
HETATM    6  C11 UNL     1      21.452   1.562  52.649  1.00  0.00     0.224 A 
HETATM    7 CL1  UNL     1      19.816   2.174  52.464  1.00  0.00    -0.041 Cl
HETATM    8  N3  UNL     1      22.472   2.132  51.984  1.00  0.00    -0.200 NA
HETATM    9  C12 UNL     1      23.719   1.699  52.095  1.00  0.00     0.146 A 
HETATM   10  N4  UNL     1      24.879   2.244  51.488  1.00  0.00    -0.278 N 
HETATM   11  C18 UNL     1      26.122   1.644  51.806  1.00  0.00     0.331 C 
HETATM   12  O2  UNL     1      27.025   2.235  51.176  1.00  0.00    -0.246 OA
ENDROOT
BRANCH   1  13
HETATM   13  C7  UNL     1      27.675   0.111  53.097  1.00  0.00     0.054 A 
HETATM   14  C2  UNL     1      28.046  -1.302  52.981  1.00  0.00    -0.018 A 
HETATM   15  C1  UNL     1      27.363  -2.347  52.543  1.00  0.00     0.026 C 
HETATM   16  C3  UNL     1      29.398  -1.553  53.426  1.00  0.00     0.013 A 
HETATM   17  C4  UNL     1      29.835  -0.369  53.796  1.00  0.00     0.010 A 
HETATM   18  C5  UNL     1      28.784   0.616  53.591  1.00  0.00    -0.034 A 
HETATM   19  C6  UNL     1      29.018   2.024  53.979  1.00  0.00     0.050 C 
ENDBRANCH   1  13
BRANCH  10  20
HETATM   20  C13 UNL     1      24.690   3.350  50.608  1.00  0.00     0.099 C 
HETATM   21  C14 UNL     1      23.899   3.104  49.388  1.00  0.00     0.028 C 
HETATM   22  C15 UNL     1      23.771   4.516  48.834  1.00  0.00     0.034 C 
HETATM   23  C16 UNL     1      23.251   5.208  50.101  1.00  0.00     0.120 C 
HETATM   24  C17 UNL     1      23.976   4.533  51.244  1.00  0.00     0.057 C 
BRANCH  23  25
HETATM   25  O1  UNL     1      21.878   4.993  50.260  1.00  0.00    -0.396 OA
HETATM   26  H17 UNL     1      21.354   5.206  49.428  1.00  0.00     0.210 HD
ENDBRANCH  23  25
ENDBRANCH  10  20
TORSDOF 3
ENDMDL
MODEL 2
REMARK VINA RESULT:      -8.9      1.282      2.063
REMARK  3 active torsions:
REMARK  status: ('A' for Active; 'I' for Inactive)
REMARK    1  A    between atoms: C7_7  and  N1_8 
REMARK    2  A    between atoms: N4_17  and  C13_18 
REMARK    3  A    between atoms: C16_21  and  O1_22 
ROOT
HETATM    1  N1  UNL     1      26.511  -0.049  52.969  1.00  0.00    -0.294 N 
HETATM    2  C8  UNL     1      25.590  -0.787  53.785  1.00  0.00     0.178 C 
HETATM    3  C9  UNL     1      24.211  -0.333  53.717  1.00  0.00     0.024 A 
HETATM    4  C10 UNL     1      23.446  -0.990  54.687  1.00  0.00     0.132 A 
HETATM    5  N2  UNL     1      22.102  -0.750  54.767  1.00  0.00    -0.230 NA
HETATM    6  C11 UNL     1      21.525   0.131  53.899  1.00  0.00     0.224 A 
HETATM    7 CL1  UNL     1      19.800   0.445  53.994  1.00  0.00    -0.041 Cl
HETATM    8  N3  UNL     1      22.282   0.752  52.977  1.00  0.00    -0.200 NA
HETATM    9  C12 UNL     1      23.585   0.542  52.873  1.00  0.00     0.146 A 
HETATM   10  N4  UNL     1      24.491   1.169  51.980  1.00  0.00    -0.278 N 
HETATM   11  C18 UNL     1      25.860   0.825  52.095  1.00  0.00     0.331 C 
HETATM   12  O2  UNL     1      26.505   1.453  51.229  1.00  0.00    -0.246 OA
ENDROOT
BRANCH   1  13
HETATM   13  C7  UNL     1      27.881  -0.240  53.194  1.00  0.00     0.054 A 
HETATM   14  C2  UNL     1      28.750   0.875  53.582  1.00  0.00    -0.018 A 
HETATM   15  C1  UNL     1      28.495   2.164  53.731  1.00  0.00     0.026 C 
HETATM   16  C3  UNL     1      30.107   0.449  53.841  1.00  0.00     0.013 A 
HETATM   17  C4  UNL     1      30.079  -0.848  53.625  1.00  0.00     0.010 A 
HETATM   18  C5  UNL     1      28.733  -1.240  53.237  1.00  0.00    -0.034 A 
HETATM   19  C6  UNL     1      28.456  -2.653  52.892  1.00  0.00     0.050 C 
ENDBRANCH   1  13
BRANCH  10  20
HETATM   20  C13 UNL     1      23.942   2.092  51.042  1.00  0.00     0.099 C 
HETATM   21  C14 UNL     1      22.725   1.668  50.324  1.00  0.00     0.028 C 
HETATM   22  C15 UNL     1      22.359   2.950  49.589  1.00  0.00     0.034 C 
HETATM   23  C16 UNL     1      22.391   3.911  50.784  1.00  0.00     0.120 C 
HETATM   24  C17 UNL     1      23.531   3.424  51.651  1.00  0.00     0.057 C 
BRANCH  23  25
HETATM   25  O1  UNL     1      21.207   3.830  51.524  1.00  0.00    -0.396 OA
HETATM   26  H17 UNL     1      21.005   4.679  52.025  1.00  0.00     0.210 HD
ENDBRANCH  23  25
ENDBRANCH  10  20
TORSDOF 3
ENDMDL
MODEL 3
REMARK VINA RESULT:      -8.8      1.946      3.514
REMARK  3 active torsions:
REMARK  status: ('A' for Active; 'I' for Inactive)
REMARK    1  A    between atoms: C7_7  and  N1_8 
REMARK    2  A    between atoms: N4_17  and  C13_18 
REMARK    3  A    between atoms: C16_21  and  O1_22 
ROOT
HETATM    1  N1  UNL     1      26.563   0.949  52.650  1.00  0.00    -0.294 N 
HETATM    2  C8  UNL     1      26.801   1.961  51.662  1.00  0.00     0.178 C 
HETATM    3  C9  UNL     1      25.610   2.456  50.993  1.00  0.00     0.024 A 
HETATM    4  C10 UNL     1      25.973   3.288  49.928  1.00  0.00     0.132 A 
HETATM    5  N2  UNL     1      25.002   3.906  49.190  1.00  0.00    -0.230 NA
HETATM    6  C11 UNL     1      23.689   3.702  49.501  1.00  0.00     0.224 A 
HETATM    7 CL1  UNL     1      22.437   4.493  48.558  1.00  0.00    -0.041 Cl
HETATM    8  N3  UNL     1      23.364   2.897  50.528  1.00  0.00    -0.200 NA
HETATM    9  C12 UNL     1      24.280   2.283  51.263  1.00  0.00     0.146 A 
HETATM   10  N4  UNL     1      24.062   1.378  52.333  1.00  0.00    -0.278 N 
HETATM   11  C18 UNL     1      25.204   0.796  52.934  1.00  0.00     0.331 C 
HETATM   12  O2  UNL     1      24.830   0.044  53.860  1.00  0.00    -0.246 OA
ENDROOT
BRANCH   1  13
HETATM   13  C7  UNL     1      27.668   0.230  53.128  1.00  0.00     0.054 A 
HETATM   14  C2  UNL     1      27.808  -1.206  52.872  1.00  0.00    -0.018 A 
HETATM   15  C1  UNL     1      27.004  -2.063  52.264  1.00  0.00     0.026 C 
HETATM   16  C3  UNL     1      29.052  -1.736  53.381  1.00  0.00     0.013 A 
HETATM   17  C4  UNL     1      29.644  -0.693  53.921  1.00  0.00     0.010 A 
HETATM   18  C5  UNL     1      28.794   0.477  53.759  1.00  0.00    -0.034 A 
HETATM   19  C6  UNL     1      29.222   1.774  54.329  1.00  0.00     0.050 C 
ENDBRANCH   1  13
BRANCH  10  20
HETATM   20  C13 UNL     1      22.708   1.134  52.709  1.00  0.00     0.099 C 
HETATM   21  C14 UNL     1      21.781   2.280  52.644  1.00  0.00     0.028 C 
HETATM   22  C15 UNL     1      20.451   1.596  52.927  1.00  0.00     0.034 C 
HETATM   23  C16 UNL     1      20.548   0.476  51.883  1.00  0.00     0.120 C 
HETATM   24  C17 UNL     1      22.009   0.083  51.861  1.00  0.00     0.057 C 
BRANCH  23  25
HETATM   25  O1  UNL     1      20.198   0.946  50.612  1.00  0.00    -0.396 OA
HETATM   26  H17 UNL     1      19.476   1.646  50.645  1.00  0.00     0.210 HD
ENDBRANCH  23  25
ENDBRANCH  10  20
TORSDOF 3
ENDMDL
MODEL 4
REMARK VINA RESULT:      -8.8      2.272      4.301
REMARK  3 active torsions:
REMARK  status: ('A' for Active; 'I' for Inactive)
REMARK    1  A    between atoms: C7_7  and  N1_8 
REMARK    2  A    between atoms: N4_17  and  C13_18 
REMARK    3  A    between atoms: C16_21  and  O1_22 
ROOT
HETATM    1  N1  UNL     1      26.223   0.757  52.617  1.00  0.00    -0.294 N 
HETATM    2  C8  UNL     1      26.263   1.839  51.676  1.00  0.00     0.178 C 
HETATM    3  C9  UNL     1      24.968   2.263  51.172  1.00  0.00     0.024 A 
HETATM    4  C10 UNL     1      25.140   3.181  50.130  1.00  0.00     0.132 A 
HETATM    5  N2  UNL     1      24.044   3.749  49.541  1.00  0.00    -0.230 NA
HETATM    6  C11 UNL     1      22.796   3.412  49.977  1.00  0.00     0.224 A 
HETATM    7 CL1  UNL     1      21.384   4.138  49.227  1.00  0.00    -0.041 Cl
HETATM    8  N3  UNL     1      22.656   2.526  50.979  1.00  0.00    -0.200 NA
HETATM    9  C12 UNL     1      23.695   1.957  51.571  1.00  0.00     0.146 A 
HETATM   10  N4  UNL     1      23.675   0.979  52.598  1.00  0.00    -0.278 N 
HETATM   11  C18 UNL     1      24.921   0.469  53.034  1.00  0.00     0.331 C 
HETATM   12  O2  UNL     1      24.717  -0.363  53.944  1.00  0.00    -0.246 OA
ENDROOT
BRANCH   1  13
HETATM   13  C7  UNL     1      27.430   0.115  52.926  1.00  0.00     0.054 A 
HETATM   14  C2  UNL     1      28.569   0.860  53.469  1.00  0.00    -0.018 A 
HETATM   15  C1  UNL     1      28.730   2.152  53.705  1.00  0.00     0.026 C 
HETATM   16  C3  UNL     1      29.684   0.000  53.791  1.00  0.00     0.013 A 
HETATM   17  C4  UNL     1      29.262  -1.202  53.467  1.00  0.00     0.010 A 
HETATM   18  C5  UNL     1      27.905  -1.110  52.949  1.00  0.00    -0.034 A 
HETATM   19  C6  UNL     1      27.223  -2.332  52.468  1.00  0.00     0.050 C 
ENDBRANCH   1  13
BRANCH  10  20
HETATM   20  C13 UNL     1      22.396   0.595  53.100  1.00  0.00     0.099 C 
HETATM   21  C14 UNL     1      21.755  -0.573  52.467  1.00  0.00     0.028 C 
HETATM   22  C15 UNL     1      20.547  -0.768  53.373  1.00  0.00     0.034 C 
HETATM   23  C16 UNL     1      21.278  -0.783  54.722  1.00  0.00     0.120 C 
HETATM   24  C17 UNL     1      22.396   0.225  54.575  1.00  0.00     0.057 C 
BRANCH  23  25
HETATM   25  O1  UNL     1      21.845  -2.038  54.969  1.00  0.00    -0.396 OA
HETATM   26  H17 UNL     1      21.707  -2.344  55.918  1.00  0.00     0.210 HD
ENDBRANCH  23  25
ENDBRANCH  10  20
TORSDOF 3
ENDMDL
MODEL 5
REMARK VINA RESULT:      -8.6      1.302      2.189
REMARK  3 active torsions:
REMARK  status: ('A' for Active; 'I' for Inactive)
REMARK    1  A    between atoms: C7_7  and  N1_8 
REMARK    2  A    between atoms: N4_17  and  C13_18 
REMARK    3  A    between atoms: C16_21  and  O1_22 
ROOT
HETATM    1  N1  UNL     1      26.175   0.745  52.412  1.00  0.00    -0.294 N 
HETATM    2  C8  UNL     1      24.951   0.212  52.937  1.00  0.00     0.178 C 
HETATM    3  C9  UNL     1      23.767   1.007  52.659  1.00  0.00     0.024 A 
HETATM    4  C10 UNL     1      22.675   0.501  53.375  1.00  0.00     0.132 A 
HETATM    5  N2  UNL     1      21.442   1.071  53.221  1.00  0.00    -0.230 NA
HETATM    6  C11 UNL     1      21.292   2.128  52.371  1.00  0.00     0.224 A 
HETATM    7 CL1  UNL     1      19.711   2.865  52.167  1.00  0.00    -0.041 Cl
HETATM    8  N3  UNL     1      22.356   2.598  51.695  1.00  0.00    -0.200 NA
HETATM    9  C12 UNL     1      23.563   2.069  51.822  1.00  0.00     0.146 A 
HETATM   10  N4  UNL     1      24.764   2.504  51.204  1.00  0.00    -0.278 N 
HETATM   11  C18 UNL     1      25.954   1.815  51.541  1.00  0.00     0.331 C 
HETATM   12  O2  UNL     1      26.903   2.316  50.900  1.00  0.00    -0.246 OA
ENDROOT
BRANCH   1  13
HETATM   13  C7  UNL     1      27.379   0.195  52.874  1.00  0.00     0.054 A 
HETATM   14  C2  UNL     1      28.409   1.034  53.494  1.00  0.00    -0.018 A 
HETATM   15  C1  UNL     1      28.467   2.342  53.682  1.00  0.00     0.026 C 
HETATM   16  C3  UNL     1      29.533   0.261  53.970  1.00  0.00     0.013 A 
HETATM   17  C4  UNL     1      29.219  -0.978  53.662  1.00  0.00     0.010 A 
HETATM   18  C5  UNL     1      27.921  -0.995  53.004  1.00  0.00    -0.034 A 
HETATM   19  C6  UNL     1      27.367  -2.277  52.516  1.00  0.00     0.050 C 
ENDBRANCH   1  13
BRANCH  10  20
HETATM   20  C13 UNL     1      24.666   3.600  50.297  1.00  0.00     0.099 C 
HETATM   21  C14 UNL     1      24.650   4.952  50.886  1.00  0.00     0.028 C 
HETATM   22  C15 UNL     1      24.724   5.816  49.634  1.00  0.00     0.034 C 
HETATM   23  C16 UNL     1      25.941   5.152  48.976  1.00  0.00     0.120 C 
HETATM   24  C17 UNL     1      25.806   3.679  49.294  1.00  0.00     0.057 C 
BRANCH  23  25
HETATM   25  O1  UNL     1      27.132   5.619  49.541  1.00  0.00    -0.396 OA
HETATM   26  H17 UNL     1      27.940   5.387  48.987  1.00  0.00     0.210 HD
ENDBRANCH  23  25
ENDBRANCH  10  20
TORSDOF 3
ENDMDL
MODEL 6
REMARK VINA RESULT:      -8.6      2.004      6.163
REMARK  3 active torsions:
REMARK  status: ('A' for Active; 'I' for Inactive)
REMARK    1  A    between atoms: C7_7  and  N1_8 
REMARK    2  A    between atoms: N4_17  and  C13_18 
REMARK    3  A    between atoms: C16_21  and  O1_22 
ROOT
HETATM    1  N1  UNL     1      23.602   3.175  50.314  1.00  0.00    -0.294 N 
HETATM    2  C8  UNL     1      22.544   2.715  51.166  1.00  0.00     0.178 C 
HETATM    3  C9  UNL     1      22.928   1.691  52.123  1.00  0.00     0.024 A 
HETATM    4  C10 UNL     1      21.790   1.184  52.761  1.00  0.00     0.132 A 
HETATM    5  N2  UNL     1      21.927   0.241  53.741  1.00  0.00    -0.230 NA
HETATM    6  C11 UNL     1      23.173  -0.196  54.084  1.00  0.00     0.224 A 
HETATM    7 CL1  UNL     1      23.357  -1.407  55.342  1.00  0.00    -0.041 Cl
HETATM    8  N3  UNL     1      24.252   0.304  53.455  1.00  0.00    -0.200 NA
HETATM    9  C12 UNL     1      24.155   1.218  52.502  1.00  0.00     0.146 A 
HETATM   10  N4  UNL     1      25.208   1.782  51.737  1.00  0.00    -0.278 N 
HETATM   11  C18 UNL     1      24.852   2.705  50.723  1.00  0.00     0.331 C 
HETATM   12  O2  UNL     1      25.895   3.109  50.166  1.00  0.00    -0.246 OA
ENDROOT
BRANCH   1  13
HETATM   13  C7  UNL     1      23.252   3.942  49.194  1.00  0.00     0.054 A 
HETATM   14  C2  UNL     1      22.599   3.333  48.031  1.00  0.00    -0.018 A 
HETATM   15  C1  UNL     1      22.284   2.075  47.770  1.00  0.00     0.026 C 
HETATM   16  C3  UNL     1      22.254   4.309  47.023  1.00  0.00     0.013 A 
HETATM   17  C4  UNL     1      22.669   5.450  47.529  1.00  0.00     0.010 A 
HETATM   18  C5  UNL     1      23.266   5.205  48.834  1.00  0.00    -0.034 A 
HETATM   19  C6  UNL     1      23.854   6.334  49.589  1.00  0.00     0.050 C 
ENDBRANCH   1  13
BRANCH  10  20
HETATM   20  C13 UNL     1      26.534   1.370  52.059  1.00  0.00     0.099 C 
HETATM   21  C14 UNL     1      27.077   1.821  53.354  1.00  0.00     0.028 C 
HETATM   22  C15 UNL     1      28.387   1.047  53.406  1.00  0.00     0.034 C 
HETATM   23  C16 UNL     1      27.832  -0.354  53.119  1.00  0.00     0.120 C 
HETATM   24  C17 UNL     1      26.717  -0.139  52.120  1.00  0.00     0.057 C 
BRANCH  23  25
HETATM   25  O1  UNL     1      27.286  -0.922  54.275  1.00  0.00    -0.396 OA
HETATM   26  H17 UNL     1      26.674  -0.290  54.764  1.00  0.00     0.210 HD
ENDBRANCH  23  25
ENDBRANCH  10  20
TORSDOF 3
ENDMDL
MODEL 7
REMARK VINA RESULT:      -8.5      2.745      5.672
REMARK  3 active torsions:
REMARK  status: ('A' for Active; 'I' for Inactive)
REMARK    1  A    between atoms: C7_7  and  N1_8 
REMARK    2  A    between atoms: N4_17  and  C13_18 
REMARK    3  A    between atoms: C16_21  and  O1_22 
ROOT
HETATM    1  N1  UNL     1      23.050   0.895  52.094  1.00  0.00    -0.294 N 
HETATM    2  C8  UNL     1      23.776   0.041  52.989  1.00  0.00     0.178 C 
HETATM    3  C9  UNL     1      25.219   0.206  52.958  1.00  0.00     0.024 A 
HETATM    4  C10 UNL     1      25.830  -0.798  53.717  1.00  0.00     0.132 A 
HETATM    5  N2  UNL     1      27.189  -0.803  53.866  1.00  0.00    -0.230 NA
HETATM    6  C11 UNL     1      27.934   0.173  53.270  1.00  0.00     0.224 A 
HETATM    7 CL1  UNL     1      29.680   0.174  53.457  1.00  0.00    -0.041 Cl
HETATM    8  N3  UNL     1      27.325   1.127  52.543  1.00  0.00    -0.200 NA
HETATM    9  C12 UNL     1      26.011   1.160  52.379  1.00  0.00     0.146 A 
HETATM   10  N4  UNL     1      25.262   2.080  51.602  1.00  0.00    -0.278 N 
HETATM   11  C18 UNL     1      23.862   1.879  51.526  1.00  0.00     0.331 C 
HETATM   12  O2  UNL     1      23.365   2.782  50.820  1.00  0.00    -0.246 OA
ENDROOT
BRANCH   1  13
HETATM   13  C7  UNL     1      21.699   0.601  51.863  1.00  0.00     0.054 A 
HETATM   14  C2  UNL     1      20.775   0.350  52.973  1.00  0.00    -0.018 A 
HETATM   15  C1  UNL     1      20.982   0.288  54.278  1.00  0.00     0.026 C 
HETATM   16  C3  UNL     1      19.418   0.145  52.522  1.00  0.00     0.013 A 
HETATM   17  C4  UNL     1      19.497   0.260  51.215  1.00  0.00     0.010 A 
HETATM   18  C5  UNL     1      20.876   0.533  50.840  1.00  0.00    -0.034 A 
HETATM   19  C6  UNL     1      21.232   0.657  49.409  1.00  0.00     0.050 C 
ENDBRANCH   1  13
BRANCH  10  20
HETATM   20  C13 UNL     1      25.988   3.129  50.963  1.00  0.00     0.099 C 
HETATM   21  C14 UNL     1      26.353   2.921  49.549  1.00  0.00     0.028 C 
HETATM   22  C15 UNL     1      26.925   4.286  49.192  1.00  0.00     0.034 C 
HETATM   23  C16 UNL     1      25.760   5.154  49.686  1.00  0.00     0.120 C 
HETATM   24  C17 UNL     1      25.254   4.461  50.932  1.00  0.00     0.057 C 
BRANCH  23  25
HETATM   25  O1  UNL     1      24.725   5.183  48.745  1.00  0.00    -0.396 OA
HETATM   26  H17 UNL     1      24.940   4.653  47.918  1.00  0.00     0.210 HD
ENDBRANCH  23  25
ENDBRANCH  10  20
TORSDOF 3
ENDMDL
MODEL 8
REMARK VINA RESULT:      -8.5      1.985      6.345
REMARK  3 active torsions:
REMARK  status: ('A' for Active; 'I' for Inactive)
REMARK    1  A    between atoms: C7_7  and  N1_8 
REMARK    2  A    between atoms: N4_17  and  C13_18 
REMARK    3  A    between atoms: C16_21  and  O1_22 
ROOT
HETATM    1  N1  UNL     1      23.519   3.208  50.455  1.00  0.00    -0.294 N 
HETATM    2  C8  UNL     1      22.478   2.726  51.315  1.00  0.00     0.178 C 
HETATM    3  C9  UNL     1      22.884   1.690  52.250  1.00  0.00     0.024 A 
HETATM    4  C10 UNL     1      21.759   1.165  52.896  1.00  0.00     0.132 A 
HETATM    5  N2  UNL     1      21.917   0.207  53.859  1.00  0.00    -0.230 NA
HETATM    6  C11 UNL     1      23.172  -0.226  54.176  1.00  0.00     0.224 A 
HETATM    7 CL1  UNL     1      23.384  -1.455  55.412  1.00  0.00    -0.041 Cl
HETATM    8  N3  UNL     1      24.238   0.293  53.539  1.00  0.00    -0.200 NA
HETATM    9  C12 UNL     1      24.119   1.221  52.603  1.00  0.00     0.146 A 
HETATM   10  N4  UNL     1      25.156   1.805  51.832  1.00  0.00    -0.278 N 
HETATM   11  C18 UNL     1      24.779   2.741  50.838  1.00  0.00     0.331 C 
HETATM   12  O2  UNL     1      25.810   3.162  50.272  1.00  0.00    -0.246 OA
ENDROOT
BRANCH   1  13
HETATM   13  C7  UNL     1      23.147   3.990  49.353  1.00  0.00     0.054 A 
HETATM   14  C2  UNL     1      23.324   5.445  49.360  1.00  0.00    -0.018 A 
HETATM   15  C1  UNL     1      23.758   6.263  50.304  1.00  0.00     0.026 C 
HETATM   16  C3  UNL     1      22.951   6.049  48.101  1.00  0.00     0.013 A 
HETATM   17  C4  UNL     1      22.567   5.032  47.362  1.00  0.00     0.010 A 
HETATM   18  C5  UNL     1      22.692   3.805  48.134  1.00  0.00    -0.034 A 
HETATM   19  C6  UNL     1      22.273   2.519  47.532  1.00  0.00     0.050 C 
ENDBRANCH   1  13
BRANCH  10  20
HETATM   20  C13 UNL     1      26.491   1.398  52.127  1.00  0.00     0.099 C 
HETATM   21  C14 UNL     1      27.046   1.823  53.425  1.00  0.00     0.028 C 
HETATM   22  C15 UNL     1      28.363   1.061  53.443  1.00  0.00     0.034 C 
HETATM   23  C16 UNL     1      27.817  -0.339  53.129  1.00  0.00     0.120 C 
HETATM   24  C17 UNL     1      26.688  -0.110  52.150  1.00  0.00     0.057 C 
BRANCH  23  25
HETATM   25  O1  UNL     1      27.291  -0.939  54.278  1.00  0.00    -0.396 OA
HETATM   26  H17 UNL     1      26.457  -0.482  54.606  1.00  0.00     0.210 HD
ENDBRANCH  23  25
ENDBRANCH  10  20
TORSDOF 3
ENDMDL
MODEL 9
REMARK VINA RESULT:      -8.4      2.758      6.520
REMARK  3 active torsions:
REMARK  status: ('A' for Active; 'I' for Inactive)
REMARK    1  A    between atoms: C7_7  and  N1_8 
REMARK    2  A    between atoms: N4_17  and  C13_18 
REMARK    3  A    between atoms: C16_21  and  O1_22 
ROOT
HETATM    1  N1  UNL     1      23.515   1.457  51.958  1.00  0.00    -0.294 N 
HETATM    2  C8  UNL     1      23.439   2.268  50.778  1.00  0.00     0.178 C 
HETATM    3  C9  UNL     1      24.684   2.914  50.397  1.00  0.00     0.024 A 
HETATM    4  C10 UNL     1      24.449   3.823  49.358  1.00  0.00     0.132 A 
HETATM    5  N2  UNL     1      25.498   4.508  48.809  1.00  0.00    -0.230 NA
HETATM    6  C11 UNL     1      26.760   4.298  49.284  1.00  0.00     0.224 A 
HETATM    7 CL1  UNL     1      28.111   5.174  48.583  1.00  0.00    -0.041 Cl
HETATM    8  N3  UNL     1      26.960   3.422  50.284  1.00  0.00    -0.200 NA
HETATM    9  C12 UNL     1      25.967   2.742  50.838  1.00  0.00     0.146 A 
HETATM   10  N4  UNL     1      26.045   1.832  51.923  1.00  0.00    -0.278 N 
HETATM   11  C18 UNL     1      24.831   1.268  52.386  1.00  0.00     0.331 C 
HETATM   12  O2  UNL     1      25.086   0.487  53.327  1.00  0.00    -0.246 OA
ENDROOT
BRANCH   1  13
HETATM   13  C7  UNL     1      22.311   1.037  52.541  1.00  0.00     0.054 A 
HETATM   14  C2  UNL     1      21.172   1.950  52.672  1.00  0.00    -0.018 A 
HETATM   15  C1  UNL     1      21.046   3.231  52.369  1.00  0.00     0.026 C 
HETATM   16  C3  UNL     1      20.007   1.298  53.226  1.00  0.00     0.013 A 
HETATM   17  C4  UNL     1      20.402   0.060  53.427  1.00  0.00     0.010 A 
HETATM   18  C5  UNL     1      21.789  -0.074  53.010  1.00  0.00    -0.034 A 
HETATM   19  C6  UNL     1      22.480  -1.372  53.182  1.00  0.00     0.050 C 
ENDBRANCH   1  13
BRANCH  10  20
HETATM   20  C13 UNL     1      27.342   1.566  52.454  1.00  0.00     0.099 C 
HETATM   21  C14 UNL     1      27.695   2.237  53.719  1.00  0.00     0.028 C 
HETATM   22  C15 UNL     1      29.028   1.575  54.038  1.00  0.00     0.034 C 
HETATM   23  C16 UNL     1      28.588   0.111  53.905  1.00  0.00     0.120 C 
HETATM   24  C17 UNL     1      27.596   0.100  52.764  1.00  0.00     0.057 C 
BRANCH  23  25
HETATM   25  O1  UNL     1      27.935  -0.322  55.064  1.00  0.00    -0.396 OA
HETATM   26  H17 UNL     1      26.939  -0.401  54.939  1.00  0.00     0.210 HD
ENDBRANCH  23  25
ENDBRANCH  10  20
TORSDOF 3
ENDMDL
