MODEL 1
REMARK VINA RESULT:      -7.5      0.000      0.000
REMARK  8 active torsions:
REMARK  status: ('A' for Active; 'I' for Inactive)
REMARK    1  A    between atoms: O1_2  and  C2_3 
REMARK    2  A    between atoms: C3_4  and  C4_5 
REMARK    3  A    between atoms: C5_6  and  C6_7 
REMARK    4  A    between atoms: C6_7  and  O2_8 
REMARK    5  A    between atoms: C9_12  and  C10_13 
REMARK    6  A    between atoms: C10_13  and  O4_15 
REMARK    7  A    between atoms: C11_16  and  N2_17 
REMARK    8  A    between atoms: N2_17  and  C12_18 
ROOT
HETATM    1  C4  UNL     1      25.478   0.063  53.459  1.00  0.00     0.020 A 
HETATM    2  C5  UNL     1      26.206  -0.182  54.598  1.00  0.00     0.070 A 
HETATM    3  N1  UNL     1      25.669  -0.757  55.690  1.00  0.00    -0.261 NA
HETATM    4  C8  UNL     1      24.382  -1.129  55.741  1.00  0.00     0.137 A 
HETATM    5  C9  UNL     1      23.676  -0.874  54.591  1.00  0.00     0.082 A 
HETATM    6  C11 UNL     1      24.150  -0.292  53.437  1.00  0.00     0.063 A 
ENDROOT
BRANCH   6   7
HETATM    7  N2  UNL     1      23.398  -0.045  52.281  1.00  0.00    -0.355 N 
HETATM    8  H13 UNL     1      23.518  -0.649  51.427  1.00  0.00     0.166 HD
BRANCH   7   9
HETATM    9  C12 UNL     1      22.453   1.021  52.222  1.00  0.00     0.034 A 
HETATM   10  C13 UNL     1      21.106   0.747  52.050  1.00  0.00     0.032 A 
HETATM   11  C14 UNL     1      20.121   1.734  51.982  1.00  0.00     0.046 A 
HETATM   12  C15 UNL     1      20.579   3.050  52.099  1.00  0.00     0.138 A 
HETATM   13  F1  UNL     1      19.682   4.068  52.043  1.00  0.00    -0.204 F 
HETATM   14  C16 UNL     1      21.909   3.366  52.271  1.00  0.00     0.074 A 
HETATM   15 CL1  UNL     1      22.383   5.038  52.408  1.00  0.00    -0.081 Cl
HETATM   16  C17 UNL     1      22.853   2.336  52.333  1.00  0.00     0.056 A 
ENDBRANCH   7   9
ENDBRANCH   6   7
BRANCH   1  17
HETATM   17  C3  UNL     1      26.016   0.666  52.253  1.00  0.00     0.040 C 
HETATM   18  C2  UNL     1      26.485   1.871  52.040  1.00  0.00     0.135 C 
BRANCH  18  19
HETATM   19  O1  UNL     1      27.002   2.497  50.941  1.00  0.00    -0.368 OA
HETATM   20  C1  UNL     1      26.227   3.201  49.985  1.00  0.00     0.208 C 
ENDBRANCH  18  19
ENDBRANCH   1  17
BRANCH   5  21
HETATM   21  C10 UNL     1      22.281  -1.270  54.618  1.00  0.00     0.179 C 
HETATM   22  O3  UNL     1      21.769  -2.128  53.817  1.00  0.00    -0.646 OA
BRANCH  21  23
HETATM   23  O4  UNL     1      20.968  -1.338  54.988  1.00  0.00    -0.773 OA
HETATM   24  H12 UNL     1      20.420  -0.494  55.100  1.00  0.00     0.167 HD
ENDBRANCH  21  23
ENDBRANCH   5  21
BRANCH   2  25
HETATM   25  C6  UNL     1      27.638   0.200  54.665  1.00  0.00     0.227 C 
BRANCH  25  26
HETATM   26  O2  UNL     1      28.415  -0.868  54.212  1.00  0.00    -0.390 OA
HETATM   27  C7  UNL     1      29.637  -0.422  53.718  1.00  0.00     0.201 C 
ENDBRANCH  25  26
ENDBRANCH   2  25
TORSDOF 8
ENDMDL
MODEL 2
REMARK VINA RESULT:      -7.2      3.410      5.612
REMARK  8 active torsions:
REMARK  status: ('A' for Active; 'I' for Inactive)
REMARK    1  A    between atoms: O1_2  and  C2_3 
REMARK    2  A    between atoms: C3_4  and  C4_5 
REMARK    3  A    between atoms: C5_6  and  C6_7 
REMARK    4  A    between atoms: C6_7  and  O2_8 
REMARK    5  A    between atoms: C9_12  and  C10_13 
REMARK    6  A    between atoms: C10_13  and  O4_15 
REMARK    7  A    between atoms: C11_16  and  N2_17 
REMARK    8  A    between atoms: N2_17  and  C12_18 
ROOT
HETATM    1  C4  UNL     1      22.816   1.405  52.123  1.00  0.00     0.020 A 
HETATM    2  C5  UNL     1      21.687   1.051  51.423  1.00  0.00     0.070 A 
HETATM    3  N1  UNL     1      20.894   0.032  51.801  1.00  0.00    -0.261 NA
HETATM    4  C8  UNL     1      21.150  -0.709  52.887  1.00  0.00     0.137 A 
HETATM    5  C9  UNL     1      22.283  -0.335  53.569  1.00  0.00     0.082 A 
HETATM    6  C11 UNL     1      23.145   0.690  53.250  1.00  0.00     0.063 A 
ENDROOT
BRANCH   6   7
HETATM    7  N2  UNL     1      24.293   1.042  53.970  1.00  0.00    -0.355 N 
HETATM    8  H13 UNL     1      24.244   1.762  54.736  1.00  0.00     0.166 HD
BRANCH   7   9
HETATM    9  C12 UNL     1      25.557   0.443  53.693  1.00  0.00     0.034 A 
HETATM   10  C13 UNL     1      25.621  -0.752  52.995  1.00  0.00     0.032 A 
HETATM   11  C14 UNL     1      26.819  -1.402  52.686  1.00  0.00     0.046 A 
HETATM   12  C15 UNL     1      27.981  -0.763  53.129  1.00  0.00     0.138 A 
HETATM   13  F1  UNL     1      29.187  -1.330  52.867  1.00  0.00    -0.204 F 
HETATM   14  C16 UNL     1      27.961   0.426  53.825  1.00  0.00     0.074 A 
HETATM   15 CL1  UNL     1      29.464   1.147  54.337  1.00  0.00    -0.081 Cl
HETATM   16  C17 UNL     1      26.733   1.032  54.108  1.00  0.00     0.056 A 
ENDBRANCH   7   9
ENDBRANCH   6   7
BRANCH   1  17
HETATM   17  C3  UNL     1      23.694   2.505  51.764  1.00  0.00     0.040 C 
HETATM   18  C2  UNL     1      24.585   2.604  50.809  1.00  0.00     0.135 C 
BRANCH  18  19
HETATM   19  O1  UNL     1      25.437   3.600  50.420  1.00  0.00    -0.368 OA
HETATM   20  C1  UNL     1      26.589   3.397  49.618  1.00  0.00     0.208 C 
ENDBRANCH  18  19
ENDBRANCH   1  17
BRANCH   5  21
HETATM   21  C10 UNL     1      22.583  -1.120  54.752  1.00  0.00     0.179 C 
HETATM   22  O3  UNL     1      21.815  -2.034  55.214  1.00  0.00    -0.646 OA
BRANCH  21  23
HETATM   23  O4  UNL     1      23.240  -1.590  55.853  1.00  0.00    -0.773 OA
HETATM   24  H12 UNL     1      23.976  -1.046  56.286  1.00  0.00     0.167 HD
ENDBRANCH  21  23
ENDBRANCH   5  21
BRANCH   2  25
HETATM   25  C6  UNL     1      21.308   1.790  50.194  1.00  0.00     0.227 C 
BRANCH  25  26
HETATM   26  O2  UNL     1      21.576   0.990  49.082  1.00  0.00    -0.390 OA
HETATM   27  C7  UNL     1      22.136   1.738  48.051  1.00  0.00     0.201 C 
ENDBRANCH  25  26
ENDBRANCH   2  25
TORSDOF 8
ENDMDL
MODEL 3
REMARK VINA RESULT:      -7.1      1.575      1.758
REMARK  8 active torsions:
REMARK  status: ('A' for Active; 'I' for Inactive)
REMARK    1  A    between atoms: O1_2  and  C2_3 
REMARK    2  A    between atoms: C3_4  and  C4_5 
REMARK    3  A    between atoms: C5_6  and  C6_7 
REMARK    4  A    between atoms: C6_7  and  O2_8 
REMARK    5  A    between atoms: C9_12  and  C10_13 
REMARK    6  A    between atoms: C10_13  and  O4_15 
REMARK    7  A    between atoms: C11_16  and  N2_17 
REMARK    8  A    between atoms: N2_17  and  C12_18 
ROOT
HETATM    1  C4  UNL     1      25.714   0.445  52.971  1.00  0.00     0.020 A 
HETATM    2  C5  UNL     1      26.468   0.053  54.051  1.00  0.00     0.070 A 
HETATM    3  N1  UNL     1      25.943  -0.617  55.093  1.00  0.00    -0.261 NA
HETATM    4  C8  UNL     1      24.645  -0.947  55.150  1.00  0.00     0.137 A 
HETATM    5  C9  UNL     1      23.914  -0.544  54.059  1.00  0.00     0.082 A 
HETATM    6  C11 UNL     1      24.374   0.142  52.958  1.00  0.00     0.063 A 
ENDROOT
BRANCH   6   7
HETATM    7  N2  UNL     1      23.596   0.539  51.862  1.00  0.00    -0.355 N 
HETATM    8  H13 UNL     1      23.232  -0.176  51.179  1.00  0.00     0.166 HD
BRANCH   7   9
HETATM    9  C12 UNL     1      23.273   1.909  51.636  1.00  0.00     0.034 A 
HETATM   10  C13 UNL     1      23.138   2.776  52.708  1.00  0.00     0.032 A 
HETATM   11  C14 UNL     1      22.823   4.130  52.570  1.00  0.00     0.046 A 
HETATM   12  C15 UNL     1      22.647   4.575  51.256  1.00  0.00     0.138 A 
HETATM   13  F1  UNL     1      22.339   5.880  51.037  1.00  0.00    -0.204 F 
HETATM   14  C16 UNL     1      22.773   3.746  50.163  1.00  0.00     0.074 A 
HETATM   15 CL1  UNL     1      22.536   4.394  48.562  1.00  0.00    -0.081 Cl
HETATM   16  C17 UNL     1      23.090   2.398  50.360  1.00  0.00     0.056 A 
ENDBRANCH   7   9
ENDBRANCH   6   7
BRANCH   1  17
HETATM   17  C3  UNL     1      26.238   1.156  51.818  1.00  0.00     0.040 C 
HETATM   18  C2  UNL     1      26.702   2.376  51.709  1.00  0.00     0.135 C 
BRANCH  18  19
HETATM   19  O1  UNL     1      27.205   3.099  50.664  1.00  0.00    -0.368 OA
HETATM   20  C1  UNL     1      26.481   3.412  49.487  1.00  0.00     0.208 C 
ENDBRANCH  18  19
ENDBRANCH   1  17
BRANCH   5  21
HETATM   21  C10 UNL     1      22.506  -0.891  54.093  1.00  0.00     0.179 C 
HETATM   22  O3  UNL     1      21.947  -1.506  55.067  1.00  0.00    -0.646 OA
BRANCH  21  23
HETATM   23  O4  UNL     1      21.199  -1.010  53.715  1.00  0.00    -0.773 OA
HETATM   24  H12 UNL     1      20.950  -1.070  52.735  1.00  0.00     0.167 HD
ENDBRANCH  21  23
ENDBRANCH   5  21
BRANCH   2  25
HETATM   25  C6  UNL     1      27.915   0.375  54.108  1.00  0.00     0.227 C 
BRANCH  25  26
HETATM   26  O2  UNL     1      28.623  -0.776  54.459  1.00  0.00    -0.390 OA
HETATM   27  C7  UNL     1      29.615  -1.058  53.524  1.00  0.00     0.201 C 
ENDBRANCH  25  26
ENDBRANCH   2  25
TORSDOF 8
ENDMDL
MODEL 4
REMARK VINA RESULT:      -7.1      3.468      7.234
REMARK  8 active torsions:
REMARK  status: ('A' for Active; 'I' for Inactive)
REMARK    1  A    between atoms: O1_2  and  C2_3 
REMARK    2  A    between atoms: C3_4  and  C4_5 
REMARK    3  A    between atoms: C5_6  and  C6_7 
REMARK    4  A    between atoms: C6_7  and  O2_8 
REMARK    5  A    between atoms: C9_12  and  C10_13 
REMARK    6  A    between atoms: C10_13  and  O4_15 
REMARK    7  A    between atoms: C11_16  and  N2_17 
REMARK    8  A    between atoms: N2_17  and  C12_18 
ROOT
HETATM    1  C4  UNL     1      22.959   1.688  51.743  1.00  0.00     0.020 A 
HETATM    2  C5  UNL     1      22.205   1.679  50.595  1.00  0.00     0.070 A 
HETATM    3  N1  UNL     1      22.624   2.251  49.451  1.00  0.00    -0.261 NA
HETATM    4  C8  UNL     1      23.809   2.870  49.353  1.00  0.00     0.137 A 
HETATM    5  C9  UNL     1      24.543   2.866  50.515  1.00  0.00     0.082 A 
HETATM    6  C11 UNL     1      24.187   2.306  51.721  1.00  0.00     0.063 A 
ENDROOT
BRANCH   6   7
HETATM    7  N2  UNL     1      24.963   2.322  52.887  1.00  0.00    -0.355 N 
HETATM    8  H13 UNL     1      24.714   2.961  53.686  1.00  0.00     0.166 HD
BRANCH   7   9
HETATM    9  C12 UNL     1      26.106   1.481  53.031  1.00  0.00     0.034 A 
HETATM   10  C13 UNL     1      27.298   2.006  53.504  1.00  0.00     0.032 A 
HETATM   11  C14 UNL     1      28.460   1.249  53.672  1.00  0.00     0.046 A 
HETATM   12  C15 UNL     1      28.353  -0.102  53.329  1.00  0.00     0.138 A 
HETATM   13  F1  UNL     1      29.439  -0.906  53.465  1.00  0.00    -0.204 F 
HETATM   14  C16 UNL     1      27.187  -0.663  52.856  1.00  0.00     0.074 A 
HETATM   15 CL1  UNL     1      27.151  -2.359  52.454  1.00  0.00    -0.081 Cl
HETATM   16  C17 UNL     1      26.053   0.142  52.706  1.00  0.00     0.056 A 
ENDBRANCH   7   9
ENDBRANCH   6   7
BRANCH   1  17
HETATM   17  C3  UNL     1      22.557   1.073  52.996  1.00  0.00     0.040 C 
HETATM   18  C2  UNL     1      22.540  -0.186  53.358  1.00  0.00     0.135 C 
BRANCH  18  19
HETATM   19  O1  UNL     1      22.177  -0.827  54.509  1.00  0.00    -0.368 OA
HETATM   20  C1  UNL     1      23.093  -1.405  55.424  1.00  0.00     0.208 C 
ENDBRANCH  18  19
ENDBRANCH   1  17
BRANCH   5  21
HETATM   21  C10 UNL     1      25.832   3.527  50.437  1.00  0.00     0.179 C 
HETATM   22  O3  UNL     1      25.992   4.726  50.017  1.00  0.00    -0.646 OA
BRANCH  21  23
HETATM   23  O4  UNL     1      27.177   3.743  50.531  1.00  0.00    -0.773 OA
HETATM   24  H12 UNL     1      27.569   4.651  50.314  1.00  0.00     0.167 HD
ENDBRANCH  21  23
ENDBRANCH   5  21
BRANCH   2  25
HETATM   25  C6  UNL     1      20.869   1.035  50.584  1.00  0.00     0.227 C 
BRANCH  25  26
HETATM   26  O2  UNL     1      19.891   2.013  50.779  1.00  0.00    -0.390 OA
HETATM   27  C7  UNL     1      18.933   1.587  51.694  1.00  0.00     0.201 C 
ENDBRANCH  25  26
ENDBRANCH   2  25
TORSDOF 8
ENDMDL
MODEL 5
REMARK VINA RESULT:      -6.8      2.568      2.822
REMARK  8 active torsions:
REMARK  status: ('A' for Active; 'I' for Inactive)
REMARK    1  A    between atoms: O1_2  and  C2_3 
REMARK    2  A    between atoms: C3_4  and  C4_5 
REMARK    3  A    between atoms: C5_6  and  C6_7 
REMARK    4  A    between atoms: C6_7  and  O2_8 
REMARK    5  A    between atoms: C9_12  and  C10_13 
REMARK    6  A    between atoms: C10_13  and  O4_15 
REMARK    7  A    between atoms: C11_16  and  N2_17 
REMARK    8  A    between atoms: N2_17  and  C12_18 
ROOT
HETATM    1  C4  UNL     1      24.612   1.190  52.827  1.00  0.00     0.020 A 
HETATM    2  C5  UNL     1      25.118   0.062  53.429  1.00  0.00     0.070 A 
HETATM    3  N1  UNL     1      24.327  -0.894  53.951  1.00  0.00    -0.261 NA
HETATM    4  C8  UNL     1      22.990  -0.811  53.919  1.00  0.00     0.137 A 
HETATM    5  C9  UNL     1      22.510   0.324  53.313  1.00  0.00     0.082 A 
HETATM    6  C11 UNL     1      23.249   1.345  52.758  1.00  0.00     0.063 A 
ENDROOT
BRANCH   6   7
HETATM    7  N2  UNL     1      22.724   2.491  52.147  1.00  0.00    -0.355 N 
HETATM    8  H13 UNL     1      22.422   3.316  52.729  1.00  0.00     0.166 HD
BRANCH   7   9
HETATM    9  C12 UNL     1      22.581   2.581  50.731  1.00  0.00     0.034 A 
HETATM   10  C13 UNL     1      22.136   1.486  50.008  1.00  0.00     0.032 A 
HETATM   11  C14 UNL     1      21.970   1.494  48.621  1.00  0.00     0.046 A 
HETATM   12  C15 UNL     1      22.286   2.698  47.985  1.00  0.00     0.138 A 
HETATM   13  F1  UNL     1      22.151   2.787  46.636  1.00  0.00    -0.204 F 
HETATM   14  C16 UNL     1      22.731   3.809  48.667  1.00  0.00     0.074 A 
HETATM   15 CL1  UNL     1      23.100   5.268  47.784  1.00  0.00    -0.081 Cl
HETATM   16  C17 UNL     1      22.879   3.745  50.056  1.00  0.00     0.056 A 
ENDBRANCH   7   9
ENDBRANCH   6   7
BRANCH   1  17
HETATM   17  C3  UNL     1      25.424   2.240  52.238  1.00  0.00     0.040 C 
HETATM   18  C2  UNL     1      26.211   2.220  51.191  1.00  0.00     0.135 C 
BRANCH  18  19
HETATM   19  O1  UNL     1      26.996   3.163  50.588  1.00  0.00    -0.368 OA
HETATM   20  C1  UNL     1      26.587   3.954  49.485  1.00  0.00     0.208 C 
ENDBRANCH  18  19
ENDBRANCH   1  17
BRANCH   5  21
HETATM   21  C10 UNL     1      21.065   0.439  53.262  1.00  0.00     0.179 C 
HETATM   22  O3  UNL     1      20.430   1.533  53.460  1.00  0.00    -0.646 OA
BRANCH  21  23
HETATM   23  O4  UNL     1      19.749   0.098  53.124  1.00  0.00    -0.773 OA
HETATM   24  H12 UNL     1      19.063   0.410  53.799  1.00  0.00     0.167 HD
ENDBRANCH  21  23
ENDBRANCH   5  21
BRANCH   2  25
HETATM   25  C6  UNL     1      26.584  -0.134  53.536  1.00  0.00     0.227 C 
BRANCH  25  26
HETATM   26  O2  UNL     1      27.007   0.285  54.799  1.00  0.00    -0.390 OA
HETATM   27  C7  UNL     1      28.392   0.207  54.913  1.00  0.00     0.201 C 
ENDBRANCH  25  26
ENDBRANCH   2  25
TORSDOF 8
ENDMDL
MODEL 6
REMARK VINA RESULT:      -6.6      2.678      5.171
REMARK  8 active torsions:
REMARK  status: ('A' for Active; 'I' for Inactive)
REMARK    1  A    between atoms: O1_2  and  C2_3 
REMARK    2  A    between atoms: C3_4  and  C4_5 
REMARK    3  A    between atoms: C5_6  and  C6_7 
REMARK    4  A    between atoms: C6_7  and  O2_8 
REMARK    5  A    between atoms: C9_12  and  C10_13 
REMARK    6  A    between atoms: C10_13  and  O4_15 
REMARK    7  A    between atoms: C11_16  and  N2_17 
REMARK    8  A    between atoms: N2_17  and  C12_18 
ROOT
HETATM    1  C4  UNL     1      23.524   1.362  52.905  1.00  0.00     0.020 A 
HETATM    2  C5  UNL     1      23.610  -0.005  53.023  1.00  0.00     0.070 A 
HETATM    3  N1  UNL     1      24.771  -0.636  53.277  1.00  0.00    -0.261 NA
HETATM    4  C8  UNL     1      25.926   0.025  53.430  1.00  0.00     0.137 A 
HETATM    5  C9  UNL     1      25.814   1.390  53.308  1.00  0.00     0.082 A 
HETATM    6  C11 UNL     1      24.668   2.109  53.050  1.00  0.00     0.063 A 
ENDROOT
BRANCH   6   7
HETATM    7  N2  UNL     1      24.592   3.502  52.930  1.00  0.00    -0.355 N 
HETATM    8  H13 UNL     1      24.613   4.114  53.787  1.00  0.00     0.166 HD
BRANCH   7   9
HETATM    9  C12 UNL     1      24.485   4.135  51.656  1.00  0.00     0.034 A 
HETATM   10  C13 UNL     1      25.139   3.599  50.559  1.00  0.00     0.032 A 
HETATM   11  C14 UNL     1      25.085   4.159  49.280  1.00  0.00     0.046 A 
HETATM   12  C15 UNL     1      24.314   5.320  49.165  1.00  0.00     0.138 A 
HETATM   13  F1  UNL     1      24.210   5.925  47.953  1.00  0.00    -0.204 F 
HETATM   14  C16 UNL     1      23.648   5.884  50.231  1.00  0.00     0.074 A 
HETATM   15 CL1  UNL     1      22.710   7.334  49.987  1.00  0.00    -0.081 Cl
HETATM   16  C17 UNL     1      23.738   5.281  51.489  1.00  0.00     0.056 A 
ENDBRANCH   7   9
ENDBRANCH   6   7
BRANCH   1  17
HETATM   17  C3  UNL     1      22.293   2.089  52.648  1.00  0.00     0.040 C 
HETATM   18  C2  UNL     1      21.607   2.234  51.542  1.00  0.00     0.135 C 
BRANCH  18  19
HETATM   19  O1  UNL     1      20.453   2.898  51.233  1.00  0.00    -0.368 OA
HETATM   20  C1  UNL     1      20.262   3.662  50.054  1.00  0.00     0.208 C 
ENDBRANCH  18  19
ENDBRANCH   1  17
BRANCH   5  21
HETATM   21  C10 UNL     1      27.049   2.132  53.472  1.00  0.00     0.179 C 
HETATM   22  O3  UNL     1      27.810   2.473  52.500  1.00  0.00    -0.646 OA
BRANCH  21  23
HETATM   23  O4  UNL     1      28.081   2.801  54.067  1.00  0.00    -0.773 OA
HETATM   24  H12 UNL     1      28.519   3.587  53.604  1.00  0.00     0.167 HD
ENDBRANCH  21  23
ENDBRANCH   5  21
BRANCH   2  25
HETATM   25  C6  UNL     1      22.399  -0.846  52.859  1.00  0.00     0.227 C 
BRANCH  25  26
HETATM   26  O2  UNL     1      22.149  -1.521  54.055  1.00  0.00    -0.390 OA
HETATM   27  C7  UNL     1      21.395  -0.737  54.924  1.00  0.00     0.201 C 
ENDBRANCH  25  26
ENDBRANCH   2  25
TORSDOF 8
ENDMDL
MODEL 7
REMARK VINA RESULT:      -6.5      2.323      4.845
REMARK  8 active torsions:
REMARK  status: ('A' for Active; 'I' for Inactive)
REMARK    1  A    between atoms: O1_2  and  C2_3 
REMARK    2  A    between atoms: C3_4  and  C4_5 
REMARK    3  A    between atoms: C5_6  and  C6_7 
REMARK    4  A    between atoms: C6_7  and  O2_8 
REMARK    5  A    between atoms: C9_12  and  C10_13 
REMARK    6  A    between atoms: C10_13  and  O4_15 
REMARK    7  A    between atoms: C11_16  and  N2_17 
REMARK    8  A    between atoms: N2_17  and  C12_18 
ROOT
HETATM    1  C4  UNL     1      22.847  -0.516  53.133  1.00  0.00     0.020 A 
HETATM    2  C5  UNL     1      22.207  -1.212  54.130  1.00  0.00     0.070 A 
HETATM    3  N1  UNL     1      22.810  -1.529  55.291  1.00  0.00    -0.261 NA
HETATM    4  C8  UNL     1      24.079  -1.187  55.554  1.00  0.00     0.137 A 
HETATM    5  C9  UNL     1      24.696  -0.492  54.542  1.00  0.00     0.082 A 
HETATM    6  C11 UNL     1      24.151  -0.131  53.330  1.00  0.00     0.063 A 
ENDROOT
BRANCH   6   7
HETATM    7  N2  UNL     1      24.812   0.578  52.319  1.00  0.00    -0.355 N 
HETATM    8  H13 UNL     1      25.533   0.103  51.716  1.00  0.00     0.166 HD
BRANCH   7   9
HETATM    9  C12 UNL     1      24.535   1.956  52.073  1.00  0.00     0.034 A 
HETATM   10  C13 UNL     1      24.136   2.780  53.113  1.00  0.00     0.032 A 
HETATM   11  C14 UNL     1      23.846   4.137  52.953  1.00  0.00     0.046 A 
HETATM   12  C15 UNL     1      23.984   4.632  51.653  1.00  0.00     0.138 A 
HETATM   13  F1  UNL     1      23.722   5.943  51.415  1.00  0.00    -0.204 F 
HETATM   14  C16 UNL     1      24.379   3.846  50.592  1.00  0.00     0.074 A 
HETATM   15 CL1  UNL     1      24.523   4.556  49.005  1.00  0.00    -0.081 Cl
HETATM   16  C17 UNL     1      24.656   2.493  50.809  1.00  0.00     0.056 A 
ENDBRANCH   7   9
ENDBRANCH   6   7
BRANCH   1  17
HETATM   17  C3  UNL     1      22.234  -0.138  51.871  1.00  0.00     0.040 C 
HETATM   18  C2  UNL     1      21.429   0.854  51.581  1.00  0.00     0.135 C 
BRANCH  18  19
HETATM   19  O1  UNL     1      20.822   1.263  50.426  1.00  0.00    -0.368 OA
HETATM   20  C1  UNL     1      21.352   1.055  49.128  1.00  0.00     0.208 C 
ENDBRANCH  18  19
ENDBRANCH   1  17
BRANCH   5  21
HETATM   21  C10 UNL     1      26.070  -0.106  54.800  1.00  0.00     0.179 C 
HETATM   22  O3  UNL     1      26.455   1.107  54.938  1.00  0.00    -0.646 OA
BRANCH  21  23
HETATM   23  O4  UNL     1      27.414  -0.200  55.025  1.00  0.00    -0.773 OA
HETATM   24  H12 UNL     1      27.778  -0.218  55.970  1.00  0.00     0.167 HD
ENDBRANCH  21  23
ENDBRANCH   5  21
BRANCH   2  25
HETATM   25  C6  UNL     1      20.804  -1.657  53.949  1.00  0.00     0.227 C 
BRANCH  25  26
HETATM   26  O2  UNL     1      19.956  -0.557  54.090  1.00  0.00    -0.390 OA
HETATM   27  C7  UNL     1      18.790  -0.726  53.350  1.00  0.00     0.201 C 
ENDBRANCH  25  26
ENDBRANCH   2  25
TORSDOF 8
ENDMDL
MODEL 8
REMARK VINA RESULT:      -6.5      3.138      5.685
REMARK  8 active torsions:
REMARK  status: ('A' for Active; 'I' for Inactive)
REMARK    1  A    between atoms: O1_2  and  C2_3 
REMARK    2  A    between atoms: C3_4  and  C4_5 
REMARK    3  A    between atoms: C5_6  and  C6_7 
REMARK    4  A    between atoms: C6_7  and  O2_8 
REMARK    5  A    between atoms: C9_12  and  C10_13 
REMARK    6  A    between atoms: C10_13  and  O4_15 
REMARK    7  A    between atoms: C11_16  and  N2_17 
REMARK    8  A    between atoms: N2_17  and  C12_18 
ROOT
HETATM    1  C4  UNL     1      23.163   1.480  51.518  1.00  0.00     0.020 A 
HETATM    2  C5  UNL     1      22.974   0.697  52.632  1.00  0.00     0.070 A 
HETATM    3  N1  UNL     1      23.962   0.438  53.508  1.00  0.00    -0.261 NA
HETATM    4  C8  UNL     1      25.201   0.924  53.353  1.00  0.00     0.137 A 
HETATM    5  C9  UNL     1      25.364   1.703  52.233  1.00  0.00     0.082 A 
HETATM    6  C11 UNL     1      24.409   2.015  51.291  1.00  0.00     0.063 A 
ENDROOT
BRANCH   6   7
HETATM    7  N2  UNL     1      24.613   2.812  50.158  1.00  0.00    -0.355 N 
HETATM    8  H13 UNL     1      24.669   2.377  49.201  1.00  0.00     0.166 HD
BRANCH   7   9
HETATM    9  C12 UNL     1      24.750   4.228  50.260  1.00  0.00     0.034 A 
HETATM   10  C13 UNL     1      23.947   4.942  51.135  1.00  0.00     0.032 A 
HETATM   11  C14 UNL     1      24.020   6.328  51.292  1.00  0.00     0.046 A 
HETATM   12  C15 UNL     1      24.973   6.973  50.498  1.00  0.00     0.138 A 
HETATM   13  F1  UNL     1      25.107   8.322  50.592  1.00  0.00    -0.204 F 
HETATM   14  C16 UNL     1      25.791   6.301  49.616  1.00  0.00     0.074 A 
HETATM   15 CL1  UNL     1      26.950   7.194  48.668  1.00  0.00    -0.081 Cl
HETATM   16  C17 UNL     1      25.674   4.912  49.500  1.00  0.00     0.056 A 
ENDBRANCH   7   9
ENDBRANCH   6   7
BRANCH   1  17
HETATM   17  C3  UNL     1      22.126   1.801  50.553  1.00  0.00     0.040 C 
HETATM   18  C2  UNL     1      21.697   1.132  49.512  1.00  0.00     0.135 C 
BRANCH  18  19
HETATM   19  O1  UNL     1      20.734   1.373  48.572  1.00  0.00    -0.368 OA
HETATM   20  C1  UNL     1      20.499   2.638  47.978  1.00  0.00     0.208 C 
ENDBRANCH  18  19
ENDBRANCH   1  17
BRANCH   5  21
HETATM   21  C10 UNL     1      26.696   2.245  52.041  1.00  0.00     0.179 C 
HETATM   22  O3  UNL     1      27.767   1.650  52.414  1.00  0.00    -0.646 OA
BRANCH  21  23
HETATM   23  O4  UNL     1      27.701   3.094  51.674  1.00  0.00    -0.773 OA
HETATM   24  H12 UNL     1      27.490   3.989  51.251  1.00  0.00     0.167 HD
ENDBRANCH  21  23
ENDBRANCH   5  21
BRANCH   2  25
HETATM   25  C6  UNL     1      21.648   0.091  52.902  1.00  0.00     0.227 C 
BRANCH  25  26
HETATM   26  O2  UNL     1      21.611  -0.350  54.226  1.00  0.00    -0.390 OA
HETATM   27  C7  UNL     1      21.038  -1.615  54.316  1.00  0.00     0.201 C 
ENDBRANCH  25  26
ENDBRANCH   2  25
TORSDOF 8
ENDMDL
MODEL 9
REMARK VINA RESULT:      -6.4      3.679      6.111
REMARK  8 active torsions:
REMARK  status: ('A' for Active; 'I' for Inactive)
REMARK    1  A    between atoms: O1_2  and  C2_3 
REMARK    2  A    between atoms: C3_4  and  C4_5 
REMARK    3  A    between atoms: C5_6  and  C6_7 
REMARK    4  A    between atoms: C6_7  and  O2_8 
REMARK    5  A    between atoms: C9_12  and  C10_13 
REMARK    6  A    between atoms: C10_13  and  O4_15 
REMARK    7  A    between atoms: C11_16  and  N2_17 
REMARK    8  A    between atoms: N2_17  and  C12_18 
ROOT
HETATM    1  C4  UNL     1      24.506   3.439  51.205  1.00  0.00     0.020 A 
HETATM    2  C5  UNL     1      23.637   4.494  51.347  1.00  0.00     0.070 A 
HETATM    3  N1  UNL     1      22.396   4.345  51.847  1.00  0.00    -0.261 NA
HETATM    4  C8  UNL     1      21.922   3.155  52.241  1.00  0.00     0.137 A 
HETATM    5  C9  UNL     1      22.810   2.117  52.089  1.00  0.00     0.082 A 
HETATM    6  C11 UNL     1      24.091   2.186  51.588  1.00  0.00     0.063 A 
ENDROOT
BRANCH   6   7
HETATM    7  N2  UNL     1      24.968   1.104  51.446  1.00  0.00    -0.355 N 
HETATM    8  H13 UNL     1      24.953   0.513  50.574  1.00  0.00     0.166 HD
BRANCH   7   9
HETATM    9  C12 UNL     1      25.904   0.767  52.468  1.00  0.00     0.034 A 
HETATM   10  C13 UNL     1      25.839   1.392  53.702  1.00  0.00     0.032 A 
HETATM   11  C14 UNL     1      26.719   1.118  54.753  1.00  0.00     0.046 A 
HETATM   12  C15 UNL     1      27.694   0.153  54.484  1.00  0.00     0.138 A 
HETATM   13  F1  UNL     1      28.587  -0.171  55.455  1.00  0.00    -0.204 F 
HETATM   14  C16 UNL     1      27.792  -0.492  53.271  1.00  0.00     0.074 A 
HETATM   15 CL1  UNL     1      29.043  -1.683  53.031  1.00  0.00    -0.081 Cl
HETATM   16  C17 UNL     1      26.885  -0.179  52.254  1.00  0.00     0.056 A 
ENDBRANCH   7   9
ENDBRANCH   6   7
BRANCH   1  17
HETATM   17  C3  UNL     1      25.858   3.551  50.686  1.00  0.00     0.040 C 
HETATM   18  C2  UNL     1      26.287   3.923  49.505  1.00  0.00     0.135 C 
BRANCH  18  19
HETATM   19  O1  UNL     1      27.532   4.051  48.956  1.00  0.00    -0.368 OA
HETATM   20  C1  UNL     1      28.060   5.264  48.447  1.00  0.00     0.208 C 
ENDBRANCH  18  19
ENDBRANCH   1  17
BRANCH   5  21
HETATM   21  C10 UNL     1      22.324   0.817  52.510  1.00  0.00     0.179 C 
HETATM   22  O3  UNL     1      21.491   0.645  53.468  1.00  0.00    -0.646 OA
BRANCH  21  23
HETATM   23  O4  UNL     1      22.145  -0.536  52.565  1.00  0.00    -0.773 OA
HETATM   24  H12 UNL     1      22.321  -1.044  53.424  1.00  0.00     0.167 HD
ENDBRANCH  21  23
ENDBRANCH   5  21
BRANCH   2  25
HETATM   25  C6  UNL     1      24.045   5.858  50.931  1.00  0.00     0.227 C 
BRANCH  25  26
HETATM   26  O2  UNL     1      23.090   6.369  50.051  1.00  0.00    -0.390 OA
HETATM   27  C7  UNL     1      23.693   7.068  49.009  1.00  0.00     0.201 C 
ENDBRANCH  25  26
ENDBRANCH   2  25
TORSDOF 8
ENDMDL
