MODEL 1
REMARK VINA RESULT:      -7.8      0.000      0.000
REMARK  7 active torsions:
REMARK  status: ('A' for Active; 'I' for Inactive)
REMARK    1  A    between atoms: O1_2  and  C2_3 
REMARK    2  A    between atoms: C3_4  and  O2_5 
REMARK    3  A    between atoms: O2_5  and  C4_6 
REMARK    4  A    between atoms: C4_6  and  C5_7 
REMARK    5  A    between atoms: C5_7  and  O3_8 
REMARK    6  A    between atoms: C5_7  and  C6_9 
REMARK    7  A    between atoms: C6_9  and  N1_10 
ROOT
HETATM    1  C2  UNL     1      21.512   1.341  52.551  1.00  0.00     0.110 A 
HETATM    2  C3  UNL     1      22.896   1.171  52.422  1.00  0.00     0.103 A 
HETATM    3  C11 UNL     1      23.477   1.509  51.228  1.00  0.00     0.055 A 
HETATM    4  C12 UNL     1      22.685   1.958  50.299  1.00  0.00     0.021 A 
HETATM    5  C13 UNL     1      22.857   2.430  49.075  1.00  0.00     0.052 A 
HETATM    6  N2  UNL     1      22.343   2.940  47.943  1.00  0.00    -0.245 NA
HETATM    7  C14 UNL     1      20.963   3.099  47.966  1.00  0.00     0.234 A 
HETATM    8  N3  UNL     1      20.610   2.681  49.171  1.00  0.00    -0.241 NA
HETATM    9  C15 UNL     1      21.376   2.220  50.100  1.00  0.00     0.080 A 
HETATM   10  C16 UNL     1      21.056   1.832  51.365  1.00  0.00     0.011 A 
HETATM   11  C17 UNL     1      19.792   2.633  51.587  1.00  0.00     0.074 C 
HETATM   12  C18 UNL     1      20.305   4.081  51.633  1.00  0.00     0.022 C 
HETATM   13  C19 UNL     1      21.562   4.410  51.274  1.00  0.00     0.134 C 
HETATM   14  F1  UNL     1      21.216   5.714  51.598  1.00  0.00    -0.205 F 
HETATM   15  C20 UNL     1      22.947   4.859  50.929  1.00  0.00     0.069 C 
HETATM   16 CL1  UNL     1      23.691   6.341  51.632  1.00  0.00    -0.081 Cl
HETATM   17  C21 UNL     1      23.905   4.290  50.121  1.00  0.00     0.006 C 
HETATM   18  C22 UNL     1      24.235   3.069  49.168  1.00  0.00     0.089 C 
ENDROOT
BRANCH   2  19
HETATM   19  O2  UNL     1      23.669   0.691  53.424  1.00  0.00    -0.346 OA
BRANCH  19  20
HETATM   20  C4  UNL     1      23.945  -0.683  53.639  1.00  0.00     0.209 C 
BRANCH  20  21
HETATM   21  C5  UNL     1      25.243  -0.790  54.443  1.00  0.00     0.160 C 
BRANCH  21  22
HETATM   22  O3  UNL     1      24.922  -1.447  55.627  1.00  0.00    -0.392 OA
HETATM   23  H7  UNL     1      24.622  -2.377  55.456  1.00  0.00     0.210 HD
ENDBRANCH  21  22
BRANCH  21  24
HETATM   24  C6  UNL     1      25.720   0.606  54.656  1.00  0.00     0.150 C 
BRANCH  24  25
HETATM   25  N1  UNL     1      27.039   0.914  54.289  1.00  0.00    -0.406 N 
HETATM   26  C7  UNL     1      27.280   1.870  53.280  1.00  0.00     0.143 C 
HETATM   27  C8  UNL     1      28.627   2.539  53.579  1.00  0.00     0.187 C 
HETATM   28  O4  UNL     1      29.313   1.823  54.569  1.00  0.00    -0.388 OA
HETATM   29  C9  UNL     1      29.381   0.470  54.214  1.00  0.00     0.187 C 
HETATM   30  C10 UNL     1      28.009  -0.121  54.445  1.00  0.00     0.143 C 
ENDBRANCH  24  25
ENDBRANCH  21  24
ENDBRANCH  20  21
ENDBRANCH  19  20
ENDBRANCH   2  19
BRANCH   1  31
HETATM   31  O1  UNL     1      20.844   1.034  53.707  1.00  0.00    -0.352 OA
HETATM   32  C1  UNL     1      20.242  -0.265  53.742  1.00  0.00     0.210 C 
ENDBRANCH   1  31
TORSDOF 7
ENDMDL
MODEL 2
REMARK VINA RESULT:      -7.4      2.497      3.966
REMARK  7 active torsions:
REMARK  status: ('A' for Active; 'I' for Inactive)
REMARK    1  A    between atoms: O1_2  and  C2_3 
REMARK    2  A    between atoms: C3_4  and  O2_5 
REMARK    3  A    between atoms: O2_5  and  C4_6 
REMARK    4  A    between atoms: C4_6  and  C5_7 
REMARK    5  A    between atoms: C5_7  and  O3_8 
REMARK    6  A    between atoms: C5_7  and  C6_9 
REMARK    7  A    between atoms: C6_9  and  N1_10 
ROOT
HETATM    1  C2  UNL     1      24.860   3.090  51.120  1.00  0.00     0.110 A 
HETATM    2  C3  UNL     1      23.756   2.474  51.723  1.00  0.00     0.103 A 
HETATM    3  C11 UNL     1      22.629   3.226  51.923  1.00  0.00     0.055 A 
HETATM    4  C12 UNL     1      22.680   4.468  51.539  1.00  0.00     0.021 A 
HETATM    5  C13 UNL     1      21.816   5.469  51.503  1.00  0.00     0.052 A 
HETATM    6  N2  UNL     1      21.529   6.748  51.202  1.00  0.00    -0.245 NA
HETATM    7  C14 UNL     1      22.586   7.451  50.640  1.00  0.00     0.234 A 
HETATM    8  N3  UNL     1      23.567   6.563  50.578  1.00  0.00    -0.241 NA
HETATM    9  C15 UNL     1      23.542   5.335  50.965  1.00  0.00     0.080 A 
HETATM   10  C16 UNL     1      24.510   4.382  50.868  1.00  0.00     0.011 A 
HETATM   11  C17 UNL     1      25.306   4.918  49.699  1.00  0.00     0.074 C 
HETATM   12  C18 UNL     1      24.337   4.752  48.518  1.00  0.00     0.022 C 
HETATM   13  C19 UNL     1      23.037   4.446  48.693  1.00  0.00     0.134 C 
HETATM   14  F1  UNL     1      22.938   4.471  47.310  1.00  0.00    -0.205 F 
HETATM   15  C20 UNL     1      21.591   4.073  48.793  1.00  0.00     0.069 C 
HETATM   16 CL1  UNL     1      20.710   3.233  47.465  1.00  0.00    -0.081 Cl
HETATM   17  C21 UNL     1      20.690   4.217  49.824  1.00  0.00     0.006 C 
HETATM   18  C22 UNL     1      20.492   4.744  51.304  1.00  0.00     0.089 C 
ENDROOT
BRANCH   2  19
HETATM   19  O2  UNL     1      23.766   1.177  52.110  1.00  0.00    -0.346 OA
BRANCH  19  20
HETATM   20  C4  UNL     1      23.100   0.674  53.257  1.00  0.00     0.209 C 
BRANCH  20  21
HETATM   21  C5  UNL     1      23.503  -0.790  53.440  1.00  0.00     0.160 C 
BRANCH  21  22
HETATM   22  O3  UNL     1      22.337  -1.487  53.740  1.00  0.00    -0.392 OA
HETATM   23  H7  UNL     1      21.593  -1.225  53.138  1.00  0.00     0.210 HD
ENDBRANCH  21  22
BRANCH  21  24
HETATM   24  C6  UNL     1      24.502  -0.814  54.546  1.00  0.00     0.150 C 
BRANCH  24  25
HETATM   25  N1  UNL     1      25.850  -0.599  54.220  1.00  0.00    -0.406 N 
HETATM   26  C7  UNL     1      26.522   0.533  54.728  1.00  0.00     0.143 C 
HETATM   27  C8  UNL     1      28.005   0.173  54.876  1.00  0.00     0.187 C 
HETATM   28  O4  UNL     1      28.277  -1.034  54.217  1.00  0.00    -0.388 OA
HETATM   29  C9  UNL     1      27.803  -0.973  52.901  1.00  0.00     0.187 C 
HETATM   30  C10 UNL     1      26.298  -1.106  52.963  1.00  0.00     0.143 C 
ENDBRANCH  24  25
ENDBRANCH  21  24
ENDBRANCH  20  21
ENDBRANCH  19  20
ENDBRANCH   2  19
BRANCH   1  31
HETATM   31  O1  UNL     1      26.028   2.417  50.875  1.00  0.00    -0.352 OA
HETATM   32  C1  UNL     1      27.019   2.513  51.906  1.00  0.00     0.210 C 
ENDBRANCH   1  31
TORSDOF 7
ENDMDL
MODEL 3
REMARK VINA RESULT:      -7.3      2.574      3.898
REMARK  7 active torsions:
REMARK  status: ('A' for Active; 'I' for Inactive)
REMARK    1  A    between atoms: O1_2  and  C2_3 
REMARK    2  A    between atoms: C3_4  and  O2_5 
REMARK    3  A    between atoms: O2_5  and  C4_6 
REMARK    4  A    between atoms: C4_6  and  C5_7 
REMARK    5  A    between atoms: C5_7  and  O3_8 
REMARK    6  A    between atoms: C5_7  and  C6_9 
REMARK    7  A    between atoms: C6_9  and  N1_10 
ROOT
HETATM    1  C2  UNL     1      23.144   4.335  52.290  1.00  0.00     0.110 A 
HETATM    2  C3  UNL     1      23.684   3.054  52.468  1.00  0.00     0.103 A 
HETATM    3  C11 UNL     1      22.828   1.985  52.434  1.00  0.00     0.055 A 
HETATM    4  C12 UNL     1      21.569   2.250  52.244  1.00  0.00     0.021 A 
HETATM    5  C13 UNL     1      20.475   1.521  52.092  1.00  0.00     0.052 A 
HETATM    6  N2  UNL     1      19.149   1.444  51.891  1.00  0.00    -0.245 NA
HETATM    7  C14 UNL     1      18.521   2.675  51.749  1.00  0.00     0.234 A 
HETATM    8  N3  UNL     1      19.507   3.552  51.856  1.00  0.00    -0.241 NA
HETATM    9  C15 UNL     1      20.756   3.312  52.058  1.00  0.00     0.080 A 
HETATM   10  C16 UNL     1      21.801   4.183  52.119  1.00  0.00     0.011 A 
HETATM   11  C17 UNL     1      21.249   5.332  51.305  1.00  0.00     0.074 C 
HETATM   12  C18 UNL     1      21.181   4.747  49.886  1.00  0.00     0.022 C 
HETATM   13  C19 UNL     1      21.350   3.433  49.641  1.00  0.00     0.134 C 
HETATM   14  F1  UNL     1      21.176   3.753  48.302  1.00  0.00    -0.205 F 
HETATM   15  C20 UNL     1      21.559   1.998  49.275  1.00  0.00     0.069 C 
HETATM   16 CL1  UNL     1      22.154   1.485  47.653  1.00  0.00    -0.081 Cl
HETATM   17  C21 UNL     1      21.414   0.846  50.015  1.00  0.00     0.006 C 
HETATM   18  C22 UNL     1      21.017   0.262  51.432  1.00  0.00     0.089 C 
ENDROOT
BRANCH   2  19
HETATM   19  O2  UNL     1      25.005   2.841  52.671  1.00  0.00    -0.346 OA
BRANCH  19  20
HETATM   20  C4  UNL     1      25.567   2.368  53.883  1.00  0.00     0.209 C 
BRANCH  20  21
HETATM   21  C5  UNL     1      27.025   1.985  53.617  1.00  0.00     0.160 C 
BRANCH  21  22
HETATM   22  O3  UNL     1      27.147   1.823  52.241  1.00  0.00    -0.392 OA
HETATM   23  H7  UNL     1      26.985   2.676  51.760  1.00  0.00     0.210 HD
ENDBRANCH  21  22
BRANCH  21  24
HETATM   24  C6  UNL     1      27.273   0.729  54.381  1.00  0.00     0.150 C 
BRANCH  24  25
HETATM   25  N1  UNL     1      27.629  -0.421  53.659  1.00  0.00    -0.406 N 
HETATM   26  C7  UNL     1      28.972  -0.619  53.275  1.00  0.00     0.143 C 
HETATM   27  C8  UNL     1      29.225  -2.130  53.211  1.00  0.00     0.187 C 
HETATM   28  O4  UNL     1      28.010  -2.826  53.274  1.00  0.00    -0.388 OA
HETATM   29  C9  UNL     1      27.126  -2.324  52.311  1.00  0.00     0.187 C 
HETATM   30  C10 UNL     1      26.626  -0.990  52.818  1.00  0.00     0.143 C 
ENDBRANCH  24  25
ENDBRANCH  21  24
ENDBRANCH  20  21
ENDBRANCH  19  20
ENDBRANCH   2  19
BRANCH   1  31
HETATM   31  O1  UNL     1      23.921   5.462  52.305  1.00  0.00    -0.352 OA
HETATM   32  C1  UNL     1      24.519   5.812  51.051  1.00  0.00     0.210 C 
ENDBRANCH   1  31
TORSDOF 7
ENDMDL
MODEL 4
REMARK VINA RESULT:      -7.3      5.537      7.447
REMARK  7 active torsions:
REMARK  status: ('A' for Active; 'I' for Inactive)
REMARK    1  A    between atoms: O1_2  and  C2_3 
REMARK    2  A    between atoms: C3_4  and  O2_5 
REMARK    3  A    between atoms: O2_5  and  C4_6 
REMARK    4  A    between atoms: C4_6  and  C5_7 
REMARK    5  A    between atoms: C5_7  and  O3_8 
REMARK    6  A    between atoms: C5_7  and  C6_9 
REMARK    7  A    between atoms: C6_9  and  N1_10 
ROOT
HETATM    1  C2  UNL     1      26.301   7.498  49.369  1.00  0.00     0.110 A 
HETATM    2  C3  UNL     1      26.859   6.354  48.785  1.00  0.00     0.103 A 
HETATM    3  C11 UNL     1      26.372   5.132  49.169  1.00  0.00     0.055 A 
HETATM    4  C12 UNL     1      25.425   5.135  50.061  1.00  0.00     0.021 A 
HETATM    5  C13 UNL     1      24.676   4.204  50.629  1.00  0.00     0.052 A 
HETATM    6  N2  UNL     1      23.701   3.860  51.487  1.00  0.00    -0.245 NA
HETATM    7  C14 UNL     1      23.120   4.934  52.149  1.00  0.00     0.234 A 
HETATM    8  N3  UNL     1      23.757   5.991  51.669  1.00  0.00    -0.241 NA
HETATM    9  C15 UNL     1      24.705   6.009  50.797  1.00  0.00     0.080 A 
HETATM   10  C16 UNL     1      25.344   7.076  50.242  1.00  0.00     0.011 A 
HETATM   11  C17 UNL     1      24.289   8.147  50.414  1.00  0.00     0.074 C 
HETATM   12  C18 UNL     1      23.177   7.691  49.457  1.00  0.00     0.022 C 
HETATM   13  C19 UNL     1      23.176   6.471  48.885  1.00  0.00     0.134 C 
HETATM   14  F1  UNL     1      22.001   6.864  48.261  1.00  0.00    -0.205 F 
HETATM   15  C20 UNL     1      23.114   5.153  48.179  1.00  0.00     0.069 C 
HETATM   16 CL1  UNL     1      22.250   4.928  46.614  1.00  0.00    -0.081 Cl
HETATM   17  C21 UNL     1      23.679   3.936  48.487  1.00  0.00     0.006 C 
HETATM   18  C22 UNL     1      24.579   3.155  49.530  1.00  0.00     0.089 C 
ENDROOT
BRANCH   2  19
HETATM   19  O2  UNL     1      27.851   6.413  47.866  1.00  0.00    -0.346 OA
BRANCH  19  20
HETATM   20  C4  UNL     1      29.185   6.801  48.146  1.00  0.00     0.209 C 
BRANCH  20  21
HETATM   21  C5  UNL     1      30.034   5.535  48.278  1.00  0.00     0.160 C 
BRANCH  21  22
HETATM   22  O3  UNL     1      30.462   5.482  49.600  1.00  0.00    -0.392 OA
HETATM   23  H7  UNL     1      29.754   5.124  50.196  1.00  0.00     0.210 HD
ENDBRANCH  21  22
BRANCH  21  24
HETATM   24  C6  UNL     1      31.154   5.679  47.304  1.00  0.00     0.150 C 
BRANCH  24  25
HETATM   25  N1  UNL     1      32.113   4.657  47.248  1.00  0.00    -0.406 N 
HETATM   26  C7  UNL     1      33.484   4.985  47.188  1.00  0.00     0.143 C 
HETATM   27  C8  UNL     1      34.268   3.853  47.861  1.00  0.00     0.187 C 
HETATM   28  O4  UNL     1      33.435   2.745  48.070  1.00  0.00    -0.388 OA
HETATM   29  C9  UNL     1      32.796   2.402  46.872  1.00  0.00     0.187 C 
HETATM   30  C10 UNL     1      31.714   3.431  46.634  1.00  0.00     0.143 C 
ENDBRANCH  24  25
ENDBRANCH  21  24
ENDBRANCH  20  21
ENDBRANCH  19  20
ENDBRANCH   2  19
BRANCH   1  31
HETATM   31  O1  UNL     1      26.720   8.761  49.045  1.00  0.00    -0.352 OA
HETATM   32  C1  UNL     1      27.666   9.345  49.948  1.00  0.00     0.210 C 
ENDBRANCH   1  31
TORSDOF 7
ENDMDL
MODEL 5
REMARK VINA RESULT:      -7.2      4.217      8.297
REMARK  7 active torsions:
REMARK  status: ('A' for Active; 'I' for Inactive)
REMARK    1  A    between atoms: O1_2  and  C2_3 
REMARK    2  A    between atoms: C3_4  and  O2_5 
REMARK    3  A    between atoms: O2_5  and  C4_6 
REMARK    4  A    between atoms: C4_6  and  C5_7 
REMARK    5  A    between atoms: C5_7  and  O3_8 
REMARK    6  A    between atoms: C5_7  and  C6_9 
REMARK    7  A    between atoms: C6_9  and  N1_10 
ROOT
HETATM    1  C2  UNL     1      19.643   1.723  51.403  1.00  0.00     0.110 A 
HETATM    2  C3  UNL     1      19.527   3.035  51.878  1.00  0.00     0.103 A 
HETATM    3  C11 UNL     1      20.669   3.681  52.273  1.00  0.00     0.055 A 
HETATM    4  C12 UNL     1      21.780   3.011  52.179  1.00  0.00     0.021 A 
HETATM    5  C13 UNL     1      23.056   3.287  52.393  1.00  0.00     0.052 A 
HETATM    6  N2  UNL     1      24.344   2.903  52.398  1.00  0.00    -0.245 NA
HETATM    7  C14 UNL     1      24.549   1.593  51.983  1.00  0.00     0.234 A 
HETATM    8  N3  UNL     1      23.334   1.153  51.696  1.00  0.00    -0.241 NA
HETATM    9  C15 UNL     1      22.220   1.793  51.796  1.00  0.00     0.080 A 
HETATM   10  C16 UNL     1      20.963   1.392  51.460  1.00  0.00     0.011 A 
HETATM   11  C17 UNL     1      21.279   0.337  50.423  1.00  0.00     0.074 C 
HETATM   12  C18 UNL     1      21.856   1.159  49.261  1.00  0.00     0.022 C 
HETATM   13  C19 UNL     1      22.188   2.458  49.394  1.00  0.00     0.134 C 
HETATM   14  F1  UNL     1      22.548   2.411  48.056  1.00  0.00    -0.205 F 
HETATM   15  C20 UNL     1      22.549   3.910  49.444  1.00  0.00     0.069 C 
HETATM   16 CL1  UNL     1      22.541   4.964  47.982  1.00  0.00    -0.081 Cl
HETATM   17  C21 UNL     1      22.890   4.720  50.503  1.00  0.00     0.006 C 
HETATM   18  C22 UNL     1      23.122   4.773  52.068  1.00  0.00     0.089 C 
ENDROOT
BRANCH   2  19
HETATM   19  O2  UNL     1      18.339   3.679  51.961  1.00  0.00    -0.346 OA
BRANCH  19  20
HETATM   20  C4  UNL     1      17.646   4.237  50.858  1.00  0.00     0.209 C 
BRANCH  20  21
HETATM   21  C5  UNL     1      16.159   3.912  51.011  1.00  0.00     0.160 C 
BRANCH  21  22
HETATM   22  O3  UNL     1      15.476   4.771  50.156  1.00  0.00    -0.392 OA
HETATM   23  H7  UNL     1      15.259   4.330  49.295  1.00  0.00     0.210 HD
ENDBRANCH  21  22
BRANCH  21  24
HETATM   24  C6  UNL     1      15.830   4.128  52.448  1.00  0.00     0.150 C 
BRANCH  24  25
HETATM   25  N1  UNL     1      14.563   3.729  52.900  1.00  0.00    -0.406 N 
HETATM   26  C7  UNL     1      13.888   4.502  53.869  1.00  0.00     0.143 C 
HETATM   27  C8  UNL     1      12.382   4.333  53.640  1.00  0.00     0.187 C 
HETATM   28  O4  UNL     1      12.144   3.277  52.750  1.00  0.00    -0.388 OA
HETATM   29  C9  UNL     1      12.816   2.129  53.187  1.00  0.00     0.187 C 
HETATM   30  C10 UNL     1      14.284   2.329  52.882  1.00  0.00     0.143 C 
ENDBRANCH  24  25
ENDBRANCH  21  24
ENDBRANCH  20  21
ENDBRANCH  19  20
ENDBRANCH   2  19
BRANCH   1  31
HETATM   31  O1  UNL     1      18.558   1.000  50.983  1.00  0.00    -0.352 OA
HETATM   32  C1  UNL     1      17.985   0.128  51.964  1.00  0.00     0.210 C 
ENDBRANCH   1  31
TORSDOF 7
ENDMDL
MODEL 6
REMARK VINA RESULT:      -7.0      5.330      7.205
REMARK  7 active torsions:
REMARK  status: ('A' for Active; 'I' for Inactive)
REMARK    1  A    between atoms: O1_2  and  C2_3 
REMARK    2  A    between atoms: C3_4  and  O2_5 
REMARK    3  A    between atoms: O2_5  and  C4_6 
REMARK    4  A    between atoms: C4_6  and  C5_7 
REMARK    5  A    between atoms: C5_7  and  O3_8 
REMARK    6  A    between atoms: C5_7  and  C6_9 
REMARK    7  A    between atoms: C6_9  and  N1_10 
ROOT
HETATM    1  C2  UNL     1      24.901   7.011  49.668  1.00  0.00     0.110 A 
HETATM    2  C3  UNL     1      25.760   5.922  49.470  1.00  0.00     0.103 A 
HETATM    3  C11 UNL     1      25.406   4.716  50.013  1.00  0.00     0.055 A 
HETATM    4  C12 UNL     1      24.291   4.681  50.683  1.00  0.00     0.021 A 
HETATM    5  C13 UNL     1      23.595   3.733  51.288  1.00  0.00     0.052 A 
HETATM    6  N2  UNL     1      22.518   3.353  51.996  1.00  0.00    -0.245 NA
HETATM    7  C14 UNL     1      21.631   4.384  52.280  1.00  0.00     0.234 A 
HETATM    8  N3  UNL     1      22.178   5.446  51.709  1.00  0.00    -0.241 NA
HETATM    9  C15 UNL     1      23.287   5.504  51.055  1.00  0.00     0.080 A 
HETATM   10  C16 UNL     1      23.852   6.563  50.411  1.00  0.00     0.011 A 
HETATM   11  C17 UNL     1      22.624   7.403  50.135  1.00  0.00     0.074 C 
HETATM   12  C18 UNL     1      21.854   6.560  49.108  1.00  0.00     0.022 C 
HETATM   13  C19 UNL     1      22.187   5.285  48.830  1.00  0.00     0.134 C 
HETATM   14  F1  UNL     1      21.139   5.304  47.920  1.00  0.00    -0.205 F 
HETATM   15  C20 UNL     1      22.508   3.878  48.435  1.00  0.00     0.069 C 
HETATM   16 CL1  UNL     1      22.078   3.199  46.822  1.00  0.00    -0.081 Cl
HETATM   17  C21 UNL     1      23.179   2.881  49.107  1.00  0.00     0.006 C 
HETATM   18  C22 UNL     1      23.929   2.506  50.451  1.00  0.00     0.089 C 
ENDROOT
BRANCH   2  19
HETATM   19  O2  UNL     1      26.914   6.021  48.769  1.00  0.00    -0.346 OA
BRANCH  19  20
HETATM   20  C4  UNL     1      27.837   4.961  48.584  1.00  0.00     0.209 C 
BRANCH  20  21
HETATM   21  C5  UNL     1      29.175   5.562  48.149  1.00  0.00     0.160 C 
BRANCH  21  22
HETATM   22  O3  UNL     1      29.990   5.570  49.277  1.00  0.00    -0.392 OA
HETATM   23  H7  UNL     1      29.571   6.071  50.024  1.00  0.00     0.210 HD
ENDBRANCH  21  22
BRANCH  21  24
HETATM   24  C6  UNL     1      28.873   6.927  47.633  1.00  0.00     0.150 C 
BRANCH  24  25
HETATM   25  N1  UNL     1      29.799   7.949  47.894  1.00  0.00    -0.406 N 
HETATM   26  C7  UNL     1      29.462   8.987  48.788  1.00  0.00     0.143 C 
HETATM   27  C8  UNL     1      30.756   9.479  49.446  1.00  0.00     0.187 C 
HETATM   28  O4  UNL     1      31.870   8.959  48.771  1.00  0.00    -0.388 OA
HETATM   29  C9  UNL     1      31.756   9.220  47.400  1.00  0.00     0.187 C 
HETATM   30  C10 UNL     1      30.717   8.268  46.850  1.00  0.00     0.143 C 
ENDBRANCH  24  25
ENDBRANCH  21  24
ENDBRANCH  20  21
ENDBRANCH  19  20
ENDBRANCH   2  19
BRANCH   1  31
HETATM   31  O1  UNL     1      25.170   8.254  49.159  1.00  0.00    -0.352 OA
HETATM   32  C1  UNL     1      25.940   9.112  50.010  1.00  0.00     0.210 C 
ENDBRANCH   1  31
TORSDOF 7
ENDMDL
MODEL 7
REMARK VINA RESULT:      -6.8     22.067     24.870
REMARK  7 active torsions:
REMARK  status: ('A' for Active; 'I' for Inactive)
REMARK    1  A    between atoms: O1_2  and  C2_3 
REMARK    2  A    between atoms: C3_4  and  O2_5 
REMARK    3  A    between atoms: O2_5  and  C4_6 
REMARK    4  A    between atoms: C4_6  and  C5_7 
REMARK    5  A    between atoms: C5_7  and  O3_8 
REMARK    6  A    between atoms: C5_7  and  C6_9 
REMARK    7  A    between atoms: C6_9  and  N1_10 
ROOT
HETATM    1  C2  UNL     1      42.252  -1.593  68.109  1.00  0.00     0.110 A 
HETATM    2  C3  UNL     1      41.674  -0.412  67.626  1.00  0.00     0.103 A 
HETATM    3  C11 UNL     1      40.376  -0.463  67.191  1.00  0.00     0.055 A 
HETATM    4  C12 UNL     1      39.782  -1.618  67.257  1.00  0.00     0.021 A 
HETATM    5  C13 UNL     1      38.560  -2.055  67.001  1.00  0.00     0.052 A 
HETATM    6  N2  UNL     1      37.669  -3.060  66.960  1.00  0.00    -0.245 NA
HETATM    7  C14 UNL     1      38.173  -4.284  67.380  1.00  0.00     0.234 A 
HETATM    8  N3  UNL     1      39.428  -4.021  67.708  1.00  0.00    -0.241 NA
HETATM    9  C15 UNL     1      40.039  -2.888  67.637  1.00  0.00     0.080 A 
HETATM   10  C16 UNL     1      41.308  -2.569  68.014  1.00  0.00     0.011 A 
HETATM   11  C17 UNL     1      41.564  -3.642  69.051  1.00  0.00     0.074 C 
HETATM   12  C18 UNL     1      40.604  -3.257  70.187  1.00  0.00     0.022 C 
HETATM   13  C19 UNL     1      39.642  -2.327  70.032  1.00  0.00     0.134 C 
HETATM   14  F1  UNL     1      39.320  -2.569  71.360  1.00  0.00    -0.205 F 
HETATM   15  C20 UNL     1      38.571  -1.284  69.959  1.00  0.00     0.069 C 
HETATM   16 CL1  UNL     1      37.978  -0.397  71.411  1.00  0.00    -0.081 Cl
HETATM   17  C21 UNL     1      37.887  -0.765  68.883  1.00  0.00     0.006 C 
HETATM   18  C22 UNL     1      37.711  -0.830  67.310  1.00  0.00     0.089 C 
ENDROOT
BRANCH   2  19
HETATM   19  O2  UNL     1      42.346   0.762  67.574  1.00  0.00    -0.346 OA
BRANCH  19  20
HETATM   20  C4  UNL     1      42.499   1.651  68.667  1.00  0.00     0.209 C 
BRANCH  20  21
HETATM   21  C5  UNL     1      43.708   2.547  68.390  1.00  0.00     0.160 C 
BRANCH  21  22
HETATM   22  O3  UNL     1      44.837   1.796  68.705  1.00  0.00    -0.392 OA
HETATM   23  H7  UNL     1      45.586   1.989  68.084  1.00  0.00     0.210 HD
ENDBRANCH  21  22
BRANCH  21  24
HETATM   24  C6  UNL     1      43.544   3.751  69.253  1.00  0.00     0.150 C 
BRANCH  24  25
HETATM   25  N1  UNL     1      43.798   5.008  68.684  1.00  0.00    -0.406 N 
HETATM   26  C7  UNL     1      45.014   5.238  68.007  1.00  0.00     0.143 C 
HETATM   27  C8  UNL     1      44.757   6.287  66.920  1.00  0.00     0.187 C 
HETATM   28  O4  UNL     1      43.503   6.883  67.111  1.00  0.00    -0.388 OA
HETATM   29  C9  UNL     1      43.394   7.345  68.428  1.00  0.00     0.187 C 
HETATM   30  C10 UNL     1      43.184   6.134  69.309  1.00  0.00     0.143 C 
ENDBRANCH  24  25
ENDBRANCH  21  24
ENDBRANCH  20  21
ENDBRANCH  19  20
ENDBRANCH   2  19
BRANCH   1  31
HETATM   31  O1  UNL     1      43.542  -1.638  68.569  1.00  0.00    -0.352 OA
HETATM   32  C1  UNL     1      43.710  -1.333  69.958  1.00  0.00     0.210 C 
ENDBRANCH   1  31
TORSDOF 7
ENDMDL
MODEL 8
REMARK VINA RESULT:      -6.8      8.784     11.982
REMARK  7 active torsions:
REMARK  status: ('A' for Active; 'I' for Inactive)
REMARK    1  A    between atoms: O1_2  and  C2_3 
REMARK    2  A    between atoms: C3_4  and  O2_5 
REMARK    3  A    between atoms: O2_5  and  C4_6 
REMARK    4  A    between atoms: C4_6  and  C5_7 
REMARK    5  A    between atoms: C5_7  and  O3_8 
REMARK    6  A    between atoms: C5_7  and  C6_9 
REMARK    7  A    between atoms: C6_9  and  N1_10 
ROOT
HETATM    1  C2  UNL     1      30.571   6.703  47.778  1.00  0.00     0.110 A 
HETATM    2  C3  UNL     1      30.849   8.060  47.985  1.00  0.00     0.103 A 
HETATM    3  C11 UNL     1      32.134   8.412  48.304  1.00  0.00     0.055 A 
HETATM    4  C12 UNL     1      33.000   7.445  48.397  1.00  0.00     0.021 A 
HETATM    5  C13 UNL     1      34.302   7.378  48.617  1.00  0.00     0.052 A 
HETATM    6  N2  UNL     1      35.421   6.646  48.759  1.00  0.00    -0.245 NA
HETATM    7  C14 UNL     1      35.229   5.278  48.615  1.00  0.00     0.234 A 
HETATM    8  N3  UNL     1      33.935   5.160  48.359  1.00  0.00    -0.241 NA
HETATM    9  C15 UNL     1      33.060   6.102  48.277  1.00  0.00     0.080 A 
HETATM   10  C16 UNL     1      31.737   6.023  47.964  1.00  0.00     0.011 A 
HETATM   11  C17 UNL     1      31.721   4.737  47.166  1.00  0.00     0.074 C 
HETATM   12  C18 UNL     1      32.503   5.110  45.897  1.00  0.00     0.022 C 
HETATM   13  C19 UNL     1      33.202   6.257  45.794  1.00  0.00     0.134 C 
HETATM   14  F1  UNL     1      33.520   5.842  44.509  1.00  0.00    -0.205 F 
HETATM   15  C20 UNL     1      33.973   7.521  45.581  1.00  0.00     0.069 C 
HETATM   16 CL1  UNL     1      34.261   8.221  43.946  1.00  0.00    -0.081 Cl
HETATM   17  C21 UNL     1      34.546   8.393  46.480  1.00  0.00     0.006 C 
HETATM   18  C22 UNL     1      34.798   8.685  48.016  1.00  0.00     0.089 C 
ENDROOT
BRANCH   2  19
HETATM   19  O2  UNL     1      29.903   9.022  47.884  1.00  0.00    -0.346 OA
BRANCH  19  20
HETATM   20  C4  UNL     1      29.734  10.086  48.805  1.00  0.00     0.209 C 
BRANCH  20  21
HETATM   21  C5  UNL     1      28.235  10.336  48.978  1.00  0.00     0.160 C 
BRANCH  21  22
HETATM   22  O3  UNL     1      28.110  11.570  49.609  1.00  0.00    -0.392 OA
HETATM   23  H7  UNL     1      28.996  11.982  49.779  1.00  0.00     0.210 HD
ENDBRANCH  21  22
BRANCH  21  24
HETATM   24  C6  UNL     1      27.713   9.203  49.795  1.00  0.00     0.150 C 
BRANCH  24  25
HETATM   25  N1  UNL     1      26.609   8.491  49.302  1.00  0.00    -0.406 N 
HETATM   26  C7  UNL     1      25.861   9.014  48.226  1.00  0.00     0.143 C 
HETATM   27  C8  UNL     1      25.276   7.833  47.442  1.00  0.00     0.187 C 
HETATM   28  O4  UNL     1      25.423   6.647  48.175  1.00  0.00    -0.388 OA
HETATM   29  C9  UNL     1      24.912   6.822  49.466  1.00  0.00     0.187 C 
HETATM   30  C10 UNL     1      25.911   7.661  50.231  1.00  0.00     0.143 C 
ENDBRANCH  24  25
ENDBRANCH  21  24
ENDBRANCH  20  21
ENDBRANCH  19  20
ENDBRANCH   2  19
BRANCH   1  31
HETATM   31  O1  UNL     1      29.319   6.256  47.452  1.00  0.00    -0.352 OA
HETATM   32  C1  UNL     1      28.640   5.526  48.481  1.00  0.00     0.210 C 
ENDBRANCH   1  31
TORSDOF 7
ENDMDL
MODEL 9
REMARK VINA RESULT:      -6.8      7.521      9.734
REMARK  7 active torsions:
REMARK  status: ('A' for Active; 'I' for Inactive)
REMARK    1  A    between atoms: O1_2  and  C2_3 
REMARK    2  A    between atoms: C3_4  and  O2_5 
REMARK    3  A    between atoms: O2_5  and  C4_6 
REMARK    4  A    between atoms: C4_6  and  C5_7 
REMARK    5  A    between atoms: C5_7  and  O3_8 
REMARK    6  A    between atoms: C5_7  and  C6_9 
REMARK    7  A    between atoms: C6_9  and  N1_10 
ROOT
HETATM    1  C2  UNL     1      28.198   8.549  48.652  1.00  0.00     0.110 A 
HETATM    2  C3  UNL     1      28.084   7.516  47.713  1.00  0.00     0.103 A 
HETATM    3  C11 UNL     1      28.886   7.563  46.604  1.00  0.00     0.055 A 
HETATM    4  C12 UNL     1      29.692   8.580  46.508  1.00  0.00     0.021 A 
HETATM    5  C13 UNL     1      30.633   8.947  45.654  1.00  0.00     0.052 A 
HETATM    6  N2  UNL     1      31.577   9.823  45.271  1.00  0.00    -0.245 NA
HETATM    7  C14 UNL     1      31.727  10.909  46.123  1.00  0.00     0.234 A 
HETATM    8  N3  UNL     1      30.844  10.688  47.085  1.00  0.00    -0.241 NA
HETATM    9  C15 UNL     1      30.028   9.697  47.190  1.00  0.00     0.080 A 
HETATM   10  C16 UNL     1      29.147   9.409  48.188  1.00  0.00     0.011 A 
HETATM   11  C17 UNL     1      29.794  10.141  49.344  1.00  0.00     0.074 C 
HETATM   12  C18 UNL     1      31.082   9.338  49.582  1.00  0.00     0.022 C 
HETATM   13  C19 UNL     1      31.518   8.405  48.713  1.00  0.00     0.134 C 
HETATM   14  F1  UNL     1      32.569   8.203  49.596  1.00  0.00    -0.205 F 
HETATM   15  C20 UNL     1      32.056   7.330  47.822  1.00  0.00     0.069 C 
HETATM   16 CL1  UNL     1      33.098   5.992  48.433  1.00  0.00    -0.081 Cl
HETATM   17  C21 UNL     1      31.871   7.092  46.479  1.00  0.00     0.006 C 
HETATM   18  C22 UNL     1      31.160   7.607  45.161  1.00  0.00     0.089 C 
ENDROOT
BRANCH   2  19
HETATM   19  O2  UNL     1      27.218   6.486  47.863  1.00  0.00    -0.346 OA
BRANCH  19  20
HETATM   20  C4  UNL     1      27.515   5.277  48.540  1.00  0.00     0.209 C 
BRANCH  20  21
HETATM   21  C5  UNL     1      26.289   4.876  49.364  1.00  0.00     0.160 C 
BRANCH  21  22
HETATM   22  O3  UNL     1      26.170   5.819  50.379  1.00  0.00    -0.392 OA
HETATM   23  H7  UNL     1      27.012   6.330  50.501  1.00  0.00     0.210 HD
ENDBRANCH  21  22
BRANCH  21  24
HETATM   24  C6  UNL     1      26.557   3.499  49.868  1.00  0.00     0.150 C 
BRANCH  24  25
HETATM   25  N1  UNL     1      25.732   3.001  50.889  1.00  0.00    -0.406 N 
HETATM   26  C7  UNL     1      26.270   2.135  51.864  1.00  0.00     0.143 C 
HETATM   27  C8  UNL     1      25.480   2.340  53.162  1.00  0.00     0.187 C 
HETATM   28  O4  UNL     1      24.324   3.092  52.911  1.00  0.00    -0.388 OA
HETATM   29  C9  UNL     1      23.605   2.517  51.856  1.00  0.00     0.187 C 
HETATM   30  C10 UNL     1      24.347   2.846  50.579  1.00  0.00     0.143 C 
ENDBRANCH  24  25
ENDBRANCH  21  24
ENDBRANCH  20  21
ENDBRANCH  19  20
ENDBRANCH   2  19
BRANCH   1  31
HETATM   31  O1  UNL     1      27.441   8.585  49.793  1.00  0.00    -0.352 OA
HETATM   32  C1  UNL     1      26.218   9.325  49.696  1.00  0.00     0.210 C 
ENDBRANCH   1  31
TORSDOF 7
ENDMDL
