MODEL 1
REMARK VINA RESULT:      -8.2      0.000      0.000
REMARK  6 active torsions:
REMARK  status: ('A' for Active; 'I' for Inactive)
REMARK    1  A    between atoms: C2_2  and  O1_3 
REMARK    2  A    between atoms: O1_3  and  C3_4 
REMARK    3  A    between atoms: C5_6  and  C6_7 
REMARK    4  A    between atoms: C12_15  and  C13_16 
REMARK    5  A    between atoms: C13_16  and  C14_17 
REMARK    6  A    between atoms: C20_24  and  O3_25 
ROOT
HETATM    1  C3  UNL     1      22.884   0.706  53.304  1.00  0.00     0.103 A 
HETATM    2  C4  UNL     1      24.115   0.114  53.493  1.00  0.00     0.051 A 
HETATM    3  C5  UNL     1      25.203   0.282  52.663  1.00  0.00    -0.032 A 
HETATM    4  C11 UNL     1      24.987   1.115  51.576  1.00  0.00     0.022 A 
HETATM    5  C12 UNL     1      23.796   1.746  51.309  1.00  0.00    -0.017 A 
HETATM    6  C20 UNL     1      22.760   1.524  52.191  1.00  0.00     0.105 A 
ENDROOT
BRANCH   3   7
HETATM    7  C6  UNL     1      26.492  -0.340  52.906  1.00  0.00     0.024 C 
HETATM    8  C7  UNL     1      27.636   0.057  53.377  1.00  0.00     0.012 C 
HETATM    9  C8  UNL     1      28.849  -0.805  53.534  1.00  0.00     0.064 C 
HETATM   10  C10 UNL     1      28.084   1.349  53.839  1.00  0.00     0.247 C 
HETATM   11  C9  UNL     1      30.015   0.161  53.519  1.00  0.00     0.128 C 
HETATM   12  N1  UNL     1      29.489   1.382  54.129  1.00  0.00    -0.357 N 
HETATM   13  H12 UNL     1      30.045   2.096  54.653  1.00  0.00     0.162 HD
HETATM   14  O2  UNL     1      27.406   2.386  54.001  1.00  0.00    -0.268 OA
ENDBRANCH   3   7
BRANCH   1  15
HETATM   15  O1  UNL     1      21.803   0.521  54.154  1.00  0.00    -0.349 OA
BRANCH  15  16
HETATM   16  C2  UNL     1      21.719  -0.651  54.900  1.00  0.00     0.171 C 
HETATM   17  C1  UNL     1      20.843  -1.702  54.254  1.00  0.00     0.034 C 
ENDBRANCH  15  16
ENDBRANCH   1  15
BRANCH   5  18
HETATM   18  C13 UNL     1      23.506   2.642  50.180  1.00  0.00     0.087 C 
BRANCH  18  19
HETATM   19  C14 UNL     1      24.231   3.957  50.328  1.00  0.00    -0.013 C 
HETATM   20  C15 UNL     1      23.550   4.874  51.000  1.00  0.00     0.015 C 
HETATM   21  C16 UNL     1      23.925   6.229  51.331  1.00  0.00     0.001 C 
HETATM   22  C17 UNL     1      24.859   7.008  50.854  1.00  0.00     0.001 C 
HETATM   23  C18 UNL     1      25.863   6.830  49.833  1.00  0.00     0.007 C 
HETATM   24  C19 UNL     1      26.287   5.712  49.297  1.00  0.00     0.050 C 
HETATM   25  S1  UNL     1      25.835   3.997  49.579  1.00  0.00    -0.106 SA
ENDBRANCH  18  19
ENDBRANCH   5  18
BRANCH   6  26
HETATM   26  O3  UNL     1      21.508   2.126  51.997  1.00  0.00    -0.357 OA
HETATM   27  H21 UNL     1      21.317   2.917  52.617  1.00  0.00     0.217 HD
ENDBRANCH   6  26
TORSDOF 6
ENDMDL
MODEL 2
REMARK VINA RESULT:      -8.1      3.224      6.480
REMARK  6 active torsions:
REMARK  status: ('A' for Active; 'I' for Inactive)
REMARK    1  A    between atoms: C2_2  and  O1_3 
REMARK    2  A    between atoms: O1_3  and  C3_4 
REMARK    3  A    between atoms: C5_6  and  C6_7 
REMARK    4  A    between atoms: C12_15  and  C13_16 
REMARK    5  A    between atoms: C13_16  and  C14_17 
REMARK    6  A    between atoms: C20_24  and  O3_25 
ROOT
HETATM    1  C3  UNL     1      23.771   3.130  49.896  1.00  0.00     0.103 A 
HETATM    2  C4  UNL     1      24.821   3.725  49.230  1.00  0.00     0.051 A 
HETATM    3  C5  UNL     1      26.112   3.799  49.708  1.00  0.00    -0.032 A 
HETATM    4  C11 UNL     1      26.311   3.217  50.950  1.00  0.00     0.022 A 
HETATM    5  C12 UNL     1      25.325   2.604  51.685  1.00  0.00    -0.017 A 
HETATM    6  C20 UNL     1      24.062   2.574  51.133  1.00  0.00     0.105 A 
ENDROOT
BRANCH   3   7
HETATM    7  C6  UNL     1      27.200   4.412  48.967  1.00  0.00     0.024 C 
HETATM    8  C7  UNL     1      27.553   5.629  48.681  1.00  0.00     0.012 C 
HETATM    9  C8  UNL     1      28.756   6.010  47.877  1.00  0.00     0.064 C 
HETATM   10  C10 UNL     1      26.944   6.900  48.991  1.00  0.00     0.247 C 
HETATM   11  C9  UNL     1      28.429   7.378  47.316  1.00  0.00     0.128 C 
HETATM   12  N1  UNL     1      27.588   8.003  48.336  1.00  0.00    -0.357 N 
HETATM   13  H12 UNL     1      27.501   9.029  48.517  1.00  0.00     0.162 HD
HETATM   14  O2  UNL     1      25.964   7.123  49.734  1.00  0.00    -0.268 OA
ENDBRANCH   3   7
BRANCH   1  15
HETATM   15  O1  UNL     1      22.478   3.068  49.394  1.00  0.00    -0.349 OA
BRANCH  15  16
HETATM   16  C2  UNL     1      22.199   2.202  48.341  1.00  0.00     0.171 C 
HETATM   17  C1  UNL     1      21.435   0.971  48.774  1.00  0.00     0.034 C 
ENDBRANCH  15  16
ENDBRANCH   1  15
BRANCH   5  18
HETATM   18  C13 UNL     1      25.472   1.968  53.002  1.00  0.00     0.087 C 
BRANCH  18  19
HETATM   19  C14 UNL     1      26.681   1.067  53.040  1.00  0.00    -0.013 C 
HETATM   20  C15 UNL     1      26.425  -0.191  52.710  1.00  0.00     0.015 C 
HETATM   21  C16 UNL     1      27.327  -1.317  52.637  1.00  0.00     0.001 C 
HETATM   22  C17 UNL     1      28.528  -1.495  53.121  1.00  0.00     0.001 C 
HETATM   23  C18 UNL     1      29.409  -0.660  53.901  1.00  0.00     0.007 C 
HETATM   24  C19 UNL     1      29.340   0.634  54.095  1.00  0.00     0.050 C 
HETATM   25  S1  UNL     1      28.183   1.877  53.510  1.00  0.00    -0.106 SA
ENDBRANCH  18  19
ENDBRANCH   5  18
BRANCH   6  26
HETATM   26  O3  UNL     1      22.994   1.970  51.811  1.00  0.00    -0.357 OA
HETATM   27  H21 UNL     1      23.076   1.984  52.831  1.00  0.00     0.217 HD
ENDBRANCH   6  26
TORSDOF 6
ENDMDL
MODEL 3
REMARK VINA RESULT:      -8.0      2.438      5.275
REMARK  6 active torsions:
REMARK  status: ('A' for Active; 'I' for Inactive)
REMARK    1  A    between atoms: C2_2  and  O1_3 
REMARK    2  A    between atoms: O1_3  and  C3_4 
REMARK    3  A    between atoms: C5_6  and  C6_7 
REMARK    4  A    between atoms: C12_15  and  C13_16 
REMARK    5  A    between atoms: C13_16  and  C14_17 
REMARK    6  A    between atoms: C20_24  and  O3_25 
ROOT
HETATM    1  C3  UNL     1      27.058   1.268  53.689  1.00  0.00     0.103 A 
HETATM    2  C4  UNL     1      25.992   0.428  53.935  1.00  0.00     0.051 A 
HETATM    3  C5  UNL     1      24.877   0.321  53.132  1.00  0.00    -0.032 A 
HETATM    4  C11 UNL     1      24.880   1.138  52.012  1.00  0.00     0.022 A 
HETATM    5  C12 UNL     1      25.897   2.004  51.689  1.00  0.00    -0.017 A 
HETATM    6  C20 UNL     1      26.976   2.049  52.546  1.00  0.00     0.105 A 
ENDROOT
BRANCH   3   7
HETATM    7  C6  UNL     1      23.783  -0.593  53.409  1.00  0.00     0.024 C 
HETATM    8  C7  UNL     1      22.488  -0.504  53.438  1.00  0.00     0.012 C 
HETATM    9  C8  UNL     1      21.554  -1.627  53.760  1.00  0.00     0.064 C 
HETATM   10  C10 UNL     1      21.600   0.613  53.214  1.00  0.00     0.247 C 
HETATM   11  C9  UNL     1      20.291  -0.951  54.253  1.00  0.00     0.128 C 
HETATM   12  N1  UNL     1      20.230   0.304  53.505  1.00  0.00    -0.357 N 
HETATM   13  H12 UNL     1      19.360   0.830  53.258  1.00  0.00     0.162 HD
HETATM   14  O2  UNL     1      21.893   1.760  52.813  1.00  0.00    -0.268 OA
ENDBRANCH   3   7
BRANCH   1  15
HETATM   15  O1  UNL     1      28.171   1.359  54.514  1.00  0.00    -0.349 OA
BRANCH  15  16
HETATM   16  C2  UNL     1      28.895   0.207  54.807  1.00  0.00     0.171 C 
HETATM   17  C1  UNL     1      29.699  -0.302  53.631  1.00  0.00     0.034 C 
ENDBRANCH  15  16
ENDBRANCH   1  15
BRANCH   5  18
HETATM   18  C13 UNL     1      25.962   2.891  50.518  1.00  0.00     0.087 C 
BRANCH  18  19
HETATM   19  C14 UNL     1      24.621   3.526  50.241  1.00  0.00    -0.013 C 
HETATM   20  C15 UNL     1      24.073   3.148  49.095  1.00  0.00     0.015 C 
HETATM   21  C16 UNL     1      22.813   3.545  48.512  1.00  0.00     0.001 C 
HETATM   22  C17 UNL     1      22.018   4.549  48.772  1.00  0.00     0.001 C 
HETATM   23  C18 UNL     1      22.079   5.632  49.723  1.00  0.00     0.007 C 
HETATM   24  C19 UNL     1      22.835   5.735  50.789  1.00  0.00     0.050 C 
HETATM   25  S1  UNL     1      24.062   4.636  51.503  1.00  0.00    -0.106 SA
ENDBRANCH  18  19
ENDBRANCH   5  18
BRANCH   6  26
HETATM   26  O3  UNL     1      28.059   2.904  52.296  1.00  0.00    -0.357 OA
HETATM   27  H21 UNL     1      28.918   2.656  52.791  1.00  0.00     0.217 HD
ENDBRANCH   6  26
TORSDOF 6
ENDMDL
MODEL 4
REMARK VINA RESULT:      -7.9      2.514      5.469
REMARK  6 active torsions:
REMARK  status: ('A' for Active; 'I' for Inactive)
REMARK    1  A    between atoms: C2_2  and  O1_3 
REMARK    2  A    between atoms: O1_3  and  C3_4 
REMARK    3  A    between atoms: C5_6  and  C6_7 
REMARK    4  A    between atoms: C12_15  and  C13_16 
REMARK    5  A    between atoms: C13_16  and  C14_17 
REMARK    6  A    between atoms: C20_24  and  O3_25 
ROOT
HETATM    1  C3  UNL     1      25.406   3.488  50.373  1.00  0.00     0.103 A 
HETATM    2  C4  UNL     1      26.195   2.448  50.818  1.00  0.00     0.051 A 
HETATM    3  C5  UNL     1      25.836   1.560  51.809  1.00  0.00    -0.032 A 
HETATM    4  C11 UNL     1      24.584   1.775  52.363  1.00  0.00     0.022 A 
HETATM    5  C12 UNL     1      23.732   2.784  51.984  1.00  0.00    -0.017 A 
HETATM    6  C20 UNL     1      24.169   3.627  50.985  1.00  0.00     0.105 A 
ENDROOT
BRANCH   3   7
HETATM    7  C6  UNL     1      26.683   0.461  52.236  1.00  0.00     0.024 C 
HETATM    8  C7  UNL     1      27.756   0.346  52.959  1.00  0.00     0.012 C 
HETATM    9  C8  UNL     1      28.459  -0.940  53.260  1.00  0.00     0.064 C 
HETATM   10  C10 UNL     1      28.568   1.334  53.629  1.00  0.00     0.247 C 
HETATM   11  C9  UNL     1      29.885  -0.538  53.573  1.00  0.00     0.128 C 
HETATM   12  N1  UNL     1      29.768   0.783  54.191  1.00  0.00    -0.357 N 
HETATM   13  H12 UNL     1      30.432   1.198  54.883  1.00  0.00     0.162 HD
HETATM   14  O2  UNL     1      28.341   2.556  53.761  1.00  0.00    -0.268 OA
ENDBRANCH   3   7
BRANCH   1  15
HETATM   15  O1  UNL     1      25.790   4.371  49.373  1.00  0.00    -0.349 OA
BRANCH  15  16
HETATM   16  C2  UNL     1      27.117   4.387  48.953  1.00  0.00     0.171 C 
HETATM   17  C1  UNL     1      27.587   5.759  48.525  1.00  0.00     0.034 C 
ENDBRANCH  15  16
ENDBRANCH   1  15
BRANCH   5  18
HETATM   18  C13 UNL     1      22.394   3.061  52.528  1.00  0.00     0.087 C 
BRANCH  18  19
HETATM   19  C14 UNL     1      21.430   1.950  52.195  1.00  0.00    -0.013 C 
HETATM   20  C15 UNL     1      20.853   2.075  51.009  1.00  0.00     0.015 C 
HETATM   21  C16 UNL     1      19.890   1.212  50.367  1.00  0.00     0.001 C 
HETATM   22  C17 UNL     1      19.124   0.266  50.844  1.00  0.00     0.001 C 
HETATM   23  C18 UNL     1      18.942  -0.280  52.166  1.00  0.00     0.007 C 
HETATM   24  C19 UNL     1      19.721  -0.152  53.212  1.00  0.00     0.050 C 
HETATM   25  S1  UNL     1      21.277   0.713  53.453  1.00  0.00    -0.106 SA
ENDBRANCH  18  19
ENDBRANCH   5  18
BRANCH   6  26
HETATM   26  O3  UNL     1      23.366   4.686  50.534  1.00  0.00    -0.357 OA
HETATM   27  H21 UNL     1      23.879   5.543  50.314  1.00  0.00     0.217 HD
ENDBRANCH   6  26
TORSDOF 6
ENDMDL
MODEL 5
REMARK VINA RESULT:      -7.8      2.458      5.150
REMARK  6 active torsions:
REMARK  status: ('A' for Active; 'I' for Inactive)
REMARK    1  A    between atoms: C2_2  and  O1_3 
REMARK    2  A    between atoms: O1_3  and  C3_4 
REMARK    3  A    between atoms: C5_6  and  C6_7 
REMARK    4  A    between atoms: C12_15  and  C13_16 
REMARK    5  A    between atoms: C13_16  and  C14_17 
REMARK    6  A    between atoms: C20_24  and  O3_25 
ROOT
HETATM    1  C3  UNL     1      25.945   2.091  53.174  1.00  0.00     0.103 A 
HETATM    2  C4  UNL     1      24.602   1.830  53.348  1.00  0.00     0.051 A 
HETATM    3  C5  UNL     1      23.648   1.929  52.357  1.00  0.00    -0.032 A 
HETATM    4  C11 UNL     1      24.130   2.323  51.118  1.00  0.00     0.022 A 
HETATM    5  C12 UNL     1      25.449   2.604  50.854  1.00  0.00    -0.017 A 
HETATM    6  C20 UNL     1      26.336   2.479  51.901  1.00  0.00     0.105 A 
ENDROOT
BRANCH   3   7
HETATM    7  C6  UNL     1      22.246   1.622  52.570  1.00  0.00     0.024 C 
HETATM    8  C7  UNL     1      21.587   0.709  53.218  1.00  0.00     0.012 C 
HETATM    9  C8  UNL     1      20.095   0.609  53.287  1.00  0.00     0.064 C 
HETATM   10  C10 UNL     1      22.032  -0.422  53.996  1.00  0.00     0.247 C 
HETATM   11  C9  UNL     1      19.819  -0.848  53.593  1.00  0.00     0.128 C 
HETATM   12  N1  UNL     1      20.955  -1.274  54.411  1.00  0.00    -0.357 N 
HETATM   13  H12 UNL     1      20.944  -2.034  55.129  1.00  0.00     0.162 HD
HETATM   14  O2  UNL     1      23.201  -0.718  54.324  1.00  0.00    -0.268 OA
ENDBRANCH   3   7
BRANCH   1  15
HETATM   15  O1  UNL     1      26.886   1.986  54.188  1.00  0.00    -0.349 OA
BRANCH  15  16
HETATM   16  C2  UNL     1      27.217   0.726  54.679  1.00  0.00     0.171 C 
HETATM   17  C1  UNL     1      28.709   0.488  54.742  1.00  0.00     0.034 C 
ENDBRANCH  15  16
ENDBRANCH   1  15
BRANCH   5  18
HETATM   18  C13 UNL     1      26.021   3.021  49.565  1.00  0.00     0.087 C 
BRANCH  18  19
HETATM   19  C14 UNL     1      26.071   4.525  49.453  1.00  0.00    -0.013 C 
HETATM   20  C15 UNL     1      27.128   4.980  48.796  1.00  0.00     0.015 C 
HETATM   21  C16 UNL     1      27.500   6.343  48.499  1.00  0.00     0.001 C 
HETATM   22  C17 UNL     1      27.095   7.479  49.002  1.00  0.00     0.001 C 
HETATM   23  C18 UNL     1      26.138   7.815  50.028  1.00  0.00     0.007 C 
HETATM   24  C19 UNL     1      25.200   7.059  50.542  1.00  0.00     0.050 C 
HETATM   25  S1  UNL     1      24.711   5.362  50.218  1.00  0.00    -0.106 SA
ENDBRANCH  18  19
ENDBRANCH   5  18
BRANCH   6  26
HETATM   26  O3  UNL     1      27.701   2.746  51.723  1.00  0.00    -0.357 OA
HETATM   27  H21 UNL     1      28.325   2.158  52.280  1.00  0.00     0.217 HD
ENDBRANCH   6  26
TORSDOF 6
ENDMDL
MODEL 6
REMARK VINA RESULT:      -7.8      1.915      2.682
REMARK  6 active torsions:
REMARK  status: ('A' for Active; 'I' for Inactive)
REMARK    1  A    between atoms: C2_2  and  O1_3 
REMARK    2  A    between atoms: O1_3  and  C3_4 
REMARK    3  A    between atoms: C5_6  and  C6_7 
REMARK    4  A    between atoms: C12_15  and  C13_16 
REMARK    5  A    between atoms: C13_16  and  C14_17 
REMARK    6  A    between atoms: C20_24  and  O3_25 
ROOT
HETATM    1  C3  UNL     1      22.654   1.012  53.099  1.00  0.00     0.103 A 
HETATM    2  C4  UNL     1      23.803   0.250  53.061  1.00  0.00     0.051 A 
HETATM    3  C5  UNL     1      24.960   0.608  52.403  1.00  0.00    -0.032 A 
HETATM    4  C11 UNL     1      24.909   1.829  51.749  1.00  0.00     0.022 A 
HETATM    5  C12 UNL     1      23.809   2.653  51.732  1.00  0.00    -0.017 A 
HETATM    6  C20 UNL     1      22.693   2.219  52.417  1.00  0.00     0.105 A 
ENDROOT
BRANCH   3   7
HETATM    7  C6  UNL     1      26.161  -0.209  52.405  1.00  0.00     0.024 C 
HETATM    8  C7  UNL     1      27.152  -0.393  53.224  1.00  0.00     0.012 C 
HETATM    9  C8  UNL     1      28.303  -1.321  52.988  1.00  0.00     0.064 C 
HETATM   10  C10 UNL     1      27.460   0.200  54.503  1.00  0.00     0.247 C 
HETATM   11  C9  UNL     1      29.426  -0.770  53.841  1.00  0.00     0.128 C 
HETATM   12  N1  UNL     1      28.753  -0.178  54.998  1.00  0.00    -0.357 N 
HETATM   13  H12 UNL     1      29.158  -0.072  55.956  1.00  0.00     0.162 HD
HETATM   14  O2  UNL     1      26.750   0.969  55.185  1.00  0.00    -0.268 OA
ENDBRANCH   3   7
BRANCH   1  15
HETATM   15  O1  UNL     1      21.500   0.630  53.768  1.00  0.00    -0.349 OA
BRANCH  15  16
HETATM   16  C2  UNL     1      21.565  -0.404  54.698  1.00  0.00     0.171 C 
HETATM   17  C1  UNL     1      20.771  -1.623  54.285  1.00  0.00     0.034 C 
ENDBRANCH  15  16
ENDBRANCH   1  15
BRANCH   5  18
HETATM   18  C13 UNL     1      23.693   3.957  51.063  1.00  0.00     0.087 C 
BRANCH  18  19
HETATM   19  C14 UNL     1      22.891   3.846  49.790  1.00  0.00    -0.013 C 
HETATM   20  C15 UNL     1      23.212   2.799  49.043  1.00  0.00     0.015 C 
HETATM   21  C16 UNL     1      22.661   2.381  47.775  1.00  0.00     0.001 C 
HETATM   22  C17 UNL     1      21.935   3.018  46.895  1.00  0.00     0.001 C 
HETATM   23  C18 UNL     1      21.407   4.360  46.841  1.00  0.00     0.007 C 
HETATM   24  C19 UNL     1      21.283   5.223  47.818  1.00  0.00     0.050 C 
HETATM   25  S1  UNL     1      21.693   5.129  49.565  1.00  0.00    -0.106 SA
ENDBRANCH  18  19
ENDBRANCH   5  18
BRANCH   6  26
HETATM   26  O3  UNL     1      21.525   2.994  52.453  1.00  0.00    -0.357 OA
HETATM   27  H21 UNL     1      21.604   3.856  52.998  1.00  0.00     0.217 HD
ENDBRANCH   6  26
TORSDOF 6
ENDMDL
MODEL 7
REMARK VINA RESULT:      -7.8      3.328      6.764
REMARK  6 active torsions:
REMARK  status: ('A' for Active; 'I' for Inactive)
REMARK    1  A    between atoms: C2_2  and  O1_3 
REMARK    2  A    between atoms: O1_3  and  C3_4 
REMARK    3  A    between atoms: C5_6  and  C6_7 
REMARK    4  A    between atoms: C12_15  and  C13_16 
REMARK    5  A    between atoms: C13_16  and  C14_17 
REMARK    6  A    between atoms: C20_24  and  O3_25 
ROOT
HETATM    1  C3  UNL     1      23.121   3.951  51.956  1.00  0.00     0.103 A 
HETATM    2  C4  UNL     1      22.265   2.995  52.462  1.00  0.00     0.051 A 
HETATM    3  C5  UNL     1      22.556   1.650  52.550  1.00  0.00    -0.032 A 
HETATM    4  C11 UNL     1      23.809   1.290  52.082  1.00  0.00     0.022 A 
HETATM    5  C12 UNL     1      24.725   2.172  51.561  1.00  0.00    -0.017 A 
HETATM    6  C20 UNL     1      24.354   3.499  51.510  1.00  0.00     0.105 A 
ENDROOT
BRANCH   3   7
HETATM    7  C6  UNL     1      21.639   0.675  53.112  1.00  0.00     0.024 C 
HETATM    8  C7  UNL     1      20.529   0.120  52.728  1.00  0.00     0.012 C 
HETATM    9  C8  UNL     1      19.754  -0.890  53.514  1.00  0.00     0.064 C 
HETATM   10  C10 UNL     1      19.733   0.296  51.536  1.00  0.00     0.247 C 
HETATM   11  C9  UNL     1      18.335  -0.776  52.998  1.00  0.00     0.128 C 
HETATM   12  N1  UNL     1      18.484  -0.407  51.590  1.00  0.00    -0.357 N 
HETATM   13  H12 UNL     1      17.808  -0.625  50.823  1.00  0.00     0.162 HD
HETATM   14  O2  UNL     1      20.011   0.965  50.518  1.00  0.00    -0.268 OA
ENDBRANCH   3   7
BRANCH   1  15
HETATM   15  O1  UNL     1      22.806   5.300  51.876  1.00  0.00    -0.349 OA
BRANCH  15  16
HETATM   16  C2  UNL     1      21.720   5.699  51.102  1.00  0.00     0.171 C 
HETATM   17  C1  UNL     1      21.700   7.187  50.833  1.00  0.00     0.034 C 
ENDBRANCH  15  16
ENDBRANCH   1  15
BRANCH   5  18
HETATM   18  C13 UNL     1      26.068   1.854  51.053  1.00  0.00     0.087 C 
BRANCH  18  19
HETATM   19  C14 UNL     1      26.965   1.357  52.160  1.00  0.00    -0.013 C 
HETATM   20  C15 UNL     1      27.662   2.314  52.757  1.00  0.00     0.015 C 
HETATM   21  C16 UNL     1      28.608   2.210  53.843  1.00  0.00     0.001 C 
HETATM   22  C17 UNL     1      29.244   1.183  54.340  1.00  0.00     0.001 C 
HETATM   23  C18 UNL     1      29.253  -0.222  54.013  1.00  0.00     0.007 C 
HETATM   24  C19 UNL     1      28.390  -0.893  53.290  1.00  0.00     0.050 C 
HETATM   25  S1  UNL     1      26.895  -0.391  52.431  1.00  0.00    -0.106 SA
ENDBRANCH  18  19
ENDBRANCH   5  18
BRANCH   6  26
HETATM   26  O3  UNL     1      25.224   4.470  50.994  1.00  0.00    -0.357 OA
HETATM   27  H21 UNL     1      26.014   4.699  51.603  1.00  0.00     0.217 HD
ENDBRANCH   6  26
TORSDOF 6
ENDMDL
MODEL 8
REMARK VINA RESULT:      -7.7      1.612      2.094
REMARK  6 active torsions:
REMARK  status: ('A' for Active; 'I' for Inactive)
REMARK    1  A    between atoms: C2_2  and  O1_3 
REMARK    2  A    between atoms: O1_3  and  C3_4 
REMARK    3  A    between atoms: C5_6  and  C6_7 
REMARK    4  A    between atoms: C12_15  and  C13_16 
REMARK    5  A    between atoms: C13_16  and  C14_17 
REMARK    6  A    between atoms: C20_24  and  O3_25 
ROOT
HETATM    1  C3  UNL     1      23.331   1.458  52.593  1.00  0.00     0.103 A 
HETATM    2  C4  UNL     1      24.624   1.265  53.031  1.00  0.00     0.051 A 
HETATM    3  C5  UNL     1      25.750   1.715  52.376  1.00  0.00    -0.032 A 
HETATM    4  C11 UNL     1      25.506   2.404  51.197  1.00  0.00     0.022 A 
HETATM    5  C12 UNL     1      24.253   2.642  50.685  1.00  0.00    -0.017 A 
HETATM    6  C20 UNL     1      23.182   2.157  51.405  1.00  0.00     0.105 A 
ENDROOT
BRANCH   3   7
HETATM    7  C6  UNL     1      27.096   1.515  52.880  1.00  0.00     0.024 C 
HETATM    8  C7  UNL     1      27.868   0.489  53.076  1.00  0.00     0.012 C 
HETATM    9  C8  UNL     1      29.260   0.549  53.622  1.00  0.00     0.064 C 
HETATM   10  C10 UNL     1      27.651  -0.924  52.873  1.00  0.00     0.247 C 
HETATM   11  C9  UNL     1      29.501  -0.823  54.218  1.00  0.00     0.128 C 
HETATM   12  N1  UNL     1      28.725  -1.732  53.374  1.00  0.00    -0.357 N 
HETATM   13  H12 UNL     1      28.939  -2.741  53.199  1.00  0.00     0.162 HD
HETATM   14  O2  UNL     1      26.671  -1.482  52.334  1.00  0.00    -0.268 OA
ENDBRANCH   3   7
BRANCH   1  15
HETATM   15  O1  UNL     1      22.212   0.994  53.270  1.00  0.00    -0.349 OA
BRANCH  15  16
HETATM   16  C2  UNL     1      22.020  -0.379  53.405  1.00  0.00     0.171 C 
HETATM   17  C1  UNL     1      21.877  -0.818  54.845  1.00  0.00     0.034 C 
ENDBRANCH  15  16
ENDBRANCH   1  15
BRANCH   5  18
HETATM   18  C13 UNL     1      23.929   3.366  49.447  1.00  0.00     0.087 C 
BRANCH  18  19
HETATM   19  C14 UNL     1      24.458   4.778  49.488  1.00  0.00    -0.013 C 
HETATM   20  C15 UNL     1      25.687   4.906  49.009  1.00  0.00     0.015 C 
HETATM   21  C16 UNL     1      26.502   6.092  48.892  1.00  0.00     0.001 C 
HETATM   22  C17 UNL     1      26.400   7.269  49.450  1.00  0.00     0.001 C 
HETATM   23  C18 UNL     1      25.457   7.838  50.382  1.00  0.00     0.007 C 
HETATM   24  C19 UNL     1      24.266   7.396  50.704  1.00  0.00     0.050 C 
HETATM   25  S1  UNL     1      23.329   5.964  50.161  1.00  0.00    -0.106 SA
ENDBRANCH  18  19
ENDBRANCH   5  18
BRANCH   6  26
HETATM   26  O3  UNL     1      21.867   2.352  50.957  1.00  0.00    -0.357 OA
HETATM   27  H21 UNL     1      21.654   1.909  50.060  1.00  0.00     0.217 HD
ENDBRANCH   6  26
TORSDOF 6
ENDMDL
MODEL 9
REMARK VINA RESULT:      -7.6      3.299      7.429
REMARK  6 active torsions:
REMARK  status: ('A' for Active; 'I' for Inactive)
REMARK    1  A    between atoms: C2_2  and  O1_3 
REMARK    2  A    between atoms: O1_3  and  C3_4 
REMARK    3  A    between atoms: C5_6  and  C6_7 
REMARK    4  A    between atoms: C12_15  and  C13_16 
REMARK    5  A    between atoms: C13_16  and  C14_17 
REMARK    6  A    between atoms: C20_24  and  O3_25 
ROOT
HETATM    1  C3  UNL     1      24.851   2.970  50.276  1.00  0.00     0.103 A 
HETATM    2  C4  UNL     1      23.605   2.393  50.152  1.00  0.00     0.051 A 
HETATM    3  C5  UNL     1      23.038   1.543  51.077  1.00  0.00    -0.032 A 
HETATM    4  C11 UNL     1      23.820   1.285  52.192  1.00  0.00     0.022 A 
HETATM    5  C12 UNL     1      25.071   1.814  52.399  1.00  0.00    -0.017 A 
HETATM    6  C20 UNL     1      25.563   2.655  51.424  1.00  0.00     0.105 A 
ENDROOT
BRANCH   3   7
HETATM    7  C6  UNL     1      21.712   0.972  50.924  1.00  0.00     0.024 C 
HETATM    8  C7  UNL     1      20.496   1.403  51.077  1.00  0.00     0.012 C 
HETATM    9  C8  UNL     1      19.259   0.592  50.847  1.00  0.00     0.064 C 
HETATM   10  C10 UNL     1      19.981   2.681  51.505  1.00  0.00     0.247 C 
HETATM   11  C9  UNL     1      18.196   1.260  51.693  1.00  0.00     0.128 C 
HETATM   12  N1  UNL     1      18.558   2.678  51.688  1.00  0.00    -0.357 N 
HETATM   13  H12 UNL     1      17.897   3.481  51.796  1.00  0.00     0.162 HD
HETATM   14  O2  UNL     1      20.618   3.735  51.722  1.00  0.00    -0.268 OA
ENDBRANCH   3   7
BRANCH   1  15
HETATM   15  O1  UNL     1      25.401   3.824  49.330  1.00  0.00    -0.349 OA
BRANCH  15  16
HETATM   16  C2  UNL     1      24.898   5.116  49.206  1.00  0.00     0.171 C 
HETATM   17  C1  UNL     1      25.959   6.182  49.360  1.00  0.00     0.034 C 
ENDBRANCH  15  16
ENDBRANCH   1  15
BRANCH   5  18
HETATM   18  C13 UNL     1      25.946   1.583  53.558  1.00  0.00     0.087 C 
BRANCH  18  19
HETATM   19  C14 UNL     1      26.934   0.476  53.282  1.00  0.00    -0.013 C 
HETATM   20  C15 UNL     1      26.371  -0.668  52.919  1.00  0.00     0.015 C 
HETATM   21  C16 UNL     1      26.997  -1.925  52.581  1.00  0.00     0.001 C 
HETATM   22  C17 UNL     1      28.205  -2.375  52.796  1.00  0.00     0.001 C 
HETATM   23  C18 UNL     1      29.366  -1.810  53.440  1.00  0.00     0.007 C 
HETATM   24  C19 UNL     1      29.598  -0.555  53.739  1.00  0.00     0.050 C 
HETATM   25  S1  UNL     1      28.630   0.938  53.495  1.00  0.00    -0.106 SA
ENDBRANCH  18  19
ENDBRANCH   5  18
BRANCH   6  26
HETATM   26  O3  UNL     1      26.831   3.241  51.551  1.00  0.00    -0.357 OA
HETATM   27  H21 UNL     1      26.842   4.120  52.075  1.00  0.00     0.217 HD
ENDBRANCH   6  26
TORSDOF 6
ENDMDL
