MODEL 1
REMARK VINA RESULT:      -7.0      0.000      0.000
REMARK  6 active torsions:
REMARK  status: ('A' for Active; 'I' for Inactive)
REMARK    1  A    between atoms: O1_2  and  C2_3 
REMARK    2  A    between atoms: C5_6  and  C6_7 
REMARK    3  A    between atoms: C6_7  and  N1_8 
REMARK    4  A    between atoms: C6_7  and  N2_9 
REMARK    5  A    between atoms: N2_9  and  C7_10 
REMARK    6  A    between atoms: C15_18  and  O2_19 
ROOT
HETATM    1  C6  UNL     1      24.626   1.925  51.642  1.00  0.00     0.087 C 
ENDROOT
BRANCH   1   2
HETATM    2  C5  UNL     1      23.412   1.380  51.935  1.00  0.00     0.056 A 
HETATM    3  C4  UNL     1      22.283   1.161  51.290  1.00  0.00     0.004 A 
HETATM    4  C3  UNL     1      21.052   0.489  51.691  1.00  0.00     0.046 A 
HETATM    5  N3  UNL     1      22.063   0.660  52.328  1.00  0.00     0.000 N 
HETATM    6  C2  UNL     1      20.583  -0.201  52.949  1.00  0.00     0.135 A 
HETATM    7  C15 UNL     1      21.879   0.076  53.624  1.00  0.00     0.140 A 
HETATM    8  C14 UNL     1      23.022   0.767  53.079  1.00  0.00     0.039 A 
BRANCH   6   9
HETATM    9  O1  UNL     1      19.567  -0.893  53.607  1.00  0.00    -0.378 OA
HETATM   10  C1  UNL     1      18.294  -1.037  53.082  1.00  0.00     0.202 C 
ENDBRANCH   6   9
BRANCH   7  11
HETATM   11  O2  UNL     1      21.822  -0.468  54.975  1.00  0.00    -0.378 OA
HETATM   12  C16 UNL     1      22.699  -1.488  55.320  1.00  0.00     0.202 C 
ENDBRANCH   7  11
ENDBRANCH   1   2
BRANCH   1  13
HETATM   13  N1  UNL     1      24.501   3.075  50.765  1.00  0.00    -0.388 N 
HETATM   14  H5  UNL     1      23.576   3.567  51.015  1.00  0.00     0.157 HD
HETATM   15  H6  UNL     1      24.880   3.661  50.017  1.00  0.00     0.157 HD
ENDBRANCH   1  13
BRANCH   1  16
HETATM   16  N2  UNL     1      25.821   1.473  52.161  1.00  0.00    -0.345 N 
HETATM   17  H7  UNL     1      25.107   0.822  52.637  1.00  0.00     0.167 HD
BRANCH  16  18
HETATM   18  C7  UNL     1      27.008   1.013  52.686  1.00  0.00     0.033 A 
HETATM   19  C8  UNL     1      27.682   2.108  53.212  1.00  0.00     0.029 A 
HETATM   20  C9  UNL     1      28.930   1.962  53.833  1.00  0.00     0.003 A 
HETATM   21  C10 UNL     1      29.407   0.649  53.868  1.00  0.00     0.007 A 
HETATM   22  C11 UNL     1      28.761  -0.463  53.356  1.00  0.00    -0.060 A 
HETATM   23  C12 UNL     1      29.328  -1.830  53.458  1.00  0.00     0.048 C 
HETATM   24  C13 UNL     1      27.563  -0.224  52.775  1.00  0.00     0.036 A 
ENDBRANCH  16  18
ENDBRANCH   1  16
TORSDOF 6
ENDMDL
MODEL 2
REMARK VINA RESULT:      -6.9      2.774      7.266
REMARK  6 active torsions:
REMARK  status: ('A' for Active; 'I' for Inactive)
REMARK    1  A    between atoms: O1_2  and  C2_3 
REMARK    2  A    between atoms: C5_6  and  C6_7 
REMARK    3  A    between atoms: C6_7  and  N1_8 
REMARK    4  A    between atoms: C6_7  and  N2_9 
REMARK    5  A    between atoms: N2_9  and  C7_10 
REMARK    6  A    between atoms: C15_18  and  O2_19 
ROOT
HETATM    1  C6  UNL     1      23.283   1.741  52.745  1.00  0.00     0.087 C 
ENDROOT
BRANCH   1   2
HETATM    2  C5  UNL     1      24.381   1.028  53.124  1.00  0.00     0.056 A 
HETATM    3  C4  UNL     1      24.746  -0.239  53.114  1.00  0.00     0.004 A 
HETATM    4  C3  UNL     1      25.999  -0.889  53.484  1.00  0.00     0.046 A 
HETATM    5  N3  UNL     1      25.718   0.285  53.512  1.00  0.00     0.000 N 
HETATM    6  C2  UNL     1      27.330  -0.405  54.005  1.00  0.00     0.135 A 
HETATM    7  C15 UNL     1      26.860   1.006  53.994  1.00  0.00     0.140 A 
HETATM    8  C14 UNL     1      25.564   1.496  53.591  1.00  0.00     0.039 A 
BRANCH   6   9
HETATM    9  O1  UNL     1      28.624  -0.725  54.417  1.00  0.00    -0.378 OA
HETATM   10  C1  UNL     1      29.603  -1.167  53.544  1.00  0.00     0.202 C 
ENDBRANCH   6   9
BRANCH   7  11
HETATM   11  O2  UNL     1      27.939   1.858  54.477  1.00  0.00    -0.378 OA
HETATM   12  C16 UNL     1      28.691   2.571  53.552  1.00  0.00     0.202 C 
ENDBRANCH   7  11
ENDBRANCH   1   2
BRANCH   1  13
HETATM   13  N1  UNL     1      23.597   3.143  52.539  1.00  0.00    -0.388 N 
HETATM   14  H5  UNL     1      22.724   3.605  52.109  1.00  0.00     0.157 HD
HETATM   15  H6  UNL     1      24.256   3.922  52.616  1.00  0.00     0.157 HD
ENDBRANCH   1  13
BRANCH   1  16
HETATM   16  N2  UNL     1      22.039   1.187  52.530  1.00  0.00    -0.345 N 
HETATM   17  H7  UNL     1      21.881   2.215  52.250  1.00  0.00     0.167 HD
BRANCH  16  18
HETATM   18  C7  UNL     1      20.792   0.646  52.312  1.00  0.00     0.033 A 
HETATM   19  C8  UNL     1      20.483  -0.146  53.412  1.00  0.00     0.029 A 
HETATM   20  C9  UNL     1      19.264  -0.830  53.494  1.00  0.00     0.003 A 
HETATM   21  C10 UNL     1      18.419  -0.639  52.398  1.00  0.00     0.007 A 
HETATM   22  C11 UNL     1      18.694   0.143  51.289  1.00  0.00    -0.060 A 
HETATM   23  C12 UNL     1      17.728   0.312  50.176  1.00  0.00     0.048 C 
HETATM   24  C13 UNL     1      19.895   0.764  51.298  1.00  0.00     0.036 A 
ENDBRANCH  16  18
ENDBRANCH   1  16
TORSDOF 6
ENDMDL
MODEL 3
REMARK VINA RESULT:      -6.9      2.127      3.091
REMARK  6 active torsions:
REMARK  status: ('A' for Active; 'I' for Inactive)
REMARK    1  A    between atoms: O1_2  and  C2_3 
REMARK    2  A    between atoms: C5_6  and  C6_7 
REMARK    3  A    between atoms: C6_7  and  N1_8 
REMARK    4  A    between atoms: C6_7  and  N2_9 
REMARK    5  A    between atoms: N2_9  and  C7_10 
REMARK    6  A    between atoms: C15_18  and  O2_19 
ROOT
HETATM    1  C6  UNL     1      23.844  -0.918  54.848  1.00  0.00     0.087 C 
ENDROOT
BRANCH   1   2
HETATM    2  C5  UNL     1      22.692  -0.701  54.155  1.00  0.00     0.056 A 
HETATM    3  C4  UNL     1      21.399  -0.737  54.417  1.00  0.00     0.004 A 
HETATM    4  C3  UNL     1      20.236  -0.407  53.601  1.00  0.00     0.046 A 
HETATM    5  N3  UNL     1      21.406  -0.353  53.308  1.00  0.00     0.000 N 
HETATM    6  C2  UNL     1      20.038   0.089  52.189  1.00  0.00     0.135 A 
HETATM    7  C15 UNL     1      21.506   0.108  51.954  1.00  0.00     0.140 A 
HETATM    8  C14 UNL     1      22.549  -0.255  52.883  1.00  0.00     0.039 A 
BRANCH   6   9
HETATM    9  O1  UNL     1      19.148   0.479  51.189  1.00  0.00    -0.378 OA
HETATM   10  C1  UNL     1      17.846   0.015  51.118  1.00  0.00     0.202 C 
ENDBRANCH   6   9
BRANCH   7  11
HETATM   11  O2  UNL     1      21.752   0.559  50.590  1.00  0.00    -0.378 OA
HETATM   12  C16 UNL     1      22.475   1.728  50.394  1.00  0.00     0.202 C 
ENDBRANCH   7  11
ENDBRANCH   1   2
BRANCH   1  13
HETATM   13  N1  UNL     1      23.625  -1.766  56.005  1.00  0.00    -0.388 N 
HETATM   14  H5  UNL     1      23.262  -2.713  55.641  1.00  0.00     0.157 HD
HETATM   15  H6  UNL     1      23.659  -1.906  57.018  1.00  0.00     0.157 HD
ENDBRANCH   1  13
BRANCH   1  16
HETATM   16  N2  UNL     1      25.078  -0.435  54.465  1.00  0.00    -0.345 N 
HETATM   17  H7  UNL     1      24.694   0.374  55.066  1.00  0.00     0.167 HD
BRANCH  16  18
HETATM   18  C7  UNL     1      26.307   0.059  54.090  1.00  0.00     0.033 A 
HETATM   19  C8  UNL     1      26.151   1.416  53.835  1.00  0.00     0.029 A 
HETATM   20  C9  UNL     1      27.235   2.210  53.439  1.00  0.00     0.003 A 
HETATM   21  C10 UNL     1      28.446   1.522  53.332  1.00  0.00     0.007 A 
HETATM   22  C11 UNL     1      28.637   0.173  53.579  1.00  0.00    -0.060 A 
HETATM   23  C12 UNL     1      29.966  -0.476  53.465  1.00  0.00     0.048 C 
HETATM   24  C13 UNL     1      27.534  -0.512  53.955  1.00  0.00     0.036 A 
ENDBRANCH  16  18
ENDBRANCH   1  16
TORSDOF 6
ENDMDL
MODEL 4
REMARK VINA RESULT:      -6.8      1.544      2.180
REMARK  6 active torsions:
REMARK  status: ('A' for Active; 'I' for Inactive)
REMARK    1  A    between atoms: O1_2  and  C2_3 
REMARK    2  A    between atoms: C5_6  and  C6_7 
REMARK    3  A    between atoms: C6_7  and  N1_8 
REMARK    4  A    between atoms: C6_7  and  N2_9 
REMARK    5  A    between atoms: N2_9  and  C7_10 
REMARK    6  A    between atoms: C15_18  and  O2_19 
ROOT
HETATM    1  C6  UNL     1      24.682   2.154  52.988  1.00  0.00     0.087 C 
ENDROOT
BRANCH   1   2
HETATM    2  C5  UNL     1      23.468   1.568  52.789  1.00  0.00     0.056 A 
HETATM    3  C4  UNL     1      23.011   0.337  52.668  1.00  0.00     0.004 A 
HETATM    4  C3  UNL     1      21.655  -0.184  52.530  1.00  0.00     0.046 A 
HETATM    5  N3  UNL     1      22.018   0.962  52.640  1.00  0.00     0.000 N 
HETATM    6  C2  UNL     1      20.281   0.439  52.472  1.00  0.00     0.135 A 
HETATM    7  C15 UNL     1      20.857   1.803  52.611  1.00  0.00     0.140 A 
HETATM    8  C14 UNL     1      22.249   2.159  52.741  1.00  0.00     0.039 A 
BRANCH   6   9
HETATM    9  O1  UNL     1      18.904   0.252  52.364  1.00  0.00    -0.378 OA
HETATM   10  C1  UNL     1      18.254  -0.860  52.872  1.00  0.00     0.202 C 
ENDBRANCH   6   9
BRANCH   7  11
HETATM   11  O2  UNL     1      19.767   2.771  52.590  1.00  0.00    -0.378 OA
HETATM   12  C16 UNL     1      19.666   3.638  51.510  1.00  0.00     0.202 C 
ENDBRANCH   7  11
ENDBRANCH   1   2
BRANCH   1  13
HETATM   13  N1  UNL     1      24.570   3.597  53.102  1.00  0.00    -0.388 N 
HETATM   14  H5  UNL     1      24.137   3.808  54.065  1.00  0.00     0.157 HD
HETATM   15  H6  UNL     1      24.718   4.529  52.706  1.00  0.00     0.157 HD
ENDBRANCH   1  13
BRANCH   1  16
HETATM   16  N2  UNL     1      25.864   1.456  53.120  1.00  0.00    -0.345 N 
HETATM   17  H7  UNL     1      25.557   1.579  54.146  1.00  0.00     0.167 HD
BRANCH  16  18
HETATM   18  C7  UNL     1      27.043   0.760  53.265  1.00  0.00     0.033 A 
HETATM   19  C8  UNL     1      28.006   1.660  53.705  1.00  0.00     0.029 A 
HETATM   20  C9  UNL     1      29.321   1.249  53.958  1.00  0.00     0.003 A 
HETATM   21  C10 UNL     1      29.555  -0.110  53.733  1.00  0.00     0.007 A 
HETATM   22  C11 UNL     1      28.620  -1.033  53.298  1.00  0.00    -0.060 A 
HETATM   23  C12 UNL     1      28.946  -2.467  53.107  1.00  0.00     0.048 C 
HETATM   24  C13 UNL     1      27.378  -0.544  53.079  1.00  0.00     0.036 A 
ENDBRANCH  16  18
ENDBRANCH   1  16
TORSDOF 6
ENDMDL
MODEL 5
REMARK VINA RESULT:      -6.6      2.334      2.906
REMARK  6 active torsions:
REMARK  status: ('A' for Active; 'I' for Inactive)
REMARK    1  A    between atoms: O1_2  and  C2_3 
REMARK    2  A    between atoms: C5_6  and  C6_7 
REMARK    3  A    between atoms: C6_7  and  N1_8 
REMARK    4  A    between atoms: C6_7  and  N2_9 
REMARK    5  A    between atoms: N2_9  and  C7_10 
REMARK    6  A    between atoms: C15_18  and  O2_19 
ROOT
HETATM    1  C6  UNL     1      25.236   3.607  51.260  1.00  0.00     0.087 C 
ENDROOT
BRANCH   1   2
HETATM    2  C5  UNL     1      23.903   3.771  51.491  1.00  0.00     0.056 A 
HETATM    3  C4  UNL     1      23.023   4.743  51.354  1.00  0.00     0.004 A 
HETATM    4  C3  UNL     1      21.580   4.782  51.568  1.00  0.00     0.046 A 
HETATM    5  N3  UNL     1      22.342   3.856  51.709  1.00  0.00     0.000 N 
HETATM    6  C2  UNL     1      20.548   3.775  52.013  1.00  0.00     0.135 A 
HETATM    7  C15 UNL     1      21.587   2.720  52.150  1.00  0.00     0.140 A 
HETATM    8  C14 UNL     1      23.001   2.843  51.893  1.00  0.00     0.039 A 
BRANCH   6   9
HETATM    9  O1  UNL     1      19.209   3.501  52.291  1.00  0.00    -0.378 OA
HETATM   10  C1  UNL     1      18.207   3.607  51.342  1.00  0.00     0.202 C 
ENDBRANCH   6   9
BRANCH   7  11
HETATM   11  O2  UNL     1      20.944   1.493  52.605  1.00  0.00    -0.378 OA
HETATM   12  C16 UNL     1      20.863   0.418  51.730  1.00  0.00     0.202 C 
ENDBRANCH   7  11
ENDBRANCH   1   2
BRANCH   1  13
HETATM   13  N1  UNL     1      25.784   4.701  50.479  1.00  0.00    -0.388 N 
HETATM   14  H5  UNL     1      25.579   5.611  51.019  1.00  0.00     0.157 HD
HETATM   15  H6  UNL     1      26.292   5.031  49.655  1.00  0.00     0.157 HD
ENDBRANCH   1  13
BRANCH   1  16
HETATM   16  N2  UNL     1      25.982   2.558  51.753  1.00  0.00    -0.345 N 
HETATM   17  H7  UNL     1      25.984   2.359  50.694  1.00  0.00     0.167 HD
BRANCH  16  18
HETATM   18  C7  UNL     1      26.728   1.505  52.234  1.00  0.00     0.033 A 
HETATM   19  C8  UNL     1      27.805   2.042  52.929  1.00  0.00     0.029 A 
HETATM   20  C9  UNL     1      28.751   1.217  53.551  1.00  0.00     0.003 A 
HETATM   21  C10 UNL     1      28.508  -0.152  53.407  1.00  0.00     0.007 A 
HETATM   22  C11 UNL     1      27.446  -0.719  52.723  1.00  0.00    -0.060 A 
HETATM   23  C12 UNL     1      27.247  -2.187  52.638  1.00  0.00     0.048 C 
HETATM   24  C13 UNL     1      26.585   0.156  52.155  1.00  0.00     0.036 A 
ENDBRANCH  16  18
ENDBRANCH   1  16
TORSDOF 6
ENDMDL
MODEL 6
REMARK VINA RESULT:      -6.6      3.875      6.613
REMARK  6 active torsions:
REMARK  status: ('A' for Active; 'I' for Inactive)
REMARK    1  A    between atoms: O1_2  and  C2_3 
REMARK    2  A    between atoms: C5_6  and  C6_7 
REMARK    3  A    between atoms: C6_7  and  N1_8 
REMARK    4  A    between atoms: C6_7  and  N2_9 
REMARK    5  A    between atoms: N2_9  and  C7_10 
REMARK    6  A    between atoms: C15_18  and  O2_19 
ROOT
HETATM    1  C6  UNL     1      24.804   3.028  51.860  1.00  0.00     0.087 C 
ENDROOT
BRANCH   1   2
HETATM    2  C5  UNL     1      25.514   1.942  52.274  1.00  0.00     0.056 A 
HETATM    3  C4  UNL     1      25.590   0.668  51.944  1.00  0.00     0.004 A 
HETATM    4  C3  UNL     1      26.458  -0.406  52.415  1.00  0.00     0.046 A 
HETATM    5  N3  UNL     1      26.433   0.752  52.755  1.00  0.00     0.000 N 
HETATM    6  C2  UNL     1      27.574  -0.499  53.427  1.00  0.00     0.135 A 
HETATM    7  C15 UNL     1      27.441   0.945  53.757  1.00  0.00     0.140 A 
HETATM    8  C14 UNL     1      26.513   1.893  53.189  1.00  0.00     0.039 A 
BRANCH   6   9
HETATM    9  O1  UNL     1      28.531  -1.292  54.059  1.00  0.00    -0.378 OA
HETATM   10  C1  UNL     1      29.401  -2.116  53.366  1.00  0.00     0.202 C 
ENDBRANCH   6   9
BRANCH   7  11
HETATM   11  O2  UNL     1      28.419   1.277  54.785  1.00  0.00    -0.378 OA
HETATM   12  C16 UNL     1      29.503   2.075  54.442  1.00  0.00     0.202 C 
ENDBRANCH   7  11
ENDBRANCH   1   2
BRANCH   1  13
HETATM   13  N1  UNL     1      23.513   3.109  52.519  1.00  0.00    -0.388 N 
HETATM   14  H5  UNL     1      23.617   2.638  53.482  1.00  0.00     0.157 HD
HETATM   15  H6  UNL     1      22.536   3.413  52.514  1.00  0.00     0.157 HD
ENDBRANCH   1  13
BRANCH   1  16
HETATM   16  N2  UNL     1      25.276   3.965  50.965  1.00  0.00    -0.345 N 
HETATM   17  H7  UNL     1      25.833   4.202  51.857  1.00  0.00     0.167 HD
BRANCH  16  18
HETATM   18  C7  UNL     1      25.756   4.906  50.082  1.00  0.00     0.033 A 
HETATM   19  C8  UNL     1      26.897   4.378  49.491  1.00  0.00     0.029 A 
HETATM   20  C9  UNL     1      27.616   5.099  48.529  1.00  0.00     0.003 A 
HETATM   21  C10 UNL     1      27.085   6.357  48.234  1.00  0.00     0.007 A 
HETATM   22  C11 UNL     1      25.950   6.912  48.801  1.00  0.00    -0.060 A 
HETATM   23  C12 UNL     1      25.439   8.249  48.412  1.00  0.00     0.048 C 
HETATM   24  C13 UNL     1      25.324   6.143  49.720  1.00  0.00     0.036 A 
ENDBRANCH  16  18
ENDBRANCH   1  16
TORSDOF 6
ENDMDL
MODEL 7
REMARK VINA RESULT:      -6.6      3.083      4.114
REMARK  6 active torsions:
REMARK  status: ('A' for Active; 'I' for Inactive)
REMARK    1  A    between atoms: O1_2  and  C2_3 
REMARK    2  A    between atoms: C5_6  and  C6_7 
REMARK    3  A    between atoms: C6_7  and  N1_8 
REMARK    4  A    between atoms: C6_7  and  N2_9 
REMARK    5  A    between atoms: N2_9  and  C7_10 
REMARK    6  A    between atoms: C15_18  and  O2_19 
ROOT
HETATM    1  C6  UNL     1      23.813   0.712  53.043  1.00  0.00     0.087 C 
ENDROOT
BRANCH   1   2
HETATM    2  C5  UNL     1      23.116   1.792  52.592  1.00  0.00     0.056 A 
HETATM    3  C4  UNL     1      21.848   2.094  52.394  1.00  0.00     0.004 A 
HETATM    4  C3  UNL     1      21.201   3.332  51.970  1.00  0.00     0.046 A 
HETATM    5  N3  UNL     1      22.376   3.110  52.138  1.00  0.00     0.000 N 
HETATM    6  C2  UNL     1      21.692   4.711  51.601  1.00  0.00     0.135 A 
HETATM    7  C15 UNL     1      23.104   4.309  51.840  1.00  0.00     0.140 A 
HETATM    8  C14 UNL     1      23.589   3.019  52.267  1.00  0.00     0.039 A 
BRANCH   6   9
HETATM    9  O1  UNL     1      21.376   6.007  51.196  1.00  0.00    -0.378 OA
HETATM   10  C1  UNL     1      20.625   6.279  50.065  1.00  0.00     0.202 C 
ENDBRANCH   6   9
BRANCH   7  11
HETATM   11  O2  UNL     1      23.965   5.453  51.563  1.00  0.00    -0.378 OA
HETATM   12  C16 UNL     1      24.761   5.428  50.426  1.00  0.00     0.202 C 
ENDBRANCH   7  11
ENDBRANCH   1   2
BRANCH   1  13
HETATM   13  N1  UNL     1      22.942  -0.420  53.302  1.00  0.00    -0.388 N 
HETATM   14  H5  UNL     1      23.487  -1.103  53.933  1.00  0.00     0.157 HD
HETATM   15  H6  UNL     1      22.040  -0.887  53.183  1.00  0.00     0.157 HD
ENDBRANCH   1  13
BRANCH   1  16
HETATM   16  N2  UNL     1      25.185   0.681  53.183  1.00  0.00    -0.345 N 
HETATM   17  H7  UNL     1      24.995  -0.211  52.609  1.00  0.00     0.167 HD
BRANCH  16  18
HETATM   18  C7  UNL     1      26.554   0.638  53.316  1.00  0.00     0.033 A 
HETATM   19  C8  UNL     1      27.002   1.948  53.434  1.00  0.00     0.029 A 
HETATM   20  C9  UNL     1      28.363   2.239  53.596  1.00  0.00     0.003 A 
HETATM   21  C10 UNL     1      29.193   1.115  53.627  1.00  0.00     0.007 A 
HETATM   22  C11 UNL     1      28.781  -0.201  53.514  1.00  0.00    -0.060 A 
HETATM   23  C12 UNL     1      29.728  -1.340  53.583  1.00  0.00     0.048 C 
HETATM   24  C13 UNL     1      27.450  -0.383  53.361  1.00  0.00     0.036 A 
ENDBRANCH  16  18
ENDBRANCH   1  16
TORSDOF 6
ENDMDL
MODEL 8
REMARK VINA RESULT:      -6.6      2.073      3.287
REMARK  6 active torsions:
REMARK  status: ('A' for Active; 'I' for Inactive)
REMARK    1  A    between atoms: O1_2  and  C2_3 
REMARK    2  A    between atoms: C5_6  and  C6_7 
REMARK    3  A    between atoms: C6_7  and  N1_8 
REMARK    4  A    between atoms: C6_7  and  N2_9 
REMARK    5  A    between atoms: N2_9  and  C7_10 
REMARK    6  A    between atoms: C15_18  and  O2_19 
ROOT
HETATM    1  C6  UNL     1      22.705  -0.783  54.148  1.00  0.00     0.087 C 
ENDROOT
BRANCH   1   2
HETATM    2  C5  UNL     1      21.625  -0.404  53.409  1.00  0.00     0.056 A 
HETATM    3  C4  UNL     1      21.420   0.259  52.287  1.00  0.00     0.004 A 
HETATM    4  C3  UNL     1      20.201   0.545  51.539  1.00  0.00     0.046 A 
HETATM    5  N3  UNL     1      20.331  -0.073  52.568  1.00  0.00     0.000 N 
HETATM    6  C2  UNL     1      18.740   0.217  51.729  1.00  0.00     0.135 A 
HETATM    7  C15 UNL     1      19.033  -0.517  52.989  1.00  0.00     0.140 A 
HETATM    8  C14 UNL     1      20.321  -0.715  53.609  1.00  0.00     0.039 A 
BRANCH   6   9
HETATM    9  O1  UNL     1      17.435   0.318  51.247  1.00  0.00    -0.378 OA
HETATM   10  C1  UNL     1      17.045  -0.193  50.021  1.00  0.00     0.202 C 
ENDBRANCH   6   9
BRANCH   7  11
HETATM   11  O2  UNL     1      17.780  -1.023  53.533  1.00  0.00    -0.378 OA
HETATM   12  C16 UNL     1      17.551  -2.393  53.520  1.00  0.00     0.202 C 
ENDBRANCH   7  11
ENDBRANCH   1   2
BRANCH   1  13
HETATM   13  N1  UNL     1      22.333  -1.692  55.216  1.00  0.00    -0.388 N 
HETATM   14  H5  UNL     1      22.264  -2.678  54.786  1.00  0.00     0.157 HD
HETATM   15  H6  UNL     1      22.112  -1.855  56.202  1.00  0.00     0.157 HD
ENDBRANCH   1  13
BRANCH   1  16
HETATM   16  N2  UNL     1      24.000  -0.393  53.878  1.00  0.00    -0.345 N 
HETATM   17  H7  UNL     1      23.433   0.466  53.559  1.00  0.00     0.167 HD
BRANCH  16  18
HETATM   18  C7  UNL     1      25.288   0.007  53.605  1.00  0.00     0.033 A 
HETATM   19  C8  UNL     1      25.270   0.656  52.376  1.00  0.00     0.029 A 
HETATM   20  C9  UNL     1      26.439   1.194  51.821  1.00  0.00     0.003 A 
HETATM   21  C10 UNL     1      27.583   1.019  52.605  1.00  0.00     0.007 A 
HETATM   22  C11 UNL     1      27.636   0.381  53.832  1.00  0.00    -0.060 A 
HETATM   23  C12 UNL     1      28.891   0.260  54.613  1.00  0.00     0.048 C 
HETATM   24  C13 UNL     1      26.459  -0.106  54.286  1.00  0.00     0.036 A 
ENDBRANCH  16  18
ENDBRANCH   1  16
TORSDOF 6
ENDMDL
MODEL 9
REMARK VINA RESULT:      -6.6      2.553      3.307
REMARK  6 active torsions:
REMARK  status: ('A' for Active; 'I' for Inactive)
REMARK    1  A    between atoms: O1_2  and  C2_3 
REMARK    2  A    between atoms: C5_6  and  C6_7 
REMARK    3  A    between atoms: C6_7  and  N1_8 
REMARK    4  A    between atoms: C6_7  and  N2_9 
REMARK    5  A    between atoms: N2_9  and  C7_10 
REMARK    6  A    between atoms: C15_18  and  O2_19 
ROOT
HETATM    1  C6  UNL     1      25.688   2.748  51.568  1.00  0.00     0.087 C 
ENDROOT
BRANCH   1   2
HETATM    2  C5  UNL     1      24.337   2.718  51.742  1.00  0.00     0.056 A 
HETATM    3  C4  UNL     1      23.440   1.818  52.098  1.00  0.00     0.004 A 
HETATM    4  C3  UNL     1      22.003   1.921  52.328  1.00  0.00     0.046 A 
HETATM    5  N3  UNL     1      22.781   2.784  52.001  1.00  0.00     0.000 N 
HETATM    6  C2  UNL     1      20.996   3.043  52.255  1.00  0.00     0.135 A 
HETATM    7  C15 UNL     1      22.053   4.011  51.856  1.00  0.00     0.140 A 
HETATM    8  C14 UNL     1      23.459   3.747  51.669  1.00  0.00     0.039 A 
BRANCH   6   9
HETATM    9  O1  UNL     1      19.671   3.452  52.405  1.00  0.00    -0.378 OA
HETATM   10  C1  UNL     1      18.661   3.056  51.546  1.00  0.00     0.202 C 
ENDBRANCH   6   9
BRANCH   7  11
HETATM   11  O2  UNL     1      21.436   5.318  51.665  1.00  0.00    -0.378 OA
HETATM   12  C16 UNL     1      21.378   5.847  50.382  1.00  0.00     0.202 C 
ENDBRANCH   7  11
ENDBRANCH   1   2
BRANCH   1  13
HETATM   13  N1  UNL     1      26.102   3.888  50.772  1.00  0.00    -0.388 N 
HETATM   14  H5  UNL     1      27.013   4.266  51.207  1.00  0.00     0.157 HD
HETATM   15  H6  UNL     1      25.951   4.513  49.976  1.00  0.00     0.157 HD
ENDBRANCH   1  13
BRANCH   1  16
HETATM   16  N2  UNL     1      26.559   1.836  52.126  1.00  0.00    -0.345 N 
HETATM   17  H7  UNL     1      26.864   1.838  51.093  1.00  0.00     0.167 HD
BRANCH  16  18
HETATM   18  C7  UNL     1      27.434   0.924  52.671  1.00  0.00     0.033 A 
HETATM   19  C8  UNL     1      28.328   1.629  53.468  1.00  0.00     0.029 A 
HETATM   20  C9  UNL     1      29.345   0.973  54.173  1.00  0.00     0.003 A 
HETATM   21  C10 UNL     1      29.366  -0.414  54.002  1.00  0.00     0.007 A 
HETATM   22  C11 UNL     1      28.491  -1.147  53.218  1.00  0.00    -0.060 A 
HETATM   23  C12 UNL     1      28.567  -2.624  53.110  1.00  0.00     0.048 C 
HETATM   24  C13 UNL     1      27.543  -0.428  52.575  1.00  0.00     0.036 A 
ENDBRANCH  16  18
ENDBRANCH   1  16
TORSDOF 6
ENDMDL
