MODEL 1
REMARK VINA RESULT:      -8.3      0.000      0.000
REMARK  4 active torsions:
REMARK  status: ('A' for Active; 'I' for Inactive)
REMARK    1  A    between atoms: C2_2  and  C3_3 
REMARK       I    between atoms: C3_3  and  N1_5 
REMARK    2  A    between atoms: N1_5  and  C4_6 
REMARK    3  A    between atoms: C8_10  and  O2_11 
REMARK    4  A    between atoms: O2_11  and  C9_12 
ROOT
HETATM    1  C9  UNL     1      21.518   1.418  52.178  1.00  0.00     0.205 C 
HETATM    2  N2  UNL     1      20.231   1.174  52.355  1.00  0.00    -0.129 NA
HETATM    3  N3  UNL     1      19.382   0.784  51.439  1.00  0.00    -0.191 N 
HETATM    4  C10 UNL     1      18.275  -0.064  51.885  1.00  0.00     0.205 C 
HETATM    5  N4  UNL     1      19.259   0.976  50.115  1.00  0.00    -0.166 NA
HETATM    6  C11 UNL     1      18.945   2.262  49.788  1.00  0.00     0.159 C 
HETATM    7  C12 UNL     1      19.381   3.337  50.569  1.00  0.00     0.140 C 
HETATM    8  N5  UNL     1      20.654   3.314  50.138  1.00  0.00    -0.241 NA
HETATM    9  C13 UNL     1      21.647   3.487  51.009  1.00  0.00     0.143 A 
HETATM   10  C14 UNL     1      22.114   2.646  51.999  1.00  0.00     0.066 A 
HETATM   11  C15 UNL     1      23.153   3.332  52.593  1.00  0.00     0.037 A 
HETATM   12  C16 UNL     1      23.326   4.580  51.983  1.00  0.00     0.093 A 
HETATM   13  N6  UNL     1      22.374   4.615  51.021  1.00  0.00    -0.345 N 
HETATM   14  C17 UNL     1      22.341   5.846  50.217  1.00  0.00     0.157 C 
ENDROOT
BRANCH   1  15
HETATM   15  O2  UNL     1      22.485   0.429  52.148  1.00  0.00    -0.290 OA
BRANCH  15  16
HETATM   16  C8  UNL     1      23.096  -0.138  53.231  1.00  0.00     0.080 A 
HETATM   17  C7  UNL     1      22.444  -0.672  54.322  1.00  0.00     0.037 A 
HETATM   18  C6  UNL     1      23.143  -1.225  55.372  1.00  0.00     0.005 A 
HETATM   19  C5  UNL     1      24.516  -1.239  55.319  1.00  0.00     0.029 A 
HETATM   20  C4  UNL     1      25.200  -0.713  54.240  1.00  0.00     0.037 A 
HETATM   21  C18 UNL     1      24.474  -0.163  53.197  1.00  0.00     0.066 A 
BRANCH  20  22
HETATM   22  N1  UNL     1      26.616  -0.744  54.218  1.00  0.00    -0.324 N 
HETATM   23  C3  UNL     1      27.652   0.176  54.530  1.00  0.00     0.244 C 
HETATM   24  O1  UNL     1      27.140   1.272  54.914  1.00  0.00    -0.268 OA
HETATM   25  H4  UNL     1      26.732  -1.720  53.879  1.00  0.00     0.169 HD
BRANCH  23  26
HETATM   26  C2  UNL     1      29.021  -0.257  54.370  1.00  0.00     0.064 C 
HETATM   27  C1  UNL     1      29.479  -1.157  53.514  1.00  0.00     0.017 C 
ENDBRANCH  23  26
ENDBRANCH  20  22
ENDBRANCH  15  16
ENDBRANCH   1  15
TORSDOF 4
ENDMDL
MODEL 2
REMARK VINA RESULT:      -8.2      2.945      7.878
REMARK  4 active torsions:
REMARK  status: ('A' for Active; 'I' for Inactive)
REMARK    1  A    between atoms: C2_2  and  C3_3 
REMARK       I    between atoms: C3_3  and  N1_5 
REMARK    2  A    between atoms: N1_5  and  C4_6 
REMARK    3  A    between atoms: C8_10  and  O2_11 
REMARK    4  A    between atoms: O2_11  and  C9_12 
ROOT
HETATM    1  C9  UNL     1      25.316   1.967  52.288  1.00  0.00     0.205 C 
HETATM    2  N2  UNL     1      26.346   2.339  53.028  1.00  0.00    -0.129 NA
HETATM    3  N3  UNL     1      27.461   1.672  53.197  1.00  0.00    -0.191 N 
HETATM    4  C10 UNL     1      28.672   2.462  53.425  1.00  0.00     0.205 C 
HETATM    5  N4  UNL     1      27.795   0.372  53.217  1.00  0.00    -0.166 NA
HETATM    6  C11 UNL     1      27.292  -0.294  54.296  1.00  0.00     0.159 C 
HETATM    7  C12 UNL     1      26.076   0.080  54.876  1.00  0.00     0.140 C 
HETATM    8  N5  UNL     1      25.296  -0.450  53.919  1.00  0.00    -0.241 NA
HETATM    9  C13 UNL     1      24.230   0.224  53.489  1.00  0.00     0.143 A 
HETATM   10  C14 UNL     1      24.155   1.368  52.721  1.00  0.00     0.066 A 
HETATM   11  C15 UNL     1      22.806   1.621  52.582  1.00  0.00     0.037 A 
HETATM   12  C16 UNL     1      22.056   0.649  53.256  1.00  0.00     0.093 A 
HETATM   13  N6  UNL     1      22.985  -0.178  53.790  1.00  0.00    -0.345 N 
HETATM   14  C17 UNL     1      22.448  -1.307  54.565  1.00  0.00     0.157 C 
ENDROOT
BRANCH   1  15
HETATM   15  O2  UNL     1      25.261   2.138  50.916  1.00  0.00    -0.290 OA
BRANCH  15  16
HETATM   16  C8  UNL     1      25.545   3.287  50.232  1.00  0.00     0.080 A 
HETATM   17  C7  UNL     1      26.748   3.570  49.621  1.00  0.00     0.037 A 
HETATM   18  C6  UNL     1      26.946   4.758  48.952  1.00  0.00     0.005 A 
HETATM   19  C5  UNL     1      25.918   5.668  48.898  1.00  0.00     0.029 A 
HETATM   20  C4  UNL     1      24.701   5.414  49.499  1.00  0.00     0.037 A 
HETATM   21  C18 UNL     1      24.527   4.214  50.166  1.00  0.00     0.066 A 
BRANCH  20  22
HETATM   22  N1  UNL     1      23.662   6.375  49.424  1.00  0.00    -0.324 N 
HETATM   23  C3  UNL     1      23.263   7.493  50.202  1.00  0.00     0.244 C 
HETATM   24  O1  UNL     1      24.051   7.623  51.189  1.00  0.00    -0.268 OA
HETATM   25  H4  UNL     1      23.207   6.026  48.557  1.00  0.00     0.169 HD
BRANCH  23  26
HETATM   26  C2  UNL     1      22.105   8.245  49.773  1.00  0.00     0.064 C 
HETATM   27  C1  UNL     1      20.839   7.996  50.065  1.00  0.00     0.017 C 
ENDBRANCH  23  26
ENDBRANCH  20  22
ENDBRANCH  15  16
ENDBRANCH   1  15
TORSDOF 4
ENDMDL
MODEL 3
REMARK VINA RESULT:      -8.1      3.931      7.492
REMARK  4 active torsions:
REMARK  status: ('A' for Active; 'I' for Inactive)
REMARK    1  A    between atoms: C2_2  and  C3_3 
REMARK       I    between atoms: C3_3  and  N1_5 
REMARK    2  A    between atoms: N1_5  and  C4_6 
REMARK    3  A    between atoms: C8_10  and  O2_11 
REMARK    4  A    between atoms: O2_11  and  C9_12 
ROOT
HETATM    1  C9  UNL     1      25.529   1.939  52.301  1.00  0.00     0.205 C 
HETATM    2  N2  UNL     1      26.518   2.350  53.076  1.00  0.00    -0.129 NA
HETATM    3  N3  UNL     1      27.631   1.706  53.321  1.00  0.00    -0.191 N 
HETATM    4  C10 UNL     1      28.821   2.520  53.578  1.00  0.00     0.205 C 
HETATM    5  N4  UNL     1      27.981   0.412  53.403  1.00  0.00    -0.166 NA
HETATM    6  C11 UNL     1      27.434  -0.223  54.480  1.00  0.00     0.159 C 
HETATM    7  C12 UNL     1      26.187   0.154  54.988  1.00  0.00     0.140 C 
HETATM    8  N5  UNL     1      25.461  -0.420  54.014  1.00  0.00    -0.241 NA
HETATM    9  C13 UNL     1      24.409   0.223  53.511  1.00  0.00     0.143 A 
HETATM   10  C14 UNL     1      24.356   1.339  52.700  1.00  0.00     0.066 A 
HETATM   11  C15 UNL     1      23.012   1.567  52.488  1.00  0.00     0.037 A 
HETATM   12  C16 UNL     1      22.243   0.610  53.160  1.00  0.00     0.093 A 
HETATM   13  N6  UNL     1      23.156  -0.185  53.767  1.00  0.00    -0.345 N 
HETATM   14  C17 UNL     1      22.596  -1.294  54.554  1.00  0.00     0.157 C 
ENDROOT
BRANCH   1  15
HETATM   15  O2  UNL     1      25.538   2.061  50.923  1.00  0.00    -0.290 OA
BRANCH  15  16
HETATM   16  C8  UNL     1      25.304   3.204  50.211  1.00  0.00     0.080 A 
HETATM   17  C7  UNL     1      24.075   3.603  49.732  1.00  0.00     0.037 A 
HETATM   18  C6  UNL     1      23.932   4.775  49.022  1.00  0.00     0.005 A 
HETATM   19  C5  UNL     1      25.042   5.552  48.794  1.00  0.00     0.029 A 
HETATM   20  C4  UNL     1      26.288   5.180  49.262  1.00  0.00     0.037 A 
HETATM   21  C18 UNL     1      26.405   3.999  49.973  1.00  0.00     0.066 A 
BRANCH  20  22
HETATM   22  N1  UNL     1      27.411   6.006  49.008  1.00  0.00    -0.324 N 
HETATM   23  C3  UNL     1      28.698   5.813  48.440  1.00  0.00     0.244 C 
HETATM   24  O1  UNL     1      28.828   4.600  48.092  1.00  0.00    -0.268 OA
HETATM   25  H4  UNL     1      27.023   6.894  49.382  1.00  0.00     0.169 HD
BRANCH  23  26
HETATM   26  C2  UNL     1      29.586   6.952  48.359  1.00  0.00     0.064 C 
HETATM   27  C1  UNL     1      30.501   7.185  47.432  1.00  0.00     0.017 C 
ENDBRANCH  23  26
ENDBRANCH  20  22
ENDBRANCH  15  16
ENDBRANCH   1  15
TORSDOF 4
ENDMDL
MODEL 4
REMARK VINA RESULT:      -7.9      4.127      5.968
REMARK  4 active torsions:
REMARK  status: ('A' for Active; 'I' for Inactive)
REMARK    1  A    between atoms: C2_2  and  C3_3 
REMARK       I    between atoms: C3_3  and  N1_5 
REMARK    2  A    between atoms: N1_5  and  C4_6 
REMARK    3  A    between atoms: C8_10  and  O2_11 
REMARK    4  A    between atoms: O2_11  and  C9_12 
ROOT
HETATM    1  C9  UNL     1      25.795   5.488  49.420  1.00  0.00     0.205 C 
HETATM    2  N2  UNL     1      24.988   6.184  50.202  1.00  0.00    -0.129 NA
HETATM    3  N3  UNL     1      23.807   6.650  49.880  1.00  0.00    -0.191 N 
HETATM    4  C10 UNL     1      22.824   6.754  50.960  1.00  0.00     0.205 C 
HETATM    5  N4  UNL     1      23.234   7.081  48.745  1.00  0.00    -0.166 NA
HETATM    6  C11 UNL     1      23.765   8.252  48.289  1.00  0.00     0.159 C 
HETATM    7  C12 UNL     1      25.107   8.576  48.512  1.00  0.00     0.140 C 
HETATM    8  N5  UNL     1      25.606   7.744  47.582  1.00  0.00    -0.241 NA
HETATM    9  C13 UNL     1      26.700   7.033  47.854  1.00  0.00     0.143 A 
HETATM   10  C14 UNL     1      26.872   5.961  48.705  1.00  0.00     0.066 A 
HETATM   11  C15 UNL     1      28.205   5.623  48.593  1.00  0.00     0.037 A 
HETATM   12  C16 UNL     1      28.850   6.474  47.688  1.00  0.00     0.093 A 
HETATM   13  N6  UNL     1      27.875   7.315  47.269  1.00  0.00    -0.345 N 
HETATM   14  C17 UNL     1      28.299   8.329  46.292  1.00  0.00     0.157 C 
ENDROOT
BRANCH   1  15
HETATM   15  O2  UNL     1      25.663   4.127  49.206  1.00  0.00    -0.290 OA
BRANCH  15  16
HETATM   16  C8  UNL     1      25.403   3.181  50.157  1.00  0.00     0.080 A 
HETATM   17  C7  UNL     1      24.147   2.748  50.525  1.00  0.00     0.037 A 
HETATM   18  C6  UNL     1      23.980   1.786  51.496  1.00  0.00     0.005 A 
HETATM   19  C5  UNL     1      25.093   1.254  52.101  1.00  0.00     0.029 A 
HETATM   20  C4  UNL     1      26.366   1.665  51.755  1.00  0.00     0.037 A 
HETATM   21  C18 UNL     1      26.507   2.633  50.776  1.00  0.00     0.066 A 
BRANCH  20  22
HETATM   22  N1  UNL     1      27.491   1.095  52.399  1.00  0.00    -0.324 N 
HETATM   23  C3  UNL     1      28.313   1.453  53.500  1.00  0.00     0.244 C 
HETATM   24  O1  UNL     1      27.905   2.550  53.992  1.00  0.00    -0.268 OA
HETATM   25  H4  UNL     1      27.584   0.249  51.803  1.00  0.00     0.169 HD
BRANCH  23  26
HETATM   26  C2  UNL     1      29.402   0.571  53.855  1.00  0.00     0.064 C 
HETATM   27  C1  UNL     1      29.513  -0.715  53.565  1.00  0.00     0.017 C 
ENDBRANCH  23  26
ENDBRANCH  20  22
ENDBRANCH  15  16
ENDBRANCH   1  15
TORSDOF 4
ENDMDL
MODEL 5
REMARK VINA RESULT:      -7.9      3.358      7.555
REMARK  4 active torsions:
REMARK  status: ('A' for Active; 'I' for Inactive)
REMARK    1  A    between atoms: C2_2  and  C3_3 
REMARK       I    between atoms: C3_3  and  N1_5 
REMARK    2  A    between atoms: N1_5  and  C4_6 
REMARK    3  A    between atoms: C8_10  and  O2_11 
REMARK    4  A    between atoms: O2_11  and  C9_12 
ROOT
HETATM    1  C9  UNL     1      25.430   1.910  52.307  1.00  0.00     0.205 C 
HETATM    2  N2  UNL     1      26.424   2.335  53.067  1.00  0.00    -0.129 NA
HETATM    3  N3  UNL     1      27.544   1.701  53.305  1.00  0.00    -0.191 N 
HETATM    4  C10 UNL     1      28.730   2.527  53.543  1.00  0.00     0.205 C 
HETATM    5  N4  UNL     1      27.905   0.411  53.393  1.00  0.00    -0.166 NA
HETATM    6  C11 UNL     1      27.375  -0.220  54.480  1.00  0.00     0.159 C 
HETATM    7  C12 UNL     1      26.131   0.151  55.000  1.00  0.00     0.140 C 
HETATM    8  N5  UNL     1      25.398  -0.436  54.038  1.00  0.00    -0.241 NA
HETATM    9  C13 UNL     1      24.336   0.196  53.542  1.00  0.00     0.143 A 
HETATM   10  C14 UNL     1      24.266   1.304  52.723  1.00  0.00     0.066 A 
HETATM   11  C15 UNL     1      22.918   1.521  52.525  1.00  0.00     0.037 A 
HETATM   12  C16 UNL     1      22.163   0.563  53.212  1.00  0.00     0.093 A 
HETATM   13  N6  UNL     1      23.089  -0.220  53.814  1.00  0.00    -0.345 N 
HETATM   14  C17 UNL     1      22.547  -1.327  54.616  1.00  0.00     0.157 C 
ENDROOT
BRANCH   1  15
HETATM   15  O2  UNL     1      25.422   2.022  50.928  1.00  0.00    -0.290 OA
BRANCH  15  16
HETATM   16  C8  UNL     1      24.980   3.095  50.206  1.00  0.00     0.080 A 
HETATM   17  C7  UNL     1      23.852   3.109  49.414  1.00  0.00     0.037 A 
HETATM   18  C6  UNL     1      23.480   4.239  48.720  1.00  0.00     0.005 A 
HETATM   19  C5  UNL     1      24.257   5.367  48.827  1.00  0.00     0.029 A 
HETATM   20  C4  UNL     1      25.394   5.387  49.612  1.00  0.00     0.037 A 
HETATM   21  C18 UNL     1      25.745   4.238  50.300  1.00  0.00     0.066 A 
BRANCH  20  22
HETATM   22  N1  UNL     1      26.171   6.568  49.699  1.00  0.00    -0.324 N 
HETATM   23  C3  UNL     1      25.959   7.883  50.189  1.00  0.00     0.244 C 
HETATM   24  O1  UNL     1      24.779   7.976  50.649  1.00  0.00    -0.268 OA
HETATM   25  H4  UNL     1      27.041   6.198  49.266  1.00  0.00     0.169 HD
BRANCH  23  26
HETATM   26  C2  UNL     1      27.045   8.832  50.091  1.00  0.00     0.064 C 
HETATM   27  C1  UNL     1      28.128   8.730  49.337  1.00  0.00     0.017 C 
ENDBRANCH  23  26
ENDBRANCH  20  22
ENDBRANCH  15  16
ENDBRANCH   1  15
TORSDOF 4
ENDMDL
MODEL 6
REMARK VINA RESULT:      -7.9      2.027      4.113
REMARK  4 active torsions:
REMARK  status: ('A' for Active; 'I' for Inactive)
REMARK    1  A    between atoms: C2_2  and  C3_3 
REMARK       I    between atoms: C3_3  and  N1_5 
REMARK    2  A    between atoms: N1_5  and  C4_6 
REMARK    3  A    between atoms: C8_10  and  O2_11 
REMARK    4  A    between atoms: O2_11  and  C9_12 
ROOT
HETATM    1  C9  UNL     1      21.950   1.169  51.262  1.00  0.00     0.205 C 
HETATM    2  N2  UNL     1      21.761   1.218  49.955  1.00  0.00    -0.129 NA
HETATM    3  N3  UNL     1      20.989   2.059  49.313  1.00  0.00    -0.191 N 
HETATM    4  C10 UNL     1      21.403   2.430  47.959  1.00  0.00     0.205 C 
HETATM    5  N4  UNL     1      19.847   2.705  49.597  1.00  0.00    -0.166 NA
HETATM    6  C11 UNL     1      18.771   1.872  49.697  1.00  0.00     0.159 C 
HETATM    7  C12 UNL     1      18.912   0.557  50.151  1.00  0.00     0.140 C 
HETATM    8  N5  UNL     1      19.054   0.874  51.450  1.00  0.00    -0.241 NA
HETATM    9  C13 UNL     1      19.965   0.238  52.186  1.00  0.00     0.143 A 
HETATM   10  C14 UNL     1      21.342   0.320  52.159  1.00  0.00     0.066 A 
HETATM   11  C15 UNL     1      21.774  -0.556  53.134  1.00  0.00     0.037 A 
HETATM   12  C16 UNL     1      20.681  -1.172  53.755  1.00  0.00     0.093 A 
HETATM   13  N6  UNL     1      19.602  -0.645  53.131  1.00  0.00    -0.345 N 
HETATM   14  C17 UNL     1      18.300  -1.136  53.607  1.00  0.00     0.157 C 
ENDROOT
BRANCH   1  15
HETATM   15  O2  UNL     1      22.824   2.002  51.938  1.00  0.00    -0.290 OA
BRANCH  15  16
HETATM   16  C8  UNL     1      24.108   2.293  51.573  1.00  0.00     0.080 A 
HETATM   17  C7  UNL     1      24.472   3.194  50.595  1.00  0.00     0.037 A 
HETATM   18  C6  UNL     1      25.796   3.425  50.294  1.00  0.00     0.005 A 
HETATM   19  C5  UNL     1      26.763   2.739  50.988  1.00  0.00     0.029 A 
HETATM   20  C4  UNL     1      26.432   1.830  51.974  1.00  0.00     0.037 A 
HETATM   21  C18 UNL     1      25.095   1.616  52.258  1.00  0.00     0.066 A 
BRANCH  20  22
HETATM   22  N1  UNL     1      27.456   1.139  52.670  1.00  0.00    -0.324 N 
HETATM   23  C3  UNL     1      28.346   1.455  53.730  1.00  0.00     0.244 C 
HETATM   24  O1  UNL     1      28.140   2.647  54.113  1.00  0.00    -0.268 OA
HETATM   25  H4  UNL     1      27.392   0.237  52.158  1.00  0.00     0.169 HD
BRANCH  23  26
HETATM   26  C2  UNL     1      29.275   0.436  54.167  1.00  0.00     0.064 C 
HETATM   27  C1  UNL     1      29.595  -0.678  53.529  1.00  0.00     0.017 C 
ENDBRANCH  23  26
ENDBRANCH  20  22
ENDBRANCH  15  16
ENDBRANCH   1  15
TORSDOF 4
ENDMDL
MODEL 7
REMARK VINA RESULT:      -7.8      2.052      3.914
REMARK  4 active torsions:
REMARK  status: ('A' for Active; 'I' for Inactive)
REMARK    1  A    between atoms: C2_2  and  C3_3 
REMARK       I    between atoms: C3_3  and  N1_5 
REMARK    2  A    between atoms: N1_5  and  C4_6 
REMARK    3  A    between atoms: C8_10  and  O2_11 
REMARK    4  A    between atoms: O2_11  and  C9_12 
ROOT
HETATM    1  C9  UNL     1      23.401   2.746  50.346  1.00  0.00     0.205 C 
HETATM    2  N2  UNL     1      24.433   3.198  49.655  1.00  0.00    -0.129 NA
HETATM    3  N3  UNL     1      24.777   4.452  49.506  1.00  0.00    -0.191 N 
HETATM    4  C10 UNL     1      26.206   4.728  49.346  1.00  0.00     0.205 C 
HETATM    5  N4  UNL     1      24.115   5.619  49.459  1.00  0.00    -0.166 NA
HETATM    6  C11 UNL     1      23.341   5.751  48.343  1.00  0.00     0.159 C 
HETATM    7  C12 UNL     1      22.756   4.638  47.730  1.00  0.00     0.140 C 
HETATM    8  N5  UNL     1      21.783   4.474  48.643  1.00  0.00    -0.241 NA
HETATM    9  C13 UNL     1      21.467   3.246  49.054  1.00  0.00     0.143 A 
HETATM   10  C14 UNL     1      22.172   2.370  49.854  1.00  0.00     0.066 A 
HETATM   11  C15 UNL     1      21.373   1.249  49.951  1.00  0.00     0.037 A 
HETATM   12  C16 UNL     1      20.191   1.428  49.222  1.00  0.00     0.093 A 
HETATM   13  N6  UNL     1      20.308   2.670  48.696  1.00  0.00    -0.345 N 
HETATM   14  C17 UNL     1      19.175   3.110  47.869  1.00  0.00     0.157 C 
ENDROOT
BRANCH   1  15
HETATM   15  O2  UNL     1      23.416   2.580  51.719  1.00  0.00    -0.290 OA
BRANCH  15  16
HETATM   16  C8  UNL     1      23.856   1.477  52.396  1.00  0.00     0.080 A 
HETATM   17  C7  UNL     1      23.046   0.559  53.030  1.00  0.00     0.037 A 
HETATM   18  C6  UNL     1      23.578  -0.527  53.690  1.00  0.00     0.005 A 
HETATM   19  C5  UNL     1      24.942  -0.687  53.710  1.00  0.00     0.029 A 
HETATM   20  C4  UNL     1      25.782   0.215  53.084  1.00  0.00     0.037 A 
HETATM   21  C18 UNL     1      25.223   1.297  52.427  1.00  0.00     0.066 A 
BRANCH  20  22
HETATM   22  N1  UNL     1      27.184   0.018  53.125  1.00  0.00    -0.324 N 
HETATM   23  C3  UNL     1      28.235   0.419  53.991  1.00  0.00     0.244 C 
HETATM   24  O1  UNL     1      27.758   1.115  54.939  1.00  0.00    -0.268 OA
HETATM   25  H4  UNL     1      27.272  -0.559  52.265  1.00  0.00     0.169 HD
BRANCH  23  26
HETATM   26  C2  UNL     1      29.581  -0.004  53.673  1.00  0.00     0.064 C 
HETATM   27  C1  UNL     1      30.036  -1.245  53.622  1.00  0.00     0.017 C 
ENDBRANCH  23  26
ENDBRANCH  20  22
ENDBRANCH  15  16
ENDBRANCH   1  15
TORSDOF 4
ENDMDL
MODEL 8
REMARK VINA RESULT:      -7.5      2.944      8.014
REMARK  4 active torsions:
REMARK  status: ('A' for Active; 'I' for Inactive)
REMARK    1  A    between atoms: C2_2  and  C3_3 
REMARK       I    between atoms: C3_3  and  N1_5 
REMARK    2  A    between atoms: N1_5  and  C4_6 
REMARK    3  A    between atoms: C8_10  and  O2_11 
REMARK    4  A    between atoms: O2_11  and  C9_12 
ROOT
HETATM    1  C9  UNL     1      25.331   1.806  52.398  1.00  0.00     0.205 C 
HETATM    2  N2  UNL     1      26.329   2.266  53.132  1.00  0.00    -0.129 NA
HETATM    3  N3  UNL     1      27.478   1.673  53.340  1.00  0.00    -0.191 N 
HETATM    4  C10 UNL     1      28.639   2.541  53.546  1.00  0.00     0.205 C 
HETATM    5  N4  UNL     1      27.887   0.396  53.417  1.00  0.00    -0.166 NA
HETATM    6  C11 UNL     1      27.409  -0.253  54.517  1.00  0.00     0.159 C 
HETATM    7  C12 UNL     1      26.166   0.073  55.070  1.00  0.00     0.140 C 
HETATM    8  N5  UNL     1      25.430  -0.540  54.128  1.00  0.00    -0.241 NA
HETATM    9  C13 UNL     1      24.333   0.053  53.660  1.00  0.00     0.143 A 
HETATM   10  C14 UNL     1      24.201   1.158  52.845  1.00  0.00     0.066 A 
HETATM   11  C15 UNL     1      22.841   1.326  52.683  1.00  0.00     0.037 A 
HETATM   12  C16 UNL     1      22.140   0.341  53.389  1.00  0.00     0.093 A 
HETATM   13  N6  UNL     1      23.109  -0.408  53.966  1.00  0.00    -0.345 N 
HETATM   14  C17 UNL     1      22.629  -1.534  54.781  1.00  0.00     0.157 C 
ENDROOT
BRANCH   1  15
HETATM   15  O2  UNL     1      25.283   1.917  51.020  1.00  0.00    -0.290 OA
BRANCH  15  16
HETATM   16  C8  UNL     1      25.470   3.060  50.294  1.00  0.00     0.080 A 
HETATM   17  C7  UNL     1      26.695   3.578  49.930  1.00  0.00     0.037 A 
HETATM   18  C6  UNL     1      26.790   4.739  49.195  1.00  0.00     0.005 A 
HETATM   19  C5  UNL     1      25.635   5.383  48.823  1.00  0.00     0.029 A 
HETATM   20  C4  UNL     1      24.392   4.891  49.172  1.00  0.00     0.037 A 
HETATM   21  C18 UNL     1      24.324   3.722  49.910  1.00  0.00     0.066 A 
BRANCH  20  22
HETATM   22  N1  UNL     1      23.221   5.582  48.772  1.00  0.00    -0.324 N 
HETATM   23  C3  UNL     1      22.157   5.326  47.867  1.00  0.00     0.244 C 
HETATM   24  O1  UNL     1      22.340   4.202  47.307  1.00  0.00    -0.268 OA
HETATM   25  H4  UNL     1      23.340   6.423  49.371  1.00  0.00     0.169 HD
BRANCH  23  26
HETATM   26  C2  UNL     1      21.114   6.320  47.742  1.00  0.00     0.064 C 
HETATM   27  C1  UNL     1      21.109   7.540  48.254  1.00  0.00     0.017 C 
ENDBRANCH  23  26
ENDBRANCH  20  22
ENDBRANCH  15  16
ENDBRANCH   1  15
TORSDOF 4
ENDMDL
MODEL 9
REMARK VINA RESULT:      -7.5      1.652      3.418
REMARK  4 active torsions:
REMARK  status: ('A' for Active; 'I' for Inactive)
REMARK    1  A    between atoms: C2_2  and  C3_3 
REMARK       I    between atoms: C3_3  and  N1_5 
REMARK    2  A    between atoms: N1_5  and  C4_6 
REMARK    3  A    between atoms: C8_10  and  O2_11 
REMARK    4  A    between atoms: O2_11  and  C9_12 
ROOT
HETATM    1  C9  UNL     1      21.180   1.344  51.186  1.00  0.00     0.205 C 
HETATM    2  N2  UNL     1      22.031   1.601  50.208  1.00  0.00    -0.129 NA
HETATM    3  N3  UNL     1      22.312   2.781  49.714  1.00  0.00    -0.191 N 
HETATM    4  C10 UNL     1      23.667   2.971  49.194  1.00  0.00     0.205 C 
HETATM    5  N4  UNL     1      21.633   3.928  49.552  1.00  0.00    -0.166 NA
HETATM    6  C11 UNL     1      20.635   3.833  48.626  1.00  0.00     0.159 C 
HETATM    7  C12 UNL     1      19.952   2.631  48.416  1.00  0.00     0.140 C 
HETATM    8  N5  UNL     1      19.202   2.702  49.529  1.00  0.00    -0.241 NA
HETATM    9  C13 UNL     1      19.004   1.606  50.260  1.00  0.00     0.143 A 
HETATM   10  C14 UNL     1      19.881   0.906  51.064  1.00  0.00     0.066 A 
HETATM   11  C15 UNL     1      19.142  -0.141  51.577  1.00  0.00     0.037 A 
HETATM   12  C16 UNL     1      17.828  -0.092  51.096  1.00  0.00     0.093 A 
HETATM   13  N6  UNL     1      17.807   1.000  50.296  1.00  0.00    -0.345 N 
HETATM   14  C17 UNL     1      16.514   1.281  49.654  1.00  0.00     0.157 C 
ENDROOT
BRANCH   1  15
HETATM   15  O2  UNL     1      21.494   1.485  52.526  1.00  0.00    -0.290 OA
BRANCH  15  16
HETATM   16  C8  UNL     1      22.240   0.622  53.278  1.00  0.00     0.080 A 
HETATM   17  C7  UNL     1      21.744  -0.210  54.259  1.00  0.00     0.037 A 
HETATM   18  C6  UNL     1      22.573  -1.051  54.969  1.00  0.00     0.005 A 
HETATM   19  C5  UNL     1      23.917  -1.053  54.683  1.00  0.00     0.029 A 
HETATM   20  C4  UNL     1      24.446  -0.232  53.705  1.00  0.00     0.037 A 
HETATM   21  C18 UNL     1      23.592   0.603  53.006  1.00  0.00     0.066 A 
BRANCH  20  22
HETATM   22  N1  UNL     1      25.837  -0.260  53.436  1.00  0.00    -0.324 N 
HETATM   23  C3  UNL     1      26.988   0.342  54.009  1.00  0.00     0.244 C 
HETATM   24  O1  UNL     1      26.640   1.067  54.991  1.00  0.00    -0.268 OA
HETATM   25  H4  UNL     1      25.812  -0.905  52.621  1.00  0.00     0.169 HD
BRANCH  23  26
HETATM   26  C2  UNL     1      28.276   0.049  53.421  1.00  0.00     0.064 C 
HETATM   27  C1  UNL     1      28.973  -1.069  53.543  1.00  0.00     0.017 C 
ENDBRANCH  23  26
ENDBRANCH  20  22
ENDBRANCH  15  16
ENDBRANCH   1  15
TORSDOF 4
ENDMDL
