MODEL 1
REMARK VINA RESULT:      -7.0      0.000      0.000
REMARK  8 active torsions:
REMARK  status: ('A' for Active; 'I' for Inactive)
REMARK    1  A    between atoms: C1_2  and  C2_3 
REMARK    2  A    between atoms: C4_5  and  N1_6 
REMARK    3  A    between atoms: N1_6  and  C5_7 
REMARK    4  A    between atoms: C8_12  and  C9_13 
REMARK    5  A    between atoms: C9_13  and  O2_14 
REMARK    6  A    between atoms: O2_14  and  C10_15 
REMARK    7  A    between atoms: C10_15  and  C11_16 
REMARK    8  A    between atoms: C11_16  and  O3_17 
ROOT
HETATM    1  C5  UNL     1      23.816   1.642  52.040  1.00  0.00     0.139 A 
HETATM    2  N2  UNL     1      24.313   2.535  51.162  1.00  0.00    -0.224 NA
HETATM    3  C6  UNL     1      23.700   2.786  49.982  1.00  0.00     0.234 A 
HETATM    4  N3  UNL     1      22.570   2.117  49.700  1.00  0.00    -0.253 NA
HETATM    5  C7  UNL     1      22.026   1.221  50.523  1.00  0.00     0.131 A 
HETATM    6  C8  UNL     1      22.637   0.938  51.754  1.00  0.00     0.029 A 
ENDROOT
BRANCH   1   7
HETATM    7  N1  UNL     1      24.338   1.270  53.305  1.00  0.00    -0.340 N 
HETATM    8  H3  UNL     1      23.866   1.409  54.222  1.00  0.00     0.167 HD
BRANCH   7   9
HETATM    9  C4  UNL     1      25.638   0.645  53.309  1.00  0.00     0.034 A 
HETATM   10  C3  UNL     1      26.758   1.367  53.738  1.00  0.00     0.045 A 
HETATM   11  C2  UNL     1      27.964   0.696  53.707  1.00  0.00     0.025 A 
HETATM   12  C14 UNL     1      28.165  -0.600  53.299  1.00  0.00     0.047 A 
HETATM   13  C13 UNL     1      27.046  -1.287  52.882  1.00  0.00     0.027 A 
HETATM   14 CL1  UNL     1      29.747  -1.357  53.300  1.00  0.00    -0.083 Cl
HETATM   15  C12 UNL     1      25.818  -0.658  52.894  1.00  0.00     0.031 A 
BRANCH  11  16
HETATM   16  C1  UNL     1      29.145   1.427  54.151  1.00  0.00     0.271 C 
HETATM   17  O1  UNL     1      29.463   2.275  55.020  1.00  0.00    -0.301 OA
ENDBRANCH  11  16
ENDBRANCH   7   9
ENDBRANCH   1   7
BRANCH   6  18
HETATM   18  C9  UNL     1      22.016  -0.061  52.666  1.00  0.00     0.211 C 
BRANCH  18  19
HETATM   19  O2  UNL     1      21.307   0.536  53.704  1.00  0.00    -0.384 OA
BRANCH  19  20
HETATM   20  C10 UNL     1      21.360  -0.241  54.841  1.00  0.00     0.194 C 
BRANCH  20  21
HETATM   21  C11 UNL     1      22.264  -1.448  54.666  1.00  0.00     0.190 C 
BRANCH  21  22
HETATM   22  O3  UNL     1      22.926  -1.813  55.816  1.00  0.00    -0.399 OA
HETATM   23  H12 UNL     1      22.364  -2.281  56.482  1.00  0.00     0.209 HD
ENDBRANCH  21  22
ENDBRANCH  20  21
ENDBRANCH  19  20
ENDBRANCH  18  19
ENDBRANCH   6  18
TORSDOF 8
ENDMDL
MODEL 2
REMARK VINA RESULT:      -6.9      1.901      3.463
REMARK  8 active torsions:
REMARK  status: ('A' for Active; 'I' for Inactive)
REMARK    1  A    between atoms: C1_2  and  C2_3 
REMARK    2  A    between atoms: C4_5  and  N1_6 
REMARK    3  A    between atoms: N1_6  and  C5_7 
REMARK    4  A    between atoms: C8_12  and  C9_13 
REMARK    5  A    between atoms: C9_13  and  O2_14 
REMARK    6  A    between atoms: O2_14  and  C10_15 
REMARK    7  A    between atoms: C10_15  and  C11_16 
REMARK    8  A    between atoms: C11_16  and  O3_17 
ROOT
HETATM    1  C5  UNL     1      23.563  -0.155  53.611  1.00  0.00     0.139 A 
HETATM    2  N2  UNL     1      23.728  -0.998  54.649  1.00  0.00    -0.224 NA
HETATM    3  C6  UNL     1      22.671  -1.498  55.331  1.00  0.00     0.234 A 
HETATM    4  N3  UNL     1      21.438  -1.132  54.945  1.00  0.00    -0.253 NA
HETATM    5  C7  UNL     1      21.206  -0.303  53.928  1.00  0.00     0.131 A 
HETATM    6  C8  UNL     1      22.279   0.232  53.200  1.00  0.00     0.029 A 
ENDROOT
BRANCH   1   7
HETATM    7  N1  UNL     1      24.561   0.451  52.805  1.00  0.00    -0.340 N 
HETATM    8  H3  UNL     1      24.395   1.166  52.067  1.00  0.00     0.167 HD
BRANCH   7   9
HETATM    9  C4  UNL     1      25.921   0.032  53.037  1.00  0.00     0.034 A 
HETATM   10  C3  UNL     1      26.794   0.860  53.754  1.00  0.00     0.045 A 
HETATM   11  C2  UNL     1      28.078   0.386  53.928  1.00  0.00     0.025 A 
HETATM   12  C14 UNL     1      28.575  -0.809  53.469  1.00  0.00     0.047 A 
HETATM   13  C13 UNL     1      27.696  -1.604  52.767  1.00  0.00     0.027 A 
HETATM   14 CL1  UNL     1      30.231  -1.315  53.749  1.00  0.00    -0.083 Cl
HETATM   15  C12 UNL     1      26.401  -1.172  52.567  1.00  0.00     0.031 A 
BRANCH  11  16
HETATM   16  C1  UNL     1      29.005   1.230  54.672  1.00  0.00     0.271 C 
HETATM   17  O1  UNL     1      29.395   2.424  54.690  1.00  0.00    -0.301 OA
ENDBRANCH  11  16
ENDBRANCH   7   9
ENDBRANCH   1   7
BRANCH   6  18
HETATM   18  C9  UNL     1      22.006   1.153  52.064  1.00  0.00     0.211 C 
BRANCH  18  19
HETATM   19  O2  UNL     1      22.162   2.491  52.415  1.00  0.00    -0.384 OA
BRANCH  19  20
HETATM   20  C10 UNL     1      22.777   3.193  51.402  1.00  0.00     0.194 C 
BRANCH  20  21
HETATM   21  C11 UNL     1      23.971   3.986  51.902  1.00  0.00     0.190 C 
BRANCH  21  22
HETATM   22  O3  UNL     1      24.478   3.529  53.097  1.00  0.00    -0.399 OA
HETATM   23  H12 UNL     1      25.251   2.918  53.007  1.00  0.00     0.209 HD
ENDBRANCH  21  22
ENDBRANCH  20  21
ENDBRANCH  19  20
ENDBRANCH  18  19
ENDBRANCH   6  18
TORSDOF 8
ENDMDL
MODEL 3
REMARK VINA RESULT:      -6.5      3.604      5.479
REMARK  8 active torsions:
REMARK  status: ('A' for Active; 'I' for Inactive)
REMARK    1  A    between atoms: C1_2  and  C2_3 
REMARK    2  A    between atoms: C4_5  and  N1_6 
REMARK    3  A    between atoms: N1_6  and  C5_7 
REMARK    4  A    between atoms: C8_12  and  C9_13 
REMARK    5  A    between atoms: C9_13  and  O2_14 
REMARK    6  A    between atoms: O2_14  and  C10_15 
REMARK    7  A    between atoms: C10_15  and  C11_16 
REMARK    8  A    between atoms: C11_16  and  O3_17 
ROOT
HETATM    1  C5  UNL     1      27.297   1.201  52.729  1.00  0.00     0.139 A 
HETATM    2  N2  UNL     1      28.365   2.000  52.924  1.00  0.00    -0.224 NA
HETATM    3  C6  UNL     1      29.103   1.933  54.056  1.00  0.00     0.234 A 
HETATM    4  N3  UNL     1      28.746   1.040  54.994  1.00  0.00    -0.253 NA
HETATM    5  C7  UNL     1      27.702   0.221  54.864  1.00  0.00     0.131 A 
HETATM    6  C8  UNL     1      26.916   0.266  53.703  1.00  0.00     0.029 A 
ENDROOT
BRANCH   1   7
HETATM    7  N1  UNL     1      26.429   1.152  51.608  1.00  0.00    -0.340 N 
HETATM    8  H3  UNL     1      26.150   0.292  51.092  1.00  0.00     0.167 HD
BRANCH   7   9
HETATM    9  C4  UNL     1      25.893   2.411  51.152  1.00  0.00     0.034 A 
HETATM   10  C3  UNL     1      26.607   3.179  50.224  1.00  0.00     0.045 A 
HETATM   11  C2  UNL     1      26.025   4.370  49.844  1.00  0.00     0.025 A 
HETATM   12  C14 UNL     1      24.823   4.868  50.285  1.00  0.00     0.047 A 
HETATM   13  C13 UNL     1      24.142   4.093  51.197  1.00  0.00     0.027 A 
HETATM   14 CL1  UNL     1      24.174   6.401  49.732  1.00  0.00    -0.083 Cl
HETATM   15  C12 UNL     1      24.684   2.893  51.608  1.00  0.00     0.031 A 
BRANCH  11  16
HETATM   16  C1  UNL     1      26.749   5.187  48.877  1.00  0.00     0.271 C 
HETATM   17  O1  UNL     1      27.881   5.233  48.334  1.00  0.00    -0.301 OA
ENDBRANCH  11  16
ENDBRANCH   7   9
ENDBRANCH   1   7
BRANCH   6  18
HETATM   18  C9  UNL     1      25.757  -0.657  53.569  1.00  0.00     0.211 C 
BRANCH  18  19
HETATM   19  O2  UNL     1      24.571  -0.090  54.026  1.00  0.00    -0.384 OA
BRANCH  19  20
HETATM   20  C10 UNL     1      23.491  -0.871  53.679  1.00  0.00     0.194 C 
BRANCH  20  21
HETATM   21  C11 UNL     1      22.531  -1.066  54.839  1.00  0.00     0.190 C 
BRANCH  21  22
HETATM   22  O3  UNL     1      23.050  -1.822  55.865  1.00  0.00    -0.399 OA
HETATM   23  H12 UNL     1      22.562  -2.665  56.040  1.00  0.00     0.209 HD
ENDBRANCH  21  22
ENDBRANCH  20  21
ENDBRANCH  19  20
ENDBRANCH  18  19
ENDBRANCH   6  18
TORSDOF 8
ENDMDL
MODEL 4
REMARK VINA RESULT:      -6.5      3.303      5.576
REMARK  8 active torsions:
REMARK  status: ('A' for Active; 'I' for Inactive)
REMARK    1  A    between atoms: C1_2  and  C2_3 
REMARK    2  A    between atoms: C4_5  and  N1_6 
REMARK    3  A    between atoms: N1_6  and  C5_7 
REMARK    4  A    between atoms: C8_12  and  C9_13 
REMARK    5  A    between atoms: C9_13  and  O2_14 
REMARK    6  A    between atoms: O2_14  and  C10_15 
REMARK    7  A    between atoms: C10_15  and  C11_16 
REMARK    8  A    between atoms: C11_16  and  O3_17 
ROOT
HETATM    1  C5  UNL     1      27.261   1.200  52.733  1.00  0.00     0.139 A 
HETATM    2  N2  UNL     1      28.335   1.994  52.911  1.00  0.00    -0.224 NA
HETATM    3  C6  UNL     1      29.096   1.918  54.027  1.00  0.00     0.234 A 
HETATM    4  N3  UNL     1      28.755   1.021  54.966  1.00  0.00    -0.253 NA
HETATM    5  C7  UNL     1      27.706   0.206  54.853  1.00  0.00     0.131 A 
HETATM    6  C8  UNL     1      26.897   0.260  53.709  1.00  0.00     0.029 A 
ENDROOT
BRANCH   1   7
HETATM    7  N1  UNL     1      26.370   1.161  51.630  1.00  0.00    -0.340 N 
HETATM    8  H3  UNL     1      26.092   0.307  51.103  1.00  0.00     0.167 HD
BRANCH   7   9
HETATM    9  C4  UNL     1      25.805   2.420  51.211  1.00  0.00     0.034 A 
HETATM   10  C3  UNL     1      24.725   2.969  51.913  1.00  0.00     0.045 A 
HETATM   11  C2  UNL     1      24.243   4.173  51.444  1.00  0.00     0.025 A 
HETATM   12  C14 UNL     1      24.719   4.877  50.365  1.00  0.00     0.047 A 
HETATM   13  C13 UNL     1      25.782   4.315  49.692  1.00  0.00     0.027 A 
HETATM   14 CL1  UNL     1      24.029   6.407  49.854  1.00  0.00    -0.083 Cl
HETATM   15  C12 UNL     1      26.298   3.111  50.124  1.00  0.00     0.031 A 
BRANCH  11  16
HETATM   16  C1  UNL     1      23.119   4.765  52.159  1.00  0.00     0.271 C 
HETATM   17  O1  UNL     1      21.868   4.833  52.069  1.00  0.00    -0.301 OA
ENDBRANCH  11  16
ENDBRANCH   7   9
ENDBRANCH   1   7
BRANCH   6  18
HETATM   18  C9  UNL     1      25.732  -0.658  53.593  1.00  0.00     0.211 C 
BRANCH  18  19
HETATM   19  O2  UNL     1      24.538  -0.052  53.973  1.00  0.00    -0.384 OA
BRANCH  19  20
HETATM   20  C10 UNL     1      23.461  -0.844  53.642  1.00  0.00     0.194 C 
BRANCH  20  21
HETATM   21  C11 UNL     1      22.547  -1.090  54.829  1.00  0.00     0.190 C 
BRANCH  21  22
HETATM   22  O3  UNL     1      23.155  -1.762  55.865  1.00  0.00    -0.399 OA
HETATM   23  H12 UNL     1      23.775  -1.210  56.403  1.00  0.00     0.209 HD
ENDBRANCH  21  22
ENDBRANCH  20  21
ENDBRANCH  19  20
ENDBRANCH  18  19
ENDBRANCH   6  18
TORSDOF 8
ENDMDL
MODEL 5
REMARK VINA RESULT:      -6.4      3.824      6.242
REMARK  8 active torsions:
REMARK  status: ('A' for Active; 'I' for Inactive)
REMARK    1  A    between atoms: C1_2  and  C2_3 
REMARK    2  A    between atoms: C4_5  and  N1_6 
REMARK    3  A    between atoms: N1_6  and  C5_7 
REMARK    4  A    between atoms: C8_12  and  C9_13 
REMARK    5  A    between atoms: C9_13  and  O2_14 
REMARK    6  A    between atoms: O2_14  and  C10_15 
REMARK    7  A    between atoms: C10_15  and  C11_16 
REMARK    8  A    between atoms: C11_16  and  O3_17 
ROOT
HETATM    1  C5  UNL     1      27.233   1.554  52.673  1.00  0.00     0.139 A 
HETATM    2  N2  UNL     1      28.246   2.431  52.808  1.00  0.00    -0.224 NA
HETATM    3  C6  UNL     1      29.085   2.388  53.869  1.00  0.00     0.234 A 
HETATM    4  N3  UNL     1      28.885   1.438  54.797  1.00  0.00    -0.253 NA
HETATM    5  C7  UNL     1      27.903   0.540  54.724  1.00  0.00     0.131 A 
HETATM    6  C8  UNL     1      27.016   0.558  53.637  1.00  0.00     0.029 A 
ENDROOT
BRANCH   1   7
HETATM    7  N1  UNL     1      26.275   1.471  51.630  1.00  0.00    -0.340 N 
HETATM    8  H3  UNL     1      25.810   0.600  51.299  1.00  0.00     0.167 HD
BRANCH   7   9
HETATM    9  C4  UNL     1      25.924   2.707  50.977  1.00  0.00     0.034 A 
HETATM   10  C3  UNL     1      24.855   3.473  51.460  1.00  0.00     0.045 A 
HETATM   11  C2  UNL     1      24.583   4.639  50.775  1.00  0.00     0.025 A 
HETATM   12  C14 UNL     1      25.255   5.115  49.676  1.00  0.00     0.047 A 
HETATM   13  C13 UNL     1      26.301   4.343  49.221  1.00  0.00     0.027 A 
HETATM   14 CL1  UNL     1      24.823   6.617  48.880  1.00  0.00    -0.083 Cl
HETATM   15  C12 UNL     1      26.611   3.167  49.873  1.00  0.00     0.031 A 
BRANCH  11  16
HETATM   16  C1  UNL     1      23.476   5.454  51.261  1.00  0.00     0.271 C 
HETATM   17  O1  UNL     1      22.241   5.351  51.464  1.00  0.00    -0.301 OA
ENDBRANCH  11  16
ENDBRANCH   7   9
ENDBRANCH   1   7
BRANCH   6  18
HETATM   18  C9  UNL     1      25.926  -0.453  53.565  1.00  0.00     0.211 C 
BRANCH  18  19
HETATM   19  O2  UNL     1      26.406  -1.757  53.644  1.00  0.00    -0.384 OA
BRANCH  19  20
HETATM   20  C10 UNL     1      27.048  -2.112  52.479  1.00  0.00     0.194 C 
BRANCH  20  21
HETATM   21  C11 UNL     1      28.495  -2.505  52.721  1.00  0.00     0.190 C 
BRANCH  21  22
HETATM   22  O3  UNL     1      28.638  -3.646  53.477  1.00  0.00    -0.399 OA
HETATM   23  H12 UNL     1      29.478  -4.144  53.313  1.00  0.00     0.209 HD
ENDBRANCH  21  22
ENDBRANCH  20  21
ENDBRANCH  19  20
ENDBRANCH  18  19
ENDBRANCH   6  18
TORSDOF 8
ENDMDL
MODEL 6
REMARK VINA RESULT:      -6.4      1.980      2.584
REMARK  8 active torsions:
REMARK  status: ('A' for Active; 'I' for Inactive)
REMARK    1  A    between atoms: C1_2  and  C2_3 
REMARK    2  A    between atoms: C4_5  and  N1_6 
REMARK    3  A    between atoms: N1_6  and  C5_7 
REMARK    4  A    between atoms: C8_12  and  C9_13 
REMARK    5  A    between atoms: C9_13  and  O2_14 
REMARK    6  A    between atoms: O2_14  and  C10_15 
REMARK    7  A    between atoms: C10_15  and  C11_16 
REMARK    8  A    between atoms: C11_16  and  O3_17 
ROOT
HETATM    1  C5  UNL     1      25.022   2.954  51.616  1.00  0.00     0.139 A 
HETATM    2  N2  UNL     1      25.749   3.548  50.650  1.00  0.00    -0.224 NA
HETATM    3  C6  UNL     1      25.238   3.780  49.419  1.00  0.00     0.234 A 
HETATM    4  N3  UNL     1      23.972   3.401  49.176  1.00  0.00    -0.253 NA
HETATM    5  C7  UNL     1      23.199   2.809  50.086  1.00  0.00     0.131 A 
HETATM    6  C8  UNL     1      23.699   2.554  51.372  1.00  0.00     0.029 A 
ENDROOT
BRANCH   1   7
HETATM    7  N1  UNL     1      25.412   2.642  52.944  1.00  0.00    -0.340 N 
HETATM    8  H3  UNL     1      24.983   3.028  53.810  1.00  0.00     0.167 HD
BRANCH   7   9
HETATM    9  C4  UNL     1      26.500   1.708  53.094  1.00  0.00     0.034 A 
HETATM   10  C3  UNL     1      26.278   0.340  52.896  1.00  0.00     0.045 A 
HETATM   11  C2  UNL     1      27.371  -0.485  53.065  1.00  0.00     0.025 A 
HETATM   12  C14 UNL     1      28.643  -0.094  53.403  1.00  0.00     0.047 A 
HETATM   13  C13 UNL     1      28.834   1.257  53.592  1.00  0.00     0.027 A 
HETATM   14 CL1  UNL     1      29.965  -1.232  53.590  1.00  0.00    -0.083 Cl
HETATM   15  C12 UNL     1      27.771   2.122  53.436  1.00  0.00     0.031 A 
BRANCH  11  16
HETATM   16  C1  UNL     1      27.165  -1.915  52.862  1.00  0.00     0.271 C 
HETATM   17  O1  UNL     1      26.844  -2.705  51.940  1.00  0.00    -0.301 OA
ENDBRANCH  11  16
ENDBRANCH   7   9
ENDBRANCH   1   7
BRANCH   6  18
HETATM   18  C9  UNL     1      22.824   1.896  52.380  1.00  0.00     0.211 C 
BRANCH  18  19
HETATM   19  O2  UNL     1      22.962   0.512  52.380  1.00  0.00    -0.384 OA
BRANCH  19  20
HETATM   20  C10 UNL     1      22.448  -0.030  53.538  1.00  0.00     0.194 C 
BRANCH  20  21
HETATM   21  C11 UNL     1      20.989   0.337  53.741  1.00  0.00     0.190 C 
BRANCH  21  22
HETATM   22  O3  UNL     1      20.589   0.303  55.057  1.00  0.00    -0.399 OA
HETATM   23  H12 UNL     1      19.712  -0.131  55.208  1.00  0.00     0.209 HD
ENDBRANCH  21  22
ENDBRANCH  20  21
ENDBRANCH  19  20
ENDBRANCH  18  19
ENDBRANCH   6  18
TORSDOF 8
ENDMDL
MODEL 7
REMARK VINA RESULT:      -6.2      3.674      6.443
REMARK  8 active torsions:
REMARK  status: ('A' for Active; 'I' for Inactive)
REMARK    1  A    between atoms: C1_2  and  C2_3 
REMARK    2  A    between atoms: C4_5  and  N1_6 
REMARK    3  A    between atoms: N1_6  and  C5_7 
REMARK    4  A    between atoms: C8_12  and  C9_13 
REMARK    5  A    between atoms: C9_13  and  O2_14 
REMARK    6  A    between atoms: O2_14  and  C10_15 
REMARK    7  A    between atoms: C10_15  and  C11_16 
REMARK    8  A    between atoms: C11_16  and  O3_17 
ROOT
HETATM    1  C5  UNL     1      23.753  -0.072  53.477  1.00  0.00     0.139 A 
HETATM    2  N2  UNL     1      22.466  -0.365  53.745  1.00  0.00    -0.224 NA
HETATM    3  C6  UNL     1      22.113  -1.067  54.846  1.00  0.00     0.234 A 
HETATM    4  N3  UNL     1      23.086  -1.471  55.679  1.00  0.00    -0.253 NA
HETATM    5  C7  UNL     1      24.378  -1.215  55.472  1.00  0.00     0.131 A 
HETATM    6  C8  UNL     1      24.776  -0.489  54.340  1.00  0.00     0.029 A 
ENDROOT
BRANCH   1   7
HETATM    7  N1  UNL     1      24.278   0.648  52.373  1.00  0.00    -0.340 N 
HETATM    8  H3  UNL     1      25.039   0.322  51.742  1.00  0.00     0.167 HD
BRANCH   7   9
HETATM    9  C4  UNL     1      23.700   1.942  52.111  1.00  0.00     0.034 A 
HETATM   10  C3  UNL     1      22.821   2.110  51.034  1.00  0.00     0.045 A 
HETATM   11  C2  UNL     1      22.316   3.381  50.851  1.00  0.00     0.025 A 
HETATM   12  C14 UNL     1      22.591   4.485  51.620  1.00  0.00     0.047 A 
HETATM   13  C13 UNL     1      23.458   4.293  52.673  1.00  0.00     0.027 A 
HETATM   14 CL1  UNL     1      21.890   6.060  51.298  1.00  0.00    -0.083 Cl
HETATM   15  C12 UNL     1      23.990   3.039  52.895  1.00  0.00     0.031 A 
BRANCH  11  16
HETATM   16  C1  UNL     1      21.397   3.579  49.736  1.00  0.00     0.271 C 
HETATM   17  O1  UNL     1      21.428   3.953  48.538  1.00  0.00    -0.301 OA
ENDBRANCH  11  16
ENDBRANCH   7   9
ENDBRANCH   1   7
BRANCH   6  18
HETATM   18  C9  UNL     1      26.221  -0.205  54.124  1.00  0.00     0.211 C 
BRANCH  18  19
HETATM   19  O2  UNL     1      26.936  -1.342  53.759  1.00  0.00    -0.384 OA
BRANCH  19  20
HETATM   20  C10 UNL     1      28.278  -1.056  53.635  1.00  0.00     0.194 C 
BRANCH  20  21
HETATM   21  C11 UNL     1      29.054  -2.211  53.027  1.00  0.00     0.190 C 
BRANCH  21  22
HETATM   22  O3  UNL     1      28.616  -3.448  53.439  1.00  0.00    -0.399 OA
HETATM   23  H12 UNL     1      29.337  -4.067  53.716  1.00  0.00     0.209 HD
ENDBRANCH  21  22
ENDBRANCH  20  21
ENDBRANCH  19  20
ENDBRANCH  18  19
ENDBRANCH   6  18
TORSDOF 8
ENDMDL
MODEL 8
REMARK VINA RESULT:      -6.2      1.948      2.490
REMARK  8 active torsions:
REMARK  status: ('A' for Active; 'I' for Inactive)
REMARK    1  A    between atoms: C1_2  and  C2_3 
REMARK    2  A    between atoms: C4_5  and  N1_6 
REMARK    3  A    between atoms: N1_6  and  C5_7 
REMARK    4  A    between atoms: C8_12  and  C9_13 
REMARK    5  A    between atoms: C9_13  and  O2_14 
REMARK    6  A    between atoms: O2_14  and  C10_15 
REMARK    7  A    between atoms: C10_15  and  C11_16 
REMARK    8  A    between atoms: C11_16  and  O3_17 
ROOT
HETATM    1  C5  UNL     1      23.070   2.416  51.662  1.00  0.00     0.139 A 
HETATM    2  N2  UNL     1      23.320   3.716  51.911  1.00  0.00    -0.224 NA
HETATM    3  C6  UNL     1      22.338   4.570  52.281  1.00  0.00     0.234 A 
HETATM    4  N3  UNL     1      21.090   4.087  52.397  1.00  0.00    -0.253 NA
HETATM    5  C7  UNL     1      20.774   2.812  52.166  1.00  0.00     0.131 A 
HETATM    6  C8  UNL     1      21.770   1.902  51.782  1.00  0.00     0.029 A 
ENDROOT
BRANCH   1   7
HETATM    7  N1  UNL     1      23.984   1.405  51.267  1.00  0.00    -0.340 N 
HETATM    8  H3  UNL     1      23.905   0.815  50.413  1.00  0.00     0.167 HD
BRANCH   7   9
HETATM    9  C4  UNL     1      25.117   1.186  52.131  1.00  0.00     0.034 A 
HETATM   10  C3  UNL     1      24.949   0.503  53.343  1.00  0.00     0.045 A 
HETATM   11  C2  UNL     1      26.083   0.339  54.111  1.00  0.00     0.025 A 
HETATM   12  C14 UNL     1      27.347   0.777  53.803  1.00  0.00     0.047 A 
HETATM   13  C13 UNL     1      27.485   1.446  52.606  1.00  0.00     0.027 A 
HETATM   14 CL1  UNL     1      28.724   0.513  54.857  1.00  0.00    -0.083 Cl
HETATM   15  C12 UNL     1      26.379   1.635  51.803  1.00  0.00     0.031 A 
BRANCH  11  16
HETATM   16  C1  UNL     1      25.933  -0.370  55.377  1.00  0.00     0.271 C 
HETATM   17  O1  UNL     1      25.157  -1.199  55.912  1.00  0.00    -0.301 OA
ENDBRANCH  11  16
ENDBRANCH   7   9
ENDBRANCH   1   7
BRANCH   6  18
HETATM   18  C9  UNL     1      21.406   0.482  51.531  1.00  0.00     0.211 C 
BRANCH  18  19
HETATM   19  O2  UNL     1      21.935  -0.379  52.488  1.00  0.00    -0.384 OA
BRANCH  19  20
HETATM   20  C10 UNL     1      21.016  -0.626  53.484  1.00  0.00     0.194 C 
BRANCH  20  21
HETATM   21  C11 UNL     1      21.633  -0.525  54.868  1.00  0.00     0.190 C 
BRANCH  21  22
HETATM   22  O3  UNL     1      22.289  -1.668  55.265  1.00  0.00    -0.399 OA
HETATM   23  H12 UNL     1      21.828  -2.510  55.025  1.00  0.00     0.209 HD
ENDBRANCH  21  22
ENDBRANCH  20  21
ENDBRANCH  19  20
ENDBRANCH  18  19
ENDBRANCH   6  18
TORSDOF 8
ENDMDL
MODEL 9
REMARK VINA RESULT:      -6.0      1.721      2.284
REMARK  8 active torsions:
REMARK  status: ('A' for Active; 'I' for Inactive)
REMARK    1  A    between atoms: C1_2  and  C2_3 
REMARK    2  A    between atoms: C4_5  and  N1_6 
REMARK    3  A    between atoms: N1_6  and  C5_7 
REMARK    4  A    between atoms: C8_12  and  C9_13 
REMARK    5  A    between atoms: C9_13  and  O2_14 
REMARK    6  A    between atoms: O2_14  and  C10_15 
REMARK    7  A    between atoms: C10_15  and  C11_16 
REMARK    8  A    between atoms: C11_16  and  O3_17 
ROOT
HETATM    1  C5  UNL     1      25.110   2.926  51.369  1.00  0.00     0.139 A 
HETATM    2  N2  UNL     1      26.206   3.141  50.616  1.00  0.00    -0.224 NA
HETATM    3  C6  UNL     1      26.211   4.051  49.615  1.00  0.00     0.234 A 
HETATM    4  N3  UNL     1      25.084   4.745  49.384  1.00  0.00    -0.253 NA
HETATM    5  C7  UNL     1      23.966   4.581  50.091  1.00  0.00     0.131 A 
HETATM    6  C8  UNL     1      23.929   3.646  51.136  1.00  0.00     0.029 A 
ENDROOT
BRANCH   1   7
HETATM    7  N1  UNL     1      24.947   2.014  52.444  1.00  0.00    -0.340 N 
HETATM    8  H3  UNL     1      24.090   1.905  53.024  1.00  0.00     0.167 HD
BRANCH   7   9
HETATM    9  C4  UNL     1      26.075   1.169  52.750  1.00  0.00     0.034 A 
HETATM   10  C3  UNL     1      27.121   1.660  53.540  1.00  0.00     0.045 A 
HETATM   11  C2  UNL     1      28.163   0.788  53.781  1.00  0.00     0.025 A 
HETATM   12  C14 UNL     1      28.269  -0.503  53.324  1.00  0.00     0.047 A 
HETATM   13  C13 UNL     1      27.226  -0.960  52.549  1.00  0.00     0.027 A 
HETATM   14 CL1  UNL     1      29.643  -1.528  53.694  1.00  0.00    -0.083 Cl
HETATM   15  C12 UNL     1      26.162  -0.125  52.280  1.00  0.00     0.031 A 
BRANCH  11  16
HETATM   16  C1  UNL     1      29.264   1.277  54.603  1.00  0.00     0.271 C 
HETATM   17  O1  UNL     1      29.725   2.369  55.019  1.00  0.00    -0.301 OA
ENDBRANCH  11  16
ENDBRANCH   7   9
ENDBRANCH   1   7
BRANCH   6  18
HETATM   18  C9  UNL     1      22.676   3.476  51.920  1.00  0.00     0.211 C 
BRANCH  18  19
HETATM   19  O2  UNL     1      21.991   2.312  51.581  1.00  0.00    -0.384 OA
BRANCH  19  20
HETATM   20  C10 UNL     1      21.169   1.912  52.611  1.00  0.00     0.194 C 
BRANCH  20  21
HETATM   21  C11 UNL     1      21.390   0.457  52.986  1.00  0.00     0.190 C 
BRANCH  21  22
HETATM   22  O3  UNL     1      22.677   0.021  52.773  1.00  0.00    -0.399 OA
HETATM   23  H12 UNL     1      23.172   0.526  52.080  1.00  0.00     0.209 HD
ENDBRANCH  21  22
ENDBRANCH  20  21
ENDBRANCH  19  20
ENDBRANCH  18  19
ENDBRANCH   6  18
TORSDOF 8
ENDMDL
