MODEL 1
REMARK VINA RESULT:      -7.7      0.000      0.000
REMARK  6 active torsions:
REMARK  status: ('A' for Active; 'I' for Inactive)
REMARK    1  A    between atoms: N1_1  and  C1_2 
REMARK    2  A    between atoms: C1_2  and  N2_3 
REMARK    3  A    between atoms: C4_7  and  N4_8 
REMARK    4  A    between atoms: C9_14  and  N5_15 
REMARK    5  A    between atoms: C11_17  and  N6_18 
REMARK    6  A    between atoms: C15_22  and  N7_23 
ROOT
HETATM    1  N2  UNL     1      22.333   1.933  49.219  1.00  0.00    -0.239 NA
HETATM    2  C2  UNL     1      22.845   1.973  50.402  1.00  0.00     0.172 A 
HETATM    3  N3  UNL     1      22.473   1.002  51.396  1.00  0.00    -0.241 NA
HETATM    4  C3  UNL     1      23.030   1.108  52.557  1.00  0.00     0.132 A 
HETATM    5  C4  UNL     1      24.003   2.118  52.967  1.00  0.00     0.291 A 
HETATM    6  C10 UNL     1      24.346   3.081  51.918  1.00  0.00     0.047 A 
HETATM    7  C11 UNL     1      23.817   3.048  50.683  1.00  0.00     0.077 A 
ENDROOT
BRANCH   7   8
HETATM    8  N6  UNL     1      24.136   3.974  49.647  1.00  0.00    -0.373 N 
HETATM    9  C12 UNL     1      23.037   4.839  49.262  1.00  0.00     0.150 C 
HETATM   10  C13 UNL     1      22.806   5.958  50.215  1.00  0.00    -0.005 C 
HETATM   11  C14 UNL     1      23.513   6.999  50.692  1.00  0.00     0.034 C 
HETATM   12  C15 UNL     1      24.909   7.340  50.332  1.00  0.00     0.063 C 
HETATM   13  S1  UNL     1      26.177   6.603  49.561  1.00  0.00    -0.105 SA
HETATM   14  C16 UNL     1      26.232   5.057  48.967  1.00  0.00     0.087 C 
HETATM   15  C17 UNL     1      25.520   3.761  49.273  1.00  0.00     0.140 C 
BRANCH  12  16
HETATM   16  N7  UNL     1      25.233   8.674  50.779  1.00  0.00    -0.394 N 
HETATM   17  H20 UNL     1      24.343   8.780  51.309  1.00  0.00     0.156 HD
HETATM   18  H21 UNL     1      26.067   9.304  50.621  1.00  0.00     0.156 HD
ENDBRANCH  12  16
ENDBRANCH   7   8
BRANCH   1  19
HETATM   19  C1  UNL     1      21.369   0.894  48.888  1.00  0.00     0.417 C 
BRANCH  19  20
HETATM   20  N1  UNL     1      20.047   1.403  49.188  1.00  0.00     0.097 N 
HETATM   21  H1  UNL     1      19.278   0.862  48.751  1.00  0.00     0.315 HD
HETATM   22  H2  UNL     1      20.005   2.422  49.100  1.00  0.00     0.315 HD
ENDBRANCH  19  20
ENDBRANCH   1  19
BRANCH   5  23
HETATM   23  N4  UNL     1      25.193   1.602  53.600  1.00  0.00     0.138 N 
HETATM   24  C5  UNL     1      25.097   0.153  53.660  1.00  0.00     0.305 C 
HETATM   25  C6  UNL     1      26.388  -0.522  53.896  1.00  0.00     0.022 C 
HETATM   26  C7  UNL     1      27.462  -0.162  53.186  1.00  0.00     0.013 C 
HETATM   27 CL1  UNL     1      29.011  -0.953  53.451  1.00  0.00    -0.089 Cl
HETATM   28  C8  UNL     1      27.133   0.929  52.222  1.00  0.00     0.119 C 
HETATM   29  C9  UNL     1      26.421   2.031  52.972  1.00  0.00     0.458 C 
BRANCH  29  30
HETATM   30  N5  UNL     1      27.325   2.597  53.939  1.00  0.00     0.112 N 
HETATM   31  H13 UNL     1      27.853   1.861  54.458  1.00  0.00     0.315 HD
HETATM   32  H14 UNL     1      28.011   3.193  53.420  1.00  0.00     0.315 HD
ENDBRANCH  29  30
ENDBRANCH   5  23
TORSDOF 6
ENDMDL
MODEL 2
REMARK VINA RESULT:      -7.3      2.474      4.509
REMARK  6 active torsions:
REMARK  status: ('A' for Active; 'I' for Inactive)
REMARK    1  A    between atoms: N1_1  and  C1_2 
REMARK    2  A    between atoms: C1_2  and  N2_3 
REMARK    3  A    between atoms: C4_7  and  N4_8 
REMARK    4  A    between atoms: C9_14  and  N5_15 
REMARK    5  A    between atoms: C11_17  and  N6_18 
REMARK    6  A    between atoms: C15_22  and  N7_23 
ROOT
HETATM    1  N2  UNL     1      26.806   6.144  48.584  1.00  0.00    -0.239 NA
HETATM    2  C2  UNL     1      26.309   5.105  49.162  1.00  0.00     0.172 A 
HETATM    3  N3  UNL     1      27.125   3.951  49.428  1.00  0.00    -0.241 NA
HETATM    4  C3  UNL     1      26.554   2.949  50.011  1.00  0.00     0.132 A 
HETATM    5  C4  UNL     1      25.156   2.867  50.430  1.00  0.00     0.291 A 
HETATM    6  C10 UNL     1      24.370   4.067  50.135  1.00  0.00     0.047 A 
HETATM    7  C11 UNL     1      24.880   5.155  49.533  1.00  0.00     0.077 A 
ENDROOT
BRANCH   7   8
HETATM    8  N6  UNL     1      24.135   6.334  49.237  1.00  0.00    -0.373 N 
HETATM    9  C12 UNL     1      23.568   6.362  47.902  1.00  0.00     0.150 C 
HETATM   10  C13 UNL     1      22.343   5.530  47.764  1.00  0.00    -0.005 C 
HETATM   11  C14 UNL     1      21.120   5.488  48.326  1.00  0.00     0.034 C 
HETATM   12  C15 UNL     1      20.617   6.397  49.382  1.00  0.00     0.063 C 
HETATM   13  S1  UNL     1      21.257   7.507  50.433  1.00  0.00    -0.105 SA
HETATM   14  C16 UNL     1      22.856   7.893  50.639  1.00  0.00     0.087 C 
HETATM   15  C17 UNL     1      24.170   7.187  50.409  1.00  0.00     0.140 C 
BRANCH  12  16
HETATM   16  N7  UNL     1      19.186   6.269  49.517  1.00  0.00    -0.394 N 
HETATM   17  H20 UNL     1      19.258   5.510  50.226  1.00  0.00     0.156 HD
HETATM   18  H21 UNL     1      18.372   6.766  49.061  1.00  0.00     0.156 HD
ENDBRANCH  12  16
ENDBRANCH   7   8
BRANCH   1  19
HETATM   19  C1  UNL     1      28.209   6.149  48.197  1.00  0.00     0.417 C 
BRANCH  19  20
HETATM   20  N1  UNL     1      28.886   7.152  48.992  1.00  0.00     0.097 N 
HETATM   21  H1  UNL     1      28.248   7.740  49.558  1.00  0.00     0.315 HD
HETATM   22  H2  UNL     1      29.608   7.638  48.452  1.00  0.00     0.315 HD
ENDBRANCH  19  20
ENDBRANCH   1  19
BRANCH   5  23
HETATM   23  N4  UNL     1      24.948   2.437  51.792  1.00  0.00     0.138 N 
HETATM   24  C5  UNL     1      23.867   1.467  51.814  1.00  0.00     0.305 C 
HETATM   25  C6  UNL     1      23.821   0.652  53.043  1.00  0.00     0.022 C 
HETATM   26  C7  UNL     1      24.945   0.097  53.512  1.00  0.00     0.013 C 
HETATM   27 CL1  UNL     1      24.913  -0.878  54.975  1.00  0.00    -0.089 Cl
HETATM   28  C8  UNL     1      26.114   0.430  52.646  1.00  0.00     0.119 C 
HETATM   29  C9  UNL     1      26.139   1.925  52.430  1.00  0.00     0.458 C 
BRANCH  29  30
HETATM   30  N5  UNL     1      26.366   2.575  53.695  1.00  0.00     0.112 N 
HETATM   31  H13 UNL     1      27.196   3.207  53.667  1.00  0.00     0.315 HD
HETATM   32  H14 UNL     1      25.519   3.151  53.912  1.00  0.00     0.315 HD
ENDBRANCH  29  30
ENDBRANCH   5  23
TORSDOF 6
ENDMDL
MODEL 3
REMARK VINA RESULT:      -7.2      1.803      2.278
REMARK  6 active torsions:
REMARK  status: ('A' for Active; 'I' for Inactive)
REMARK    1  A    between atoms: N1_1  and  C1_2 
REMARK    2  A    between atoms: C1_2  and  N2_3 
REMARK    3  A    between atoms: C4_7  and  N4_8 
REMARK    4  A    between atoms: C9_14  and  N5_15 
REMARK    5  A    between atoms: C11_17  and  N6_18 
REMARK    6  A    between atoms: C15_22  and  N7_23 
ROOT
HETATM    1  N2  UNL     1      20.574   1.236  50.969  1.00  0.00    -0.239 NA
HETATM    2  C2  UNL     1      21.672   1.075  51.626  1.00  0.00     0.172 A 
HETATM    3  N3  UNL     1      21.882  -0.100  52.429  1.00  0.00    -0.241 NA
HETATM    4  C3  UNL     1      23.008  -0.188  53.056  1.00  0.00     0.132 A 
HETATM    5  C4  UNL     1      24.097   0.786  53.034  1.00  0.00     0.291 A 
HETATM    6  C10 UNL     1      23.831   1.963  52.202  1.00  0.00     0.047 A 
HETATM    7  C11 UNL     1      22.689   2.139  51.515  1.00  0.00     0.077 A 
ENDROOT
BRANCH   7   8
HETATM    8  N6  UNL     1      22.410   3.275  50.699  1.00  0.00    -0.373 N 
HETATM    9  C12 UNL     1      21.722   4.350  51.390  1.00  0.00     0.150 C 
HETATM   10  C13 UNL     1      22.618   5.166  52.251  1.00  0.00    -0.005 C 
HETATM   11  C14 UNL     1      23.716   5.925  52.079  1.00  0.00     0.034 C 
HETATM   12  C15 UNL     1      24.409   6.172  50.793  1.00  0.00     0.063 C 
HETATM   13  S1  UNL     1      24.396   5.530  49.266  1.00  0.00    -0.105 SA
HETATM   14  C16 UNL     1      23.523   4.227  48.729  1.00  0.00     0.087 C 
HETATM   15  C17 UNL     1      22.918   3.001  49.369  1.00  0.00     0.140 C 
BRANCH  12  16
HETATM   16  N7  UNL     1      25.341   7.267  50.925  1.00  0.00    -0.394 N 
HETATM   17  H20 UNL     1      25.519   7.077  51.933  1.00  0.00     0.156 HD
HETATM   18  H21 UNL     1      25.704   7.990  50.244  1.00  0.00     0.156 HD
ENDBRANCH  12  16
ENDBRANCH   7   8
BRANCH   1  19
HETATM   19  C1  UNL     1      19.537   0.218  51.043  1.00  0.00     0.417 C 
BRANCH  19  20
HETATM   20  N1  UNL     1      18.932   0.294  52.356  1.00  0.00     0.097 N 
HETATM   21  H1  UNL     1      18.949  -0.600  52.880  1.00  0.00     0.315 HD
HETATM   22  H2  UNL     1      18.043   0.801  52.334  1.00  0.00     0.315 HD
ENDBRANCH  19  20
ENDBRANCH   1  19
BRANCH   5  23
HETATM   23  N4  UNL     1      25.403   0.242  52.752  1.00  0.00     0.138 N 
HETATM   24  C5  UNL     1      26.284   1.327  52.356  1.00  0.00     0.305 C 
HETATM   25  C6  UNL     1      27.719   0.992  52.438  1.00  0.00     0.022 C 
HETATM   26  C7  UNL     1      28.196   0.389  53.532  1.00  0.00     0.013 C 
HETATM   27 CL1  UNL     1      29.903  -0.019  53.651  1.00  0.00    -0.089 Cl
HETATM   28  C8  UNL     1      27.116   0.153  54.534  1.00  0.00     0.119 C 
HETATM   29  C9  UNL     1      25.960  -0.530  53.839  1.00  0.00     0.458 C 
BRANCH  29  30
HETATM   30  N5  UNL     1      26.390  -1.827  53.384  1.00  0.00     0.112 N 
HETATM   31  H13 UNL     1      27.123  -1.759  52.644  1.00  0.00     0.315 HD
HETATM   32  H14 UNL     1      26.795  -2.333  54.206  1.00  0.00     0.315 HD
ENDBRANCH  29  30
ENDBRANCH   5  23
TORSDOF 6
ENDMDL
MODEL 4
REMARK VINA RESULT:      -7.2      2.831      4.067
REMARK  6 active torsions:
REMARK  status: ('A' for Active; 'I' for Inactive)
REMARK    1  A    between atoms: N1_1  and  C1_2 
REMARK    2  A    between atoms: C1_2  and  N2_3 
REMARK    3  A    between atoms: C4_7  and  N4_8 
REMARK    4  A    between atoms: C9_14  and  N5_15 
REMARK    5  A    between atoms: C11_17  and  N6_18 
REMARK    6  A    between atoms: C15_22  and  N7_23 
ROOT
HETATM    1  N2  UNL     1      20.615   0.948  51.587  1.00  0.00    -0.239 NA
HETATM    2  C2  UNL     1      21.778   0.854  52.138  1.00  0.00     0.172 A 
HETATM    3  N3  UNL     1      22.141  -0.315  52.892  1.00  0.00    -0.241 NA
HETATM    4  C3  UNL     1      23.323  -0.334  53.413  1.00  0.00     0.132 A 
HETATM    5  C4  UNL     1      24.335   0.716  53.315  1.00  0.00     0.291 A 
HETATM    6  C10 UNL     1      23.914   1.884  52.536  1.00  0.00     0.047 A 
HETATM    7  C11 UNL     1      22.705   1.990  51.959  1.00  0.00     0.077 A 
ENDROOT
BRANCH   7   8
HETATM    8  N6  UNL     1      22.273   3.115  51.197  1.00  0.00    -0.373 N 
HETATM    9  C12 UNL     1      22.953   3.268  49.924  1.00  0.00     0.150 C 
HETATM   10  C13 UNL     1      22.452   2.342  48.874  1.00  0.00    -0.005 C 
HETATM   11  C14 UNL     1      21.277   2.097  48.264  1.00  0.00     0.034 C 
HETATM   12  C15 UNL     1      19.998   2.795  48.529  1.00  0.00     0.063 C 
HETATM   13  S1  UNL     1      19.387   3.809  49.689  1.00  0.00    -0.105 SA
HETATM   14  C16 UNL     1      20.141   4.325  51.072  1.00  0.00     0.087 C 
HETATM   15  C17 UNL     1      21.244   3.797  51.957  1.00  0.00     0.140 C 
BRANCH  12  16
HETATM   16  N7  UNL     1      19.039   2.502  47.490  1.00  0.00    -0.394 N 
HETATM   17  H20 UNL     1      19.175   3.421  47.019  1.00  0.00     0.156 HD
HETATM   18  H21 UNL     1      18.429   1.663  47.289  1.00  0.00     0.156 HD
ENDBRANCH  12  16
ENDBRANCH   7   8
BRANCH   1  19
HETATM   19  C1  UNL     1      19.662  -0.143  51.731  1.00  0.00     0.417 C 
BRANCH  19  20
HETATM   20  N1  UNL     1      19.248  -0.190  53.118  1.00  0.00     0.097 N 
HETATM   21  H1  UNL     1      20.035  -0.249  53.790  1.00  0.00     0.315 HD
HETATM   22  H2  UNL     1      18.470  -0.839  53.258  1.00  0.00     0.315 HD
ENDBRANCH  19  20
ENDBRANCH   1  19
BRANCH   5  23
HETATM   23  N4  UNL     1      25.644   0.269  52.904  1.00  0.00     0.138 N 
HETATM   24  C5  UNL     1      26.497   1.432  52.722  1.00  0.00     0.305 C 
HETATM   25  C6  UNL     1      27.939   1.119  52.708  1.00  0.00     0.022 C 
HETATM   26  C7  UNL     1      28.451   0.318  53.647  1.00  0.00     0.013 C 
HETATM   27 CL1  UNL     1      30.168  -0.068  53.650  1.00  0.00    -0.089 Cl
HETATM   28  C8  UNL     1      27.398  -0.143  54.599  1.00  0.00     0.119 C 
HETATM   29  C9  UNL     1      26.240  -0.694  53.801  1.00  0.00     0.458 C 
BRANCH  29  30
HETATM   30  N5  UNL     1      26.683  -1.861  53.083  1.00  0.00     0.112 N 
HETATM   31  H13 UNL     1      26.784  -2.691  53.708  1.00  0.00     0.315 HD
HETATM   32  H14 UNL     1      25.960  -2.080  52.357  1.00  0.00     0.315 HD
ENDBRANCH  29  30
ENDBRANCH   5  23
TORSDOF 6
ENDMDL
MODEL 5
REMARK VINA RESULT:      -7.2      2.334      4.711
REMARK  6 active torsions:
REMARK  status: ('A' for Active; 'I' for Inactive)
REMARK    1  A    between atoms: N1_1  and  C1_2 
REMARK    2  A    between atoms: C1_2  and  N2_3 
REMARK    3  A    between atoms: C4_7  and  N4_8 
REMARK    4  A    between atoms: C9_14  and  N5_15 
REMARK    5  A    between atoms: C11_17  and  N6_18 
REMARK    6  A    between atoms: C15_22  and  N7_23 
ROOT
HETATM    1  N2  UNL     1      25.402   5.710  48.823  1.00  0.00    -0.239 NA
HETATM    2  C2  UNL     1      25.328   4.608  49.489  1.00  0.00     0.172 A 
HETATM    3  N3  UNL     1      26.514   3.987  50.017  1.00  0.00    -0.241 NA
HETATM    4  C3  UNL     1      26.356   2.885  50.672  1.00  0.00     0.132 A 
HETATM    5  C4  UNL     1      25.093   2.200  50.935  1.00  0.00     0.291 A 
HETATM    6  C10 UNL     1      23.918   2.874  50.376  1.00  0.00     0.047 A 
HETATM    7  C11 UNL     1      23.986   4.022  49.680  1.00  0.00     0.077 A 
ENDROOT
BRANCH   7   8
HETATM    8  N6  UNL     1      22.857   4.696  49.128  1.00  0.00    -0.373 N 
HETATM    9  C12 UNL     1      22.647   4.444  47.714  1.00  0.00     0.150 C 
HETATM   10  C13 UNL     1      22.018   3.124  47.438  1.00  0.00    -0.005 C 
HETATM   11  C14 UNL     1      20.871   2.499  47.762  1.00  0.00     0.034 C 
HETATM   12  C15 UNL     1      19.786   3.056  48.603  1.00  0.00     0.063 C 
HETATM   13  S1  UNL     1      19.586   4.339  49.632  1.00  0.00    -0.105 SA
HETATM   14  C16 UNL     1      20.729   5.448  50.092  1.00  0.00     0.087 C 
HETATM   15  C17 UNL     1      22.235   5.462  50.189  1.00  0.00     0.140 C 
BRANCH  12  16
HETATM   16  N7  UNL     1      18.591   2.254  48.481  1.00  0.00    -0.394 N 
HETATM   17  H20 UNL     1      19.122   1.384  48.266  1.00  0.00     0.156 HD
HETATM   18  H21 UNL     1      17.562   2.475  48.576  1.00  0.00     0.156 HD
ENDBRANCH  12  16
ENDBRANCH   7   8
BRANCH   1  19
HETATM   19  C1  UNL     1      26.700   6.331  48.604  1.00  0.00     0.417 C 
BRANCH  19  20
HETATM   20  N1  UNL     1      26.960   7.221  49.717  1.00  0.00     0.097 N 
HETATM   21  H1  UNL     1      27.481   8.078  49.456  1.00  0.00     0.315 HD
HETATM   22  H2  UNL     1      27.289   6.710  50.540  1.00  0.00     0.315 HD
ENDBRANCH  19  20
ENDBRANCH   1  19
BRANCH   5  23
HETATM   23  N4  UNL     1      24.868   1.834  52.313  1.00  0.00     0.138 N 
HETATM   24  C5  UNL     1      23.698   0.976  52.381  1.00  0.00     0.305 C 
HETATM   25  C6  UNL     1      23.594   0.206  53.636  1.00  0.00     0.022 C 
HETATM   26  C7  UNL     1      24.666  -0.441  54.106  1.00  0.00     0.013 C 
HETATM   27 CL1  UNL     1      24.565  -1.365  55.600  1.00  0.00    -0.089 Cl
HETATM   28  C8  UNL     1      25.847  -0.251  53.213  1.00  0.00     0.119 C 
HETATM   29  C9  UNL     1      26.014   1.227  52.950  1.00  0.00     0.458 C 
BRANCH  29  30
HETATM   30  N5  UNL     1      26.326   1.890  54.190  1.00  0.00     0.112 N 
HETATM   31  H13 UNL     1      25.884   2.834  54.252  1.00  0.00     0.315 HD
HETATM   32  H14 UNL     1      25.952   1.298  54.968  1.00  0.00     0.315 HD
ENDBRANCH  29  30
ENDBRANCH   5  23
TORSDOF 6
ENDMDL
MODEL 6
REMARK VINA RESULT:      -7.2      1.784      2.354
REMARK  6 active torsions:
REMARK  status: ('A' for Active; 'I' for Inactive)
REMARK    1  A    between atoms: N1_1  and  C1_2 
REMARK    2  A    between atoms: C1_2  and  N2_3 
REMARK    3  A    between atoms: C4_7  and  N4_8 
REMARK    4  A    between atoms: C9_14  and  N5_15 
REMARK    5  A    between atoms: C11_17  and  N6_18 
REMARK    6  A    between atoms: C15_22  and  N7_23 
ROOT
HETATM    1  N2  UNL     1      22.183   3.415  49.179  1.00  0.00    -0.239 NA
HETATM    2  C2  UNL     1      22.520   2.851  50.288  1.00  0.00     0.172 A 
HETATM    3  N3  UNL     1      22.564   1.417  50.399  1.00  0.00    -0.241 NA
HETATM    4  C3  UNL     1      22.911   0.928  51.543  1.00  0.00     0.132 A 
HETATM    5  C4  UNL     1      23.266   1.683  52.742  1.00  0.00     0.291 A 
HETATM    6  C10 UNL     1      23.205   3.137  52.575  1.00  0.00     0.047 A 
HETATM    7  C11 UNL     1      22.854   3.734  51.423  1.00  0.00     0.077 A 
ENDROOT
BRANCH   7   8
HETATM    8  N6  UNL     1      22.789   5.146  51.237  1.00  0.00    -0.373 N 
HETATM    9  C12 UNL     1      24.082   5.802  51.191  1.00  0.00     0.150 C 
HETATM   10  C13 UNL     1      24.777   5.643  49.885  1.00  0.00    -0.005 C 
HETATM   11  C14 UNL     1      24.528   5.955  48.600  1.00  0.00     0.034 C 
HETATM   12  C15 UNL     1      23.315   6.635  48.089  1.00  0.00     0.063 C 
HETATM   13  S1  UNL     1      21.804   7.008  48.658  1.00  0.00    -0.105 SA
HETATM   14  C16 UNL     1      21.155   6.607  50.130  1.00  0.00     0.087 C 
HETATM   15  C17 UNL     1      21.390   5.517  51.147  1.00  0.00     0.140 C 
BRANCH  12  16
HETATM   16  N7  UNL     1      23.522   7.086  46.734  1.00  0.00    -0.394 N 
HETATM   17  H20 UNL     1      23.110   6.225  46.318  1.00  0.00     0.156 HD
HETATM   18  H21 UNL     1      23.939   7.966  46.323  1.00  0.00     0.156 HD
ENDBRANCH  12  16
ENDBRANCH   7   8
BRANCH   1  19
HETATM   19  C1  UNL     1      21.843   2.592  48.028  1.00  0.00     0.417 C 
BRANCH  19  20
HETATM   20  N1  UNL     1      20.514   2.057  48.242  1.00  0.00     0.097 N 
HETATM   21  H1  UNL     1      19.858   2.235  47.460  1.00  0.00     0.315 HD
HETATM   22  H2  UNL     1      20.174   2.256  49.187  1.00  0.00     0.315 HD
ENDBRANCH  19  20
ENDBRANCH   1  19
BRANCH   5  23
HETATM   23  N4  UNL     1      24.504   1.289  53.371  1.00  0.00     0.138 N 
HETATM   24  C5  UNL     1      24.594  -0.161  53.355  1.00  0.00     0.305 C 
HETATM   25  C6  UNL     1      25.957  -0.678  53.581  1.00  0.00     0.022 C 
HETATM   26  C7  UNL     1      26.986  -0.147  52.911  1.00  0.00     0.013 C 
HETATM   27 CL1  UNL     1      28.620  -0.748  53.166  1.00  0.00    -0.089 Cl
HETATM   28  C8  UNL     1      26.532   0.943  51.998  1.00  0.00     0.119 C 
HETATM   29  C9  UNL     1      25.675   1.904  52.789  1.00  0.00     0.458 C 
BRANCH  29  30
HETATM   30  N5  UNL     1      26.487   2.527  53.802  1.00  0.00     0.112 N 
HETATM   31  H13 UNL     1      26.480   1.989  54.696  1.00  0.00     0.315 HD
HETATM   32  H14 UNL     1      27.471   2.561  53.443  1.00  0.00     0.315 HD
ENDBRANCH  29  30
ENDBRANCH   5  23
TORSDOF 6
ENDMDL
MODEL 7
REMARK VINA RESULT:      -6.9      2.142      2.989
REMARK  6 active torsions:
REMARK  status: ('A' for Active; 'I' for Inactive)
REMARK    1  A    between atoms: N1_1  and  C1_2 
REMARK    2  A    between atoms: C1_2  and  N2_3 
REMARK    3  A    between atoms: C4_7  and  N4_8 
REMARK    4  A    between atoms: C9_14  and  N5_15 
REMARK    5  A    between atoms: C11_17  and  N6_18 
REMARK    6  A    between atoms: C15_22  and  N7_23 
ROOT
HETATM    1  N2  UNL     1      21.840   1.805  50.749  1.00  0.00    -0.239 NA
HETATM    2  C2  UNL     1      22.707   1.774  51.703  1.00  0.00     0.172 A 
HETATM    3  N3  UNL     1      23.034   0.536  52.359  1.00  0.00    -0.241 NA
HETATM    4  C3  UNL     1      23.911   0.587  53.305  1.00  0.00     0.132 A 
HETATM    5  C4  UNL     1      24.610   1.779  53.782  1.00  0.00     0.291 A 
HETATM    6  C10 UNL     1      24.240   3.011  53.081  1.00  0.00     0.047 A 
HETATM    7  C11 UNL     1      23.338   3.053  52.086  1.00  0.00     0.077 A 
ENDROOT
BRANCH   7   8
HETATM    8  N6  UNL     1      22.964   4.239  51.390  1.00  0.00    -0.373 N 
HETATM    9  C12 UNL     1      23.960   4.718  50.450  1.00  0.00     0.150 C 
HETATM   10  C13 UNL     1      23.981   3.955  49.174  1.00  0.00    -0.005 C 
HETATM   11  C14 UNL     1      23.115   3.684  48.180  1.00  0.00     0.034 C 
HETATM   12  C15 UNL     1      21.711   4.150  48.100  1.00  0.00     0.063 C 
HETATM   13  S1  UNL     1      20.601   4.837  49.121  1.00  0.00    -0.105 SA
HETATM   14  C16 UNL     1      20.788   5.170  50.734  1.00  0.00     0.087 C 
HETATM   15  C17 UNL     1      21.645   4.626  51.851  1.00  0.00     0.140 C 
BRANCH  12  16
HETATM   16  N7  UNL     1      21.186   3.942  46.771  1.00  0.00    -0.394 N 
HETATM   17  H20 UNL     1      20.652   4.836  46.775  1.00  0.00     0.156 HD
HETATM   18  H21 UNL     1      21.304   3.167  46.063  1.00  0.00     0.156 HD
ENDBRANCH  12  16
ENDBRANCH   7   8
BRANCH   1  19
HETATM   19  C1  UNL     1      21.187   0.573  50.331  1.00  0.00     0.417 C 
BRANCH  19  20
HETATM   20  N1  UNL     1      20.136   0.283  51.285  1.00  0.00     0.097 N 
HETATM   21  H1  UNL     1      19.181   0.472  50.928  1.00  0.00     0.315 HD
HETATM   22  H2  UNL     1      20.362   0.641  52.216  1.00  0.00     0.315 HD
ENDBRANCH  19  20
ENDBRANCH   1  19
BRANCH   5  23
HETATM   23  N4  UNL     1      26.045   1.652  53.877  1.00  0.00     0.138 N 
HETATM   24  C5  UNL     1      26.356   0.558  54.781  1.00  0.00     0.305 C 
HETATM   25  C6  UNL     1      27.738   0.055  54.656  1.00  0.00     0.022 C 
HETATM   26  C7  UNL     1      28.244  -0.194  53.444  1.00  0.00     0.013 C 
HETATM   27 CL1  UNL     1      29.889  -0.795  53.272  1.00  0.00    -0.089 Cl
HETATM   28  C8  UNL     1      27.251   0.104  52.371  1.00  0.00     0.119 C 
HETATM   29  C9  UNL     1      26.702   1.493  52.600  1.00  0.00     0.458 C 
BRANCH  29  30
HETATM   30  N5  UNL     1      27.770   2.448  52.448  1.00  0.00     0.112 N 
HETATM   31  H13 UNL     1      28.612   2.185  53.005  1.00  0.00     0.315 HD
HETATM   32  H14 UNL     1      28.036   2.468  51.435  1.00  0.00     0.315 HD
ENDBRANCH  29  30
ENDBRANCH   5  23
TORSDOF 6
ENDMDL
MODEL 8
REMARK VINA RESULT:      -6.7      2.192      3.705
REMARK  6 active torsions:
REMARK  status: ('A' for Active; 'I' for Inactive)
REMARK    1  A    between atoms: N1_1  and  C1_2 
REMARK    2  A    between atoms: C1_2  and  N2_3 
REMARK    3  A    between atoms: C4_7  and  N4_8 
REMARK    4  A    between atoms: C9_14  and  N5_15 
REMARK    5  A    between atoms: C11_17  and  N6_18 
REMARK    6  A    between atoms: C15_22  and  N7_23 
ROOT
HETATM    1  N2  UNL     1      25.230   5.710  48.881  1.00  0.00    -0.239 NA
HETATM    2  C2  UNL     1      25.189   4.604  49.544  1.00  0.00     0.172 A 
HETATM    3  N3  UNL     1      26.395   4.011  50.058  1.00  0.00    -0.241 NA
HETATM    4  C3  UNL     1      26.271   2.904  50.712  1.00  0.00     0.132 A 
HETATM    5  C4  UNL     1      25.027   2.187  50.985  1.00  0.00     0.291 A 
HETATM    6  C10 UNL     1      23.831   2.834  50.439  1.00  0.00     0.047 A 
HETATM    7  C11 UNL     1      23.864   3.985  49.747  1.00  0.00     0.077 A 
ENDROOT
BRANCH   7   8
HETATM    8  N6  UNL     1      22.713   4.632  49.207  1.00  0.00    -0.373 N 
HETATM    9  C12 UNL     1      21.867   5.267  50.200  1.00  0.00     0.150 C 
HETATM   10  C13 UNL     1      22.397   6.571  50.680  1.00  0.00    -0.005 C 
HETATM   11  C14 UNL     1      22.717   7.758  50.134  1.00  0.00     0.034 C 
HETATM   12  C15 UNL     1      22.603   8.115  48.701  1.00  0.00     0.063 C 
HETATM   13  S1  UNL     1      22.374   7.317  47.267  1.00  0.00    -0.105 SA
HETATM   14  C16 UNL     1      22.256   5.680  47.034  1.00  0.00     0.087 C 
HETATM   15  C17 UNL     1      22.737   4.452  47.769  1.00  0.00     0.140 C 
BRANCH  12  16
HETATM   16  N7  UNL     1      22.728   9.543  48.526  1.00  0.00    -0.394 N 
HETATM   17  H20 UNL     1      23.654   9.584  49.000  1.00  0.00     0.156 HD
HETATM   18  H21 UNL     1      22.104  10.271  48.079  1.00  0.00     0.156 HD
ENDBRANCH  12  16
ENDBRANCH   7   8
BRANCH   1  19
HETATM   19  C1  UNL     1      26.510   6.363  48.652  1.00  0.00     0.417 C 
BRANCH  19  20
HETATM   20  N1  UNL     1      26.780   7.221  49.787  1.00  0.00     0.097 N 
HETATM   21  H1  UNL     1      27.437   6.813  50.476  1.00  0.00     0.315 HD
HETATM   22  H2  UNL     1      25.922   7.641  50.156  1.00  0.00     0.315 HD
ENDBRANCH  19  20
ENDBRANCH   1  19
BRANCH   5  23
HETATM   23  N4  UNL     1      24.825   1.812  52.363  1.00  0.00     0.138 N 
HETATM   24  C5  UNL     1      23.670   0.933  52.442  1.00  0.00     0.305 C 
HETATM   25  C6  UNL     1      23.594   0.156  53.694  1.00  0.00     0.022 C 
HETATM   26  C7  UNL     1      24.682  -0.475  54.148  1.00  0.00     0.013 C 
HETATM   27 CL1  UNL     1      24.614  -1.407  55.639  1.00  0.00    -0.089 Cl
HETATM   28  C8  UNL     1      25.849  -0.261  53.242  1.00  0.00     0.119 C 
HETATM   29  C9  UNL     1      25.988   1.221  52.984  1.00  0.00     0.458 C 
BRANCH  29  30
HETATM   30  N5  UNL     1      26.304   1.883  54.223  1.00  0.00     0.112 N 
HETATM   31  H13 UNL     1      26.674   1.220  54.938  1.00  0.00     0.315 HD
HETATM   32  H14 UNL     1      27.042   2.598  54.021  1.00  0.00     0.315 HD
ENDBRANCH  29  30
ENDBRANCH   5  23
TORSDOF 6
ENDMDL
MODEL 9
REMARK VINA RESULT:      -6.6      3.793      7.114
REMARK  6 active torsions:
REMARK  status: ('A' for Active; 'I' for Inactive)
REMARK    1  A    between atoms: N1_1  and  C1_2 
REMARK    2  A    between atoms: C1_2  and  N2_3 
REMARK    3  A    between atoms: C4_7  and  N4_8 
REMARK    4  A    between atoms: C9_14  and  N5_15 
REMARK    5  A    between atoms: C11_17  and  N6_18 
REMARK    6  A    between atoms: C15_22  and  N7_23 
ROOT
HETATM    1  N2  UNL     1      23.911   5.133  51.365  1.00  0.00    -0.239 NA
HETATM    2  C2  UNL     1      24.708   5.826  50.625  1.00  0.00     0.172 A 
HETATM    3  N3  UNL     1      24.919   7.226  50.883  1.00  0.00    -0.241 NA
HETATM    4  C3  UNL     1      25.732   7.851  50.097  1.00  0.00     0.132 A 
HETATM    5  C4  UNL     1      26.463   7.281  48.968  1.00  0.00     0.291 A 
HETATM    6  C10 UNL     1      26.211   5.854  48.749  1.00  0.00     0.047 A 
HETATM    7  C11 UNL     1      25.383   5.124  49.515  1.00  0.00     0.077 A 
ENDROOT
BRANCH   7   8
HETATM    8  N6  UNL     1      25.124   3.736  49.322  1.00  0.00    -0.373 N 
HETATM    9  C12 UNL     1      26.245   2.871  49.638  1.00  0.00     0.150 C 
HETATM   10  C13 UNL     1      26.428   2.652  51.098  1.00  0.00    -0.005 C 
HETATM   11  C14 UNL     1      25.700   2.146  52.111  1.00  0.00     0.034 C 
HETATM   12  C15 UNL     1      24.327   1.600  52.006  1.00  0.00     0.063 C 
HETATM   13  S1  UNL     1      23.100   1.609  50.892  1.00  0.00    -0.105 SA
HETATM   14  C16 UNL     1      23.072   2.392  49.431  1.00  0.00     0.087 C 
HETATM   15  C17 UNL     1      23.761   3.601  48.847  1.00  0.00     0.140 C 
BRANCH  12  16
HETATM   16  N7  UNL     1      23.983   0.867  53.201  1.00  0.00    -0.394 N 
HETATM   17  H20 UNL     1      24.510   1.513  53.824  1.00  0.00     0.156 HD
HETATM   18  H21 UNL     1      23.408  -0.003  53.372  1.00  0.00     0.156 HD
ENDBRANCH  12  16
ENDBRANCH   7   8
BRANCH   1  19
HETATM   19  C1  UNL     1      23.219   5.774  52.473  1.00  0.00     0.417 C 
BRANCH  19  20
HETATM   20  N1  UNL     1      24.002   5.555  53.672  1.00  0.00     0.097 N 
HETATM   21  H1  UNL     1      24.775   6.233  53.800  1.00  0.00     0.315 HD
HETATM   22  H2  UNL     1      24.228   4.565  53.800  1.00  0.00     0.315 HD
ENDBRANCH  19  20
ENDBRANCH   1  19
BRANCH   5  23
HETATM   23  N4  UNL     1      27.878   7.563  48.948  1.00  0.00     0.138 N 
HETATM   24  C5  UNL     1      28.478   6.853  47.831  1.00  0.00     0.305 C 
HETATM   25  C6  UNL     1      29.808   7.362  47.445  1.00  0.00     0.022 C 
HETATM   26  C7  UNL     1      29.999   8.679  47.307  1.00  0.00     0.013 C 
HETATM   27 CL1  UNL     1      31.576   9.308  46.848  1.00  0.00    -0.089 Cl
HETATM   28  C8  UNL     1      28.745   9.439  47.589  1.00  0.00     0.119 C 
HETATM   29  C9  UNL     1      28.192   8.973  48.915  1.00  0.00     0.458 C 
BRANCH  29  30
HETATM   30  N5  UNL     1      29.124   9.318  49.957  1.00  0.00     0.112 N 
HETATM   31  H13 UNL     1      28.915   8.819  50.850  1.00  0.00     0.315 HD
HETATM   32  H14 UNL     1      30.079   9.033  49.635  1.00  0.00     0.315 HD
ENDBRANCH  29  30
ENDBRANCH   5  23
TORSDOF 6
ENDMDL
