MODEL 1
REMARK VINA RESULT:      -7.7      0.000      0.000
REMARK  5 active torsions:
REMARK  status: ('A' for Active; 'I' for Inactive)
REMARK    1  A    between atoms: N1_1  and  C1_2 
REMARK    2  A    between atoms: C1_2  and  N2_4 
REMARK    3  A    between atoms: C2_5  and  C3_6 
REMARK    4  A    between atoms: C2_5  and  C10_13 
REMARK    5  A    between atoms: C3_6  and  C4_7 
ROOT
HETATM    1  N2  UNL     1      25.897   1.960  52.346  1.00  0.00    -0.225 NA
HETATM    2  C2  UNL     1      25.174   1.215  53.086  1.00  0.00     0.052 C 
ENDROOT
BRANCH   2   3
HETATM    3  C3  UNL     1      25.986   0.715  54.218  1.00  0.00     0.099 C 
BRANCH   3   4
HETATM    4  C4  UNL     1      27.104  -0.174  53.847  1.00  0.00    -0.052 A 
HETATM    5  C5  UNL     1      28.368   0.180  54.317  1.00  0.00     0.007 A 
HETATM    6  C6  UNL     1      29.446  -0.629  53.990  1.00  0.00     0.001 A 
HETATM    7  C7  UNL     1      29.291  -1.779  53.207  1.00  0.00     0.000 A 
HETATM    8  C8  UNL     1      28.007  -2.046  52.789  1.00  0.00     0.001 A 
HETATM    9  C9  UNL     1      26.884  -1.294  53.070  1.00  0.00     0.007 A 
ENDBRANCH   3   4
ENDBRANCH   2   3
BRANCH   2  10
HETATM   10  C10 UNL     1      23.778   0.737  53.106  1.00  0.00    -0.009 A 
HETATM   11  C11 UNL     1      23.429  -0.594  53.367  1.00  0.00     0.015 A 
HETATM   12  C12 UNL     1      22.099  -0.903  53.355  1.00  0.00     0.026 A 
HETATM   13  C13 UNL     1      21.074  -0.020  53.108  1.00  0.00     0.055 A 
HETATM   14 CL1  UNL     1      19.425  -0.580  53.130  1.00  0.00    -0.083 Cl
HETATM   15  C14 UNL     1      21.424   1.291  52.852  1.00  0.00     0.056 A 
HETATM   16 CL2  UNL     1      20.117   2.404  52.539  1.00  0.00    -0.083 Cl
HETATM   17  C15 UNL     1      22.758   1.637  52.856  1.00  0.00     0.039 A 
ENDBRANCH   2  10
BRANCH   1  18
HETATM   18  C1  UNL     1      25.483   2.615  51.184  1.00  0.00     0.191 C 
HETATM   19  S1  UNL     1      25.170   3.448  49.837  1.00  0.00    -0.039 SA
BRANCH  18  20
HETATM   20  N1  UNL     1      26.786   3.227  51.158  1.00  0.00    -0.375 N 
HETATM   21  H1  UNL     1      27.785   3.521  51.145  1.00  0.00     0.158 HD
HETATM   22  H2  UNL     1      27.295   4.160  51.124  1.00  0.00     0.158 HD
ENDBRANCH  18  20
ENDBRANCH   1  18
TORSDOF 5
ENDMDL
MODEL 2
REMARK VINA RESULT:      -7.6      3.299      5.794
REMARK  5 active torsions:
REMARK  status: ('A' for Active; 'I' for Inactive)
REMARK    1  A    between atoms: N1_1  and  C1_2 
REMARK    2  A    between atoms: C1_2  and  N2_4 
REMARK    3  A    between atoms: C2_5  and  C3_6 
REMARK    4  A    between atoms: C2_5  and  C10_13 
REMARK    5  A    between atoms: C3_6  and  C4_7 
ROOT
HETATM    1  N2  UNL     1      25.237   3.455  51.134  1.00  0.00    -0.225 NA
HETATM    2  C2  UNL     1      25.434   2.598  52.056  1.00  0.00     0.052 C 
ENDROOT
BRANCH   2   3
HETATM    3  C3  UNL     1      24.227   2.510  52.908  1.00  0.00     0.099 C 
BRANCH   3   4
HETATM    4  C4  UNL     1      23.160   1.628  52.400  1.00  0.00    -0.052 A 
HETATM    5  C5  UNL     1      22.827   0.528  53.191  1.00  0.00     0.007 A 
HETATM    6  C6  UNL     1      21.828  -0.328  52.748  1.00  0.00     0.001 A 
HETATM    7  C7  UNL     1      21.158  -0.110  51.539  1.00  0.00     0.000 A 
HETATM    8  C8  UNL     1      21.555   1.000  50.828  1.00  0.00     0.001 A 
HETATM    9  C9  UNL     1      22.537   1.897  51.197  1.00  0.00     0.007 A 
ENDBRANCH   3   4
ENDBRANCH   2   3
BRANCH   2  10
HETATM   10  C10 UNL     1      26.523   1.696  52.482  1.00  0.00    -0.009 A 
HETATM   11  C11 UNL     1      27.720   2.157  53.045  1.00  0.00     0.015 A 
HETATM   12  C12 UNL     1      28.646   1.216  53.396  1.00  0.00     0.026 A 
HETATM   13  C13 UNL     1      28.503  -0.143  53.244  1.00  0.00     0.055 A 
HETATM   14 CL1  UNL     1      29.784  -1.210  53.745  1.00  0.00    -0.083 Cl
HETATM   15  C14 UNL     1      27.320  -0.591  52.688  1.00  0.00     0.056 A 
HETATM   16 CL2  UNL     1      27.148  -2.317  52.498  1.00  0.00    -0.083 Cl
HETATM   17  C15 UNL     1      26.364   0.333  52.323  1.00  0.00     0.039 A 
ENDBRANCH   2  10
BRANCH   1  18
HETATM   18  C1  UNL     1      26.146   3.813  50.135  1.00  0.00     0.191 C 
HETATM   19  S1  UNL     1      27.149   4.399  49.014  1.00  0.00    -0.039 SA
BRANCH  18  20
HETATM   20  N1  UNL     1      25.765   5.178  50.387  1.00  0.00    -0.375 N 
HETATM   21  H1  UNL     1      25.604   6.204  50.466  1.00  0.00     0.158 HD
HETATM   22  H2  UNL     1      25.098   5.794  50.939  1.00  0.00     0.158 HD
ENDBRANCH  18  20
ENDBRANCH   1  18
TORSDOF 5
ENDMDL
MODEL 3
REMARK VINA RESULT:      -7.5      3.114      4.137
REMARK  5 active torsions:
REMARK  status: ('A' for Active; 'I' for Inactive)
REMARK    1  A    between atoms: N1_1  and  C1_2 
REMARK    2  A    between atoms: C1_2  and  N2_4 
REMARK    3  A    between atoms: C2_5  and  C3_6 
REMARK    4  A    between atoms: C2_5  and  C10_13 
REMARK    5  A    between atoms: C3_6  and  C4_7 
ROOT
HETATM    1  N2  UNL     1      24.475  -0.428  53.146  1.00  0.00    -0.225 NA
HETATM    2  C2  UNL     1      24.845   0.608  52.500  1.00  0.00     0.052 C 
ENDROOT
BRANCH   2   3
HETATM    3  C3  UNL     1      26.200   0.381  51.950  1.00  0.00     0.099 C 
BRANCH   3   4
HETATM    4  C4  UNL     1      27.314   0.737  52.850  1.00  0.00    -0.052 A 
HETATM    5  C5  UNL     1      27.709   2.075  52.858  1.00  0.00     0.007 A 
HETATM    6  C6  UNL     1      28.753   2.450  53.692  1.00  0.00     0.001 A 
HETATM    7  C7  UNL     1      29.408   1.525  54.512  1.00  0.00     0.000 A 
HETATM    8  C8  UNL     1      28.948   0.229  54.435  1.00  0.00     0.001 A 
HETATM    9  C9  UNL     1      27.919  -0.225  53.635  1.00  0.00     0.007 A 
ENDBRANCH   3   4
ENDBRANCH   2   3
BRANCH   2  10
HETATM   10  C10 UNL     1      24.288   1.934  52.170  1.00  0.00    -0.009 A 
HETATM   11  C11 UNL     1      24.135   2.956  53.116  1.00  0.00     0.015 A 
HETATM   12  C12 UNL     1      23.607   4.136  52.677  1.00  0.00     0.026 A 
HETATM   13  C13 UNL     1      23.213   4.407  51.388  1.00  0.00     0.055 A 
HETATM   14 CL1  UNL     1      22.556   5.971  50.993  1.00  0.00    -0.083 Cl
HETATM   15  C14 UNL     1      23.367   3.396  50.460  1.00  0.00     0.056 A 
HETATM   16 CL2  UNL     1      22.865   3.748  48.826  1.00  0.00    -0.083 Cl
HETATM   17  C15 UNL     1      23.898   2.192  50.869  1.00  0.00     0.039 A 
ENDBRANCH   2  10
BRANCH   1  18
HETATM   18  C1  UNL     1      23.256  -0.592  53.807  1.00  0.00     0.191 C 
HETATM   19  S1  UNL     1      21.943  -0.838  54.715  1.00  0.00    -0.039 SA
BRANCH  18  20
HETATM   20  N1  UNL     1      24.020  -1.042  54.940  1.00  0.00    -0.375 N 
HETATM   21  H1  UNL     1      24.699  -1.359  55.664  1.00  0.00     0.158 HD
HETATM   22  H2  UNL     1      23.950  -1.332  55.961  1.00  0.00     0.158 HD
ENDBRANCH  18  20
ENDBRANCH   1  18
TORSDOF 5
ENDMDL
MODEL 4
REMARK VINA RESULT:      -7.5      1.921      2.642
REMARK  5 active torsions:
REMARK  status: ('A' for Active; 'I' for Inactive)
REMARK    1  A    between atoms: N1_1  and  C1_2 
REMARK    2  A    between atoms: C1_2  and  N2_4 
REMARK    3  A    between atoms: C2_5  and  C3_6 
REMARK    4  A    between atoms: C2_5  and  C10_13 
REMARK    5  A    between atoms: C3_6  and  C4_7 
ROOT
HETATM    1  N2  UNL     1      25.098   2.978  51.460  1.00  0.00    -0.225 NA
HETATM    2  C2  UNL     1      24.903   1.753  51.755  1.00  0.00     0.052 C 
ENDROOT
BRANCH   2   3
HETATM    3  C3  UNL     1      26.129   0.978  51.459  1.00  0.00     0.099 C 
BRANCH   3   4
HETATM    4  C4  UNL     1      27.183   1.049  52.489  1.00  0.00    -0.052 A 
HETATM    5  C5  UNL     1      27.570  -0.158  53.072  1.00  0.00     0.007 A 
HETATM    6  C6  UNL     1      28.559  -0.136  54.045  1.00  0.00     0.001 A 
HETATM    7  C7  UNL     1      29.165   1.059  54.448  1.00  0.00     0.000 A 
HETATM    8  C8  UNL     1      28.717   2.198  53.817  1.00  0.00     0.001 A 
HETATM    9  C9  UNL     1      27.742   2.260  52.843  1.00  0.00     0.007 A 
ENDBRANCH   3   4
ENDBRANCH   2   3
BRANCH   2  10
HETATM   10  C10 UNL     1      23.804   0.932  52.299  1.00  0.00    -0.009 A 
HETATM   11  C11 UNL     1      22.556   0.815  51.673  1.00  0.00     0.015 A 
HETATM   12  C12 UNL     1      21.626   0.021  52.283  1.00  0.00     0.026 A 
HETATM   13  C13 UNL     1      21.810  -0.671  53.457  1.00  0.00     0.055 A 
HETATM   14 CL1  UNL     1      20.517  -1.641  54.102  1.00  0.00    -0.083 Cl
HETATM   15  C14 UNL     1      23.043  -0.552  54.068  1.00  0.00     0.056 A 
HETATM   16 CL2  UNL     1      23.268  -1.433  55.557  1.00  0.00    -0.083 Cl
HETATM   17  C15 UNL     1      24.005   0.241  53.479  1.00  0.00     0.039 A 
ENDBRANCH   2  10
BRANCH   1  18
HETATM   18  C1  UNL     1      24.173   4.015  51.601  1.00  0.00     0.191 C 
HETATM   19  S1  UNL     1      23.223   5.319  51.676  1.00  0.00    -0.039 SA
BRANCH  18  20
HETATM   20  N1  UNL     1      25.119   4.849  50.908  1.00  0.00    -0.375 N 
HETATM   21  H1  UNL     1      25.721   5.416  50.275  1.00  0.00     0.158 HD
HETATM   22  H2  UNL     1      25.980   5.459  51.036  1.00  0.00     0.158 HD
ENDBRANCH  18  20
ENDBRANCH   1  18
TORSDOF 5
ENDMDL
MODEL 5
REMARK VINA RESULT:      -7.0      1.564      2.226
REMARK  5 active torsions:
REMARK  status: ('A' for Active; 'I' for Inactive)
REMARK    1  A    between atoms: N1_1  and  C1_2 
REMARK    2  A    between atoms: C1_2  and  N2_4 
REMARK    3  A    between atoms: C2_5  and  C3_6 
REMARK    4  A    between atoms: C2_5  and  C10_13 
REMARK    5  A    between atoms: C3_6  and  C4_7 
ROOT
HETATM    1  N2  UNL     1      24.255   1.592  53.183  1.00  0.00    -0.225 NA
HETATM    2  C2  UNL     1      23.452   0.611  53.320  1.00  0.00     0.052 C 
ENDROOT
BRANCH   2   3
HETATM    3  C3  UNL     1      24.163  -0.517  53.962  1.00  0.00     0.099 C 
BRANCH   3   4
HETATM    4  C4  UNL     1      25.636  -0.442  53.914  1.00  0.00    -0.052 A 
HETATM    5  C5  UNL     1      26.258  -1.037  52.816  1.00  0.00     0.007 A 
HETATM    6  C6  UNL     1      27.642  -0.989  52.733  1.00  0.00     0.001 A 
HETATM    7  C7  UNL     1      28.415  -0.364  53.718  1.00  0.00     0.000 A 
HETATM    8  C8  UNL     1      27.713   0.194  54.763  1.00  0.00     0.001 A 
HETATM    9  C9  UNL     1      26.342   0.189  54.919  1.00  0.00     0.007 A 
ENDBRANCH   3   4
ENDBRANCH   2   3
BRANCH   2  10
HETATM   10  C10 UNL     1      22.038   0.319  53.013  1.00  0.00    -0.009 A 
HETATM   11  C11 UNL     1      21.181  -0.333  53.908  1.00  0.00     0.015 A 
HETATM   12  C12 UNL     1      19.894  -0.541  53.498  1.00  0.00     0.026 A 
HETATM   13  C13 UNL     1      19.370  -0.166  52.284  1.00  0.00     0.055 A 
HETATM   14 CL1  UNL     1      17.703  -0.508  51.917  1.00  0.00    -0.083 Cl
HETATM   15  C14 UNL     1      20.221   0.477  51.406  1.00  0.00     0.056 A 
HETATM   16 CL2  UNL     1      19.548   0.949  49.867  1.00  0.00    -0.083 Cl
HETATM   17  C15 UNL     1      21.526   0.703  51.788  1.00  0.00     0.039 A 
ENDBRANCH   2  10
BRANCH   1  18
HETATM   18  C1  UNL     1      23.950   2.832  52.618  1.00  0.00     0.191 C 
HETATM   19  S1  UNL     1      23.774   4.282  51.928  1.00  0.00    -0.039 SA
BRANCH  18  20
HETATM   20  N1  UNL     1      25.353   2.956  52.323  1.00  0.00    -0.375 N 
HETATM   21  H1  UNL     1      26.331   2.990  51.966  1.00  0.00     0.158 HD
HETATM   22  H2  UNL     1      26.292   3.247  52.728  1.00  0.00     0.158 HD
ENDBRANCH  18  20
ENDBRANCH   1  18
TORSDOF 5
ENDMDL
MODEL 6
REMARK VINA RESULT:      -7.0      4.153      6.605
REMARK  5 active torsions:
REMARK  status: ('A' for Active; 'I' for Inactive)
REMARK    1  A    between atoms: N1_1  and  C1_2 
REMARK    2  A    between atoms: C1_2  and  N2_4 
REMARK    3  A    between atoms: C2_5  and  C3_6 
REMARK    4  A    between atoms: C2_5  and  C10_13 
REMARK    5  A    between atoms: C3_6  and  C4_7 
ROOT
HETATM    1  N2  UNL     1      23.182   0.492  52.686  1.00  0.00    -0.225 NA
HETATM    2  C2  UNL     1      24.347   0.795  52.267  1.00  0.00     0.052 C 
ENDROOT
BRANCH   2   3
HETATM    3  C3  UNL     1      24.229   1.726  51.123  1.00  0.00     0.099 C 
BRANCH   3   4
HETATM    4  C4  UNL     1      23.388   2.914  51.362  1.00  0.00    -0.052 A 
HETATM    5  C5  UNL     1      23.816   3.795  52.356  1.00  0.00     0.007 A 
HETATM    6  C6  UNL     1      23.053   4.925  52.612  1.00  0.00     0.001 A 
HETATM    7  C7  UNL     1      21.877   5.193  51.903  1.00  0.00     0.000 A 
HETATM    8  C8  UNL     1      21.535   4.267  50.943  1.00  0.00     0.001 A 
HETATM    9  C9  UNL     1      22.237   3.122  50.627  1.00  0.00     0.007 A 
ENDBRANCH   3   4
ENDBRANCH   2   3
BRANCH   2  10
HETATM   10  C10 UNL     1      25.743   0.466  52.618  1.00  0.00    -0.009 A 
HETATM   11  C11 UNL     1      26.250  -0.839  52.593  1.00  0.00     0.015 A 
HETATM   12  C12 UNL     1      27.560  -1.005  52.941  1.00  0.00     0.026 A 
HETATM   13  C13 UNL     1      28.423  -0.001  53.312  1.00  0.00     0.055 A 
HETATM   14 CL1  UNL     1      30.070  -0.384  53.726  1.00  0.00    -0.083 Cl
HETATM   15  C14 UNL     1      27.917   1.284  53.334  1.00  0.00     0.056 A 
HETATM   16 CL2  UNL     1      29.019   2.552  53.807  1.00  0.00    -0.083 Cl
HETATM   17  C15 UNL     1      26.598   1.487  52.989  1.00  0.00     0.039 A 
ENDBRANCH   2  10
BRANCH   1  18
HETATM   18  C1  UNL     1      22.886  -0.361  53.751  1.00  0.00     0.191 C 
HETATM   19  S1  UNL     1      22.386  -1.259  54.997  1.00  0.00    -0.039 SA
BRANCH  18  20
HETATM   20  N1  UNL     1      21.638   0.345  53.869  1.00  0.00    -0.375 N 
HETATM   21  H1  UNL     1      20.667   0.720  53.910  1.00  0.00     0.158 HD
HETATM   22  H2  UNL     1      21.204   1.285  54.111  1.00  0.00     0.158 HD
ENDBRANCH  18  20
ENDBRANCH   1  18
TORSDOF 5
ENDMDL
MODEL 7
REMARK VINA RESULT:      -7.0      1.986      2.786
REMARK  5 active torsions:
REMARK  status: ('A' for Active; 'I' for Inactive)
REMARK    1  A    between atoms: N1_1  and  C1_2 
REMARK    2  A    between atoms: C1_2  and  N2_4 
REMARK    3  A    between atoms: C2_5  and  C3_6 
REMARK    4  A    between atoms: C2_5  and  C10_13 
REMARK    5  A    between atoms: C3_6  and  C4_7 
ROOT
HETATM    1  N2  UNL     1      25.461   4.178  50.664  1.00  0.00    -0.225 NA
HETATM    2  C2  UNL     1      25.153   2.967  50.921  1.00  0.00     0.052 C 
ENDROOT
BRANCH   2   3
HETATM    3  C3  UNL     1      26.324   2.100  50.663  1.00  0.00     0.099 C 
BRANCH   3   4
HETATM    4  C4  UNL     1      26.873   1.415  51.848  1.00  0.00    -0.052 A 
HETATM    5  C5  UNL     1      26.698   0.032  51.909  1.00  0.00     0.007 A 
HETATM    6  C6  UNL     1      27.200  -0.650  53.009  1.00  0.00     0.001 A 
HETATM    7  C7  UNL     1      27.869   0.014  54.043  1.00  0.00     0.000 A 
HETATM    8  C8  UNL     1      27.992   1.377  53.895  1.00  0.00     0.001 A 
HETATM    9  C9  UNL     1      27.523   2.128  52.836  1.00  0.00     0.007 A 
ENDBRANCH   3   4
ENDBRANCH   2   3
BRANCH   2  10
HETATM   10  C10 UNL     1      23.965   2.230  51.394  1.00  0.00    -0.009 A 
HETATM   11  C11 UNL     1      23.762   1.890  52.737  1.00  0.00     0.015 A 
HETATM   12  C12 UNL     1      22.619   1.206  53.040  1.00  0.00     0.026 A 
HETATM   13  C13 UNL     1      21.652   0.825  52.141  1.00  0.00     0.055 A 
HETATM   14 CL1  UNL     1      20.249  -0.045  52.694  1.00  0.00    -0.083 Cl
HETATM   15  C14 UNL     1      21.857   1.164  50.818  1.00  0.00     0.056 A 
HETATM   16 CL2  UNL     1      20.625   0.676  49.683  1.00  0.00    -0.083 Cl
HETATM   17  C15 UNL     1      23.001   1.854  50.477  1.00  0.00     0.039 A 
ENDBRANCH   2  10
BRANCH   1  18
HETATM   18  C1  UNL     1      24.618   5.285  50.787  1.00  0.00     0.191 C 
HETATM   19  S1  UNL     1      23.784   6.665  50.870  1.00  0.00    -0.039 SA
BRANCH  18  20
HETATM   20  N1  UNL     1      25.726   6.081  50.328  1.00  0.00    -0.375 N 
HETATM   21  H1  UNL     1      26.578   6.652  50.147  1.00  0.00     0.158 HD
HETATM   22  H2  UNL     1      26.150   6.548  49.472  1.00  0.00     0.158 HD
ENDBRANCH  18  20
ENDBRANCH   1  18
TORSDOF 5
ENDMDL
MODEL 8
REMARK VINA RESULT:      -7.0      3.103      4.179
REMARK  5 active torsions:
REMARK  status: ('A' for Active; 'I' for Inactive)
REMARK    1  A    between atoms: N1_1  and  C1_2 
REMARK    2  A    between atoms: C1_2  and  N2_4 
REMARK    3  A    between atoms: C2_5  and  C3_6 
REMARK    4  A    between atoms: C2_5  and  C10_13 
REMARK    5  A    between atoms: C3_6  and  C4_7 
ROOT
HETATM    1  N2  UNL     1      24.490  -0.286  54.181  1.00  0.00    -0.225 NA
HETATM    2  C2  UNL     1      24.962   0.575  53.367  1.00  0.00     0.052 C 
ENDROOT
BRANCH   2   3
HETATM    3  C3  UNL     1      26.370   0.864  53.723  1.00  0.00     0.099 C 
BRANCH   3   4
HETATM    4  C4  UNL     1      27.317  -0.244  53.495  1.00  0.00    -0.052 A 
HETATM    5  C5  UNL     1      26.810  -1.381  52.866  1.00  0.00     0.007 A 
HETATM    6  C6  UNL     1      27.669  -2.446  52.633  1.00  0.00     0.001 A 
HETATM    7  C7  UNL     1      29.015  -2.401  53.014  1.00  0.00     0.000 A 
HETATM    8  C8  UNL     1      29.422  -1.239  53.628  1.00  0.00     0.001 A 
HETATM    9  C9  UNL     1      28.634  -0.138  53.896  1.00  0.00     0.007 A 
ENDBRANCH   3   4
ENDBRANCH   2   3
BRANCH   2  10
HETATM   10  C10 UNL     1      24.482   1.336  52.197  1.00  0.00    -0.009 A 
HETATM   11  C11 UNL     1      23.154   1.298  51.753  1.00  0.00     0.015 A 
HETATM   12  C12 UNL     1      22.842   2.051  50.657  1.00  0.00     0.026 A 
HETATM   13  C13 UNL     1      23.720   2.842  49.953  1.00  0.00     0.055 A 
HETATM   14 CL1  UNL     1      23.157   3.742  48.573  1.00  0.00    -0.083 Cl
HETATM   15  C14 UNL     1      25.027   2.876  50.397  1.00  0.00     0.056 A 
HETATM   16 CL2  UNL     1      26.133   3.883  49.498  1.00  0.00    -0.083 Cl
HETATM   17  C15 UNL     1      25.376   2.128  51.501  1.00  0.00     0.039 A 
ENDBRANCH   2  10
BRANCH   1  18
HETATM   18  C1  UNL     1      23.195  -0.808  54.165  1.00  0.00     0.191 C 
HETATM   19  S1  UNL     1      21.737  -1.487  54.309  1.00  0.00    -0.039 SA
BRANCH  18  20
HETATM   20  N1  UNL     1      23.505  -1.406  55.437  1.00  0.00    -0.375 N 
HETATM   21  H1  UNL     1      23.750  -1.973  56.276  1.00  0.00     0.158 HD
HETATM   22  H2  UNL     1      23.596  -1.209  56.478  1.00  0.00     0.158 HD
ENDBRANCH  18  20
ENDBRANCH   1  18
TORSDOF 5
ENDMDL
MODEL 9
REMARK VINA RESULT:      -6.8      2.501      4.765
REMARK  5 active torsions:
REMARK  status: ('A' for Active; 'I' for Inactive)
REMARK    1  A    between atoms: N1_1  and  C1_2 
REMARK    2  A    between atoms: C1_2  and  N2_4 
REMARK    3  A    between atoms: C2_5  and  C3_6 
REMARK    4  A    between atoms: C2_5  and  C10_13 
REMARK    5  A    between atoms: C3_6  and  C4_7 
ROOT
HETATM    1  N2  UNL     1      27.536   1.980  51.969  1.00  0.00    -0.225 NA
HETATM    2  C2  UNL     1      26.341   1.582  51.775  1.00  0.00     0.052 C 
ENDROOT
BRANCH   2   3
HETATM    3  C3  UNL     1      25.914   1.964  50.410  1.00  0.00     0.099 C 
BRANCH   3   4
HETATM    4  C4  UNL     1      25.893   3.415  50.140  1.00  0.00    -0.052 A 
HETATM    5  C5  UNL     1      26.856   3.899  49.254  1.00  0.00     0.007 A 
HETATM    6  C6  UNL     1      26.871   5.258  48.973  1.00  0.00     0.001 A 
HETATM    7  C7  UNL     1      25.952   6.139  49.554  1.00  0.00     0.000 A 
HETATM    8  C8  UNL     1      25.041   5.568  50.415  1.00  0.00     0.001 A 
HETATM    9  C9  UNL     1      24.960   4.231  50.747  1.00  0.00     0.007 A 
ENDBRANCH   3   4
ENDBRANCH   2   3
BRANCH   2  10
HETATM   10  C10 UNL     1      25.303   0.860  52.537  1.00  0.00    -0.009 A 
HETATM   11  C11 UNL     1      25.581  -0.248  53.347  1.00  0.00     0.015 A 
HETATM   12  C12 UNL     1      24.527  -0.824  53.998  1.00  0.00     0.026 A 
HETATM   13  C13 UNL     1      23.219  -0.408  53.927  1.00  0.00     0.055 A 
HETATM   14 CL1  UNL     1      21.991  -1.256  54.825  1.00  0.00    -0.083 Cl
HETATM   15  C14 UNL     1      22.951   0.686  53.128  1.00  0.00     0.056 A 
HETATM   16 CL2  UNL     1      21.288   1.206  53.043  1.00  0.00    -0.083 Cl
HETATM   17  C15 UNL     1      23.992   1.291  52.456  1.00  0.00     0.039 A 
ENDBRANCH   2  10
BRANCH   1  18
HETATM   18  C1  UNL     1      28.282   1.804  53.137  1.00  0.00     0.191 C 
HETATM   19  S1  UNL     1      29.039   1.729  54.561  1.00  0.00    -0.039 SA
BRANCH  18  20
HETATM   20  N1  UNL     1      27.454   2.822  53.726  1.00  0.00    -0.375 N 
HETATM   21  H1  UNL     1      26.978   3.656  54.131  1.00  0.00     0.158 HD
HETATM   22  H2  UNL     1      26.496   3.011  54.150  1.00  0.00     0.158 HD
ENDBRANCH  18  20
ENDBRANCH   1  18
TORSDOF 5
ENDMDL
