MODEL 1
REMARK VINA RESULT:      -8.9      0.000      0.000
REMARK  7 active torsions:
REMARK  status: ('A' for Active; 'I' for Inactive)
REMARK    1  A    between atoms: C2_2  and  O1_3 
REMARK    2  A    between atoms: O1_3  and  C3_4 
REMARK    3  A    between atoms: C7_10  and  N3_11 
REMARK    4  A    between atoms: N3_11  and  C8_12 
REMARK    5  A    between atoms: C10_14  and  O2_15 
REMARK    6  A    between atoms: O2_15  and  C11_16 
REMARK    7  A    between atoms: C11_16  and  C12_17 
ROOT
HETATM    1  C3  UNL     1      23.736   1.174  52.298  1.00  0.00     0.151 C 
HETATM    2  C4  UNL     1      23.352   1.855  51.230  1.00  0.00     0.089 C 
HETATM    3  C5  UNL     1      24.083   2.908  50.485  1.00  0.00     0.076 A 
HETATM    4  N1  UNL     1      23.223   3.523  49.656  1.00  0.00    -0.241 NA
HETATM    5  C6  UNL     1      23.655   4.520  48.874  1.00  0.00     0.236 A 
HETATM    6  N2  UNL     1      24.929   4.925  48.899  1.00  0.00    -0.224 NA
HETATM    7  C7  UNL     1      25.865   4.380  49.688  1.00  0.00     0.139 A 
HETATM    8  C17 UNL     1      25.400   3.370  50.469  1.00  0.00     0.038 A 
HETATM    9  C18 UNL     1      26.568   2.914  51.213  1.00  0.00     0.018 C 
HETATM   10  C19 UNL     1      26.761   2.382  52.422  1.00  0.00     0.028 C 
HETATM   11  C20 UNL     1      25.898   2.005  53.570  1.00  0.00     0.257 C 
HETATM   12  O3  UNL     1      26.677   1.473  54.586  1.00  0.00    -0.362 OA
HETATM   13  C21 UNL     1      27.095   0.185  54.333  1.00  0.00     0.180 C 
HETATM   14  C22 UNL     1      25.958  -0.815  54.438  1.00  0.00     0.129 C 
HETATM   15  C23 UNL     1      24.818  -0.258  53.669  1.00  0.00     0.230 C 
HETATM   16  O4  UNL     1      23.785  -0.960  53.442  1.00  0.00    -0.273 OA
HETATM   17  N5  UNL     1      24.862   1.094  53.163  1.00  0.00    -0.267 N 
ENDROOT
BRANCH   7  18
HETATM   18  N3  UNL     1      27.192   4.880  49.687  1.00  0.00    -0.351 N 
HETATM   19  H8  UNL     1      27.980   4.970  50.347  1.00  0.00     0.163 HD
BRANCH  18  20
HETATM   20  C8  UNL     1      27.653   5.472  48.446  1.00  0.00     0.212 A 
HETATM   21  C9  UNL     1      27.690   6.962  48.449  1.00  0.00     0.113 A 
HETATM   22  C10 UNL     1      29.019   7.550  48.132  1.00  0.00     0.051 A 
HETATM   23  C15 UNL     1      30.164   6.940  47.862  1.00  0.00     0.051 A 
HETATM   24  C16 UNL     1      30.017   5.492  47.899  1.00  0.00     0.115 A 
HETATM   25  N4  UNL     1      28.944   4.858  48.149  1.00  0.00    -0.276 NA
BRANCH  22  26
HETATM   26  O2  UNL     1      29.012   8.959  48.130  1.00  0.00    -0.355 OA
BRANCH  26  27
HETATM   27  C11 UNL     1      29.173   9.733  49.297  1.00  0.00     0.181 C 
BRANCH  27  28
HETATM   28  C12 UNL     1      30.561  10.287  49.283  1.00  0.00     0.030 A 
HETATM   29  C13 UNL     1      31.105  10.996  48.105  1.00  0.00     0.029 A 
HETATM   30  C14 UNL     1      30.661  11.807  49.265  1.00  0.00     0.089 A 
HETATM   31 CL1  UNL     1      29.139  12.730  49.061  1.00  0.00    -0.125 Cl
ENDBRANCH  27  28
ENDBRANCH  26  27
ENDBRANCH  22  26
ENDBRANCH  18  20
ENDBRANCH   7  18
BRANCH   1  32
HETATM   32  O1  UNL     1      22.725   0.290  52.653  1.00  0.00    -0.336 OA
BRANCH  32  33
HETATM   33  C2  UNL     1      21.358   0.562  52.407  1.00  0.00     0.173 C 
HETATM   34  C1  UNL     1      20.484   0.465  53.612  1.00  0.00     0.034 C 
ENDBRANCH  32  33
ENDBRANCH   1  32
TORSDOF 7
ENDMDL
MODEL 2
REMARK VINA RESULT:      -8.6      4.767      7.780
REMARK  7 active torsions:
REMARK  status: ('A' for Active; 'I' for Inactive)
REMARK    1  A    between atoms: C2_2  and  O1_3 
REMARK    2  A    between atoms: O1_3  and  C3_4 
REMARK    3  A    between atoms: C7_10  and  N3_11 
REMARK    4  A    between atoms: N3_11  and  C8_12 
REMARK    5  A    between atoms: C10_14  and  O2_15 
REMARK    6  A    between atoms: O2_15  and  C11_16 
REMARK    7  A    between atoms: C11_16  and  C12_17 
ROOT
HETATM    1  C3  UNL     1      25.651   0.137  53.002  1.00  0.00     0.151 C 
HETATM    2  C4  UNL     1      26.330   1.047  52.320  1.00  0.00     0.089 C 
HETATM    3  C5  UNL     1      25.819   2.213  51.560  1.00  0.00     0.076 A 
HETATM    4  N1  UNL     1      26.813   2.697  50.796  1.00  0.00    -0.241 NA
HETATM    5  C6  UNL     1      26.588   3.758  50.012  1.00  0.00     0.236 A 
HETATM    6  N2  UNL     1      25.391   4.352  49.967  1.00  0.00    -0.224 NA
HETATM    7  C7  UNL     1      24.336   3.950  50.687  1.00  0.00     0.139 A 
HETATM    8  C17 UNL     1      24.591   2.873  51.475  1.00  0.00     0.038 A 
HETATM    9  C18 UNL     1      23.338   2.626  52.176  1.00  0.00     0.018 C 
HETATM   10  C19 UNL     1      22.728   1.538  52.653  1.00  0.00     0.028 C 
HETATM   11  C20 UNL     1      23.027   0.083  52.700  1.00  0.00     0.257 C 
HETATM   12  O3  UNL     1      22.001  -0.584  53.349  1.00  0.00    -0.362 OA
HETATM   13  C21 UNL     1      22.025  -0.422  54.716  1.00  0.00     0.180 C 
HETATM   14  C22 UNL     1      23.169  -1.184  55.361  1.00  0.00     0.129 C 
HETATM   15  C23 UNL     1      24.389  -0.883  54.572  1.00  0.00     0.230 C 
HETATM   16  O4  UNL     1      25.533  -1.251  54.982  1.00  0.00    -0.273 OA
HETATM   17  N5  UNL     1      24.300  -0.165  53.322  1.00  0.00    -0.267 N 
ENDROOT
BRANCH   7  18
HETATM   18  N3  UNL     1      23.085   4.607  50.567  1.00  0.00    -0.351 N 
HETATM   19  H8  UNL     1      22.444   5.154  51.161  1.00  0.00     0.163 HD
BRANCH  18  20
HETATM   20  C8  UNL     1      22.439   4.522  49.271  1.00  0.00     0.212 A 
HETATM   21  C9  UNL     1      21.565   3.326  49.095  1.00  0.00     0.113 A 
HETATM   22  C10 UNL     1      20.157   3.636  48.732  1.00  0.00     0.051 A 
HETATM   23  C15 UNL     1      19.574   4.813  48.557  1.00  0.00     0.051 A 
HETATM   24  C16 UNL     1      20.512   5.907  48.766  1.00  0.00     0.115 A 
HETATM   25  N4  UNL     1      21.739   5.788  49.073  1.00  0.00    -0.276 NA
BRANCH  22  26
HETATM   26  O2  UNL     1      19.366   2.483  48.559  1.00  0.00    -0.355 OA
BRANCH  26  27
HETATM   27  C11 UNL     1      18.242   2.191  49.359  1.00  0.00     0.181 C 
BRANCH  27  28
HETATM   28  C12 UNL     1      18.534   0.931  50.107  1.00  0.00     0.030 A 
HETATM   29  C13 UNL     1      19.910   0.561  50.502  1.00  0.00     0.029 A 
HETATM   30  C14 UNL     1      19.010   1.114  51.543  1.00  0.00     0.089 A 
HETATM   31 CL1  UNL     1      19.352   2.786  52.089  1.00  0.00    -0.125 Cl
ENDBRANCH  27  28
ENDBRANCH  26  27
ENDBRANCH  22  26
ENDBRANCH  18  20
ENDBRANCH   7  18
BRANCH   1  32
HETATM   32  O1  UNL     1      26.547  -0.771  53.552  1.00  0.00    -0.336 OA
BRANCH  32  33
HETATM   33  C2  UNL     1      27.871  -0.915  53.072  1.00  0.00     0.173 C 
HETATM   34  C1  UNL     1      28.928  -0.557  54.062  1.00  0.00     0.034 C 
ENDBRANCH  32  33
ENDBRANCH   1  32
TORSDOF 7
ENDMDL
MODEL 3
REMARK VINA RESULT:      -8.5      2.470      4.674
REMARK  7 active torsions:
REMARK  status: ('A' for Active; 'I' for Inactive)
REMARK    1  A    between atoms: C2_2  and  O1_3 
REMARK    2  A    between atoms: O1_3  and  C3_4 
REMARK    3  A    between atoms: C7_10  and  N3_11 
REMARK    4  A    between atoms: N3_11  and  C8_12 
REMARK    5  A    between atoms: C10_14  and  O2_15 
REMARK    6  A    between atoms: O2_15  and  C11_16 
REMARK    7  A    between atoms: C11_16  and  C12_17 
ROOT
HETATM    1  C3  UNL     1      25.694   0.165  53.059  1.00  0.00     0.151 C 
HETATM    2  C4  UNL     1      26.303   1.103  52.351  1.00  0.00     0.089 C 
HETATM    3  C5  UNL     1      25.707   2.213  51.568  1.00  0.00     0.076 A 
HETATM    4  N1  UNL     1      26.660   2.746  50.785  1.00  0.00    -0.241 NA
HETATM    5  C6  UNL     1      26.357   3.770  49.978  1.00  0.00     0.236 A 
HETATM    6  N2  UNL     1      25.121   4.278  49.929  1.00  0.00    -0.224 NA
HETATM    7  C7  UNL     1      24.101   3.820  50.666  1.00  0.00     0.139 A 
HETATM    8  C17 UNL     1      24.436   2.783  51.477  1.00  0.00     0.038 A 
HETATM    9  C18 UNL     1      23.207   2.465  52.193  1.00  0.00     0.018 C 
HETATM   10  C19 UNL     1      22.678   1.349  52.700  1.00  0.00     0.028 C 
HETATM   11  C20 UNL     1      23.078  -0.080  52.778  1.00  0.00     0.257 C 
HETATM   12  O3  UNL     1      22.105  -0.802  53.450  1.00  0.00    -0.362 OA
HETATM   13  C21 UNL     1      22.126  -0.606  54.814  1.00  0.00     0.180 C 
HETATM   14  C22 UNL     1      23.324  -1.270  55.467  1.00  0.00     0.129 C 
HETATM   15  C23 UNL     1      24.516  -0.904  54.662  1.00  0.00     0.230 C 
HETATM   16  O4  UNL     1      25.685  -1.181  55.072  1.00  0.00    -0.273 OA
HETATM   17  N5  UNL     1      24.369  -0.224  53.396  1.00  0.00    -0.267 N 
ENDROOT
BRANCH   7  18
HETATM   18  N3  UNL     1      22.807   4.385  50.540  1.00  0.00    -0.351 N 
HETATM   19  H8  UNL     1      21.887   4.122  50.155  1.00  0.00     0.163 HD
BRANCH  18  20
HETATM   20  C8  UNL     1      22.640   5.728  51.060  1.00  0.00     0.212 A 
HETATM   21  C9  UNL     1      23.894   6.535  51.102  1.00  0.00     0.113 A 
HETATM   22  C10 UNL     1      23.828   7.822  50.361  1.00  0.00     0.051 A 
HETATM   23  C15 UNL     1      22.826   8.341  49.666  1.00  0.00     0.051 A 
HETATM   24  C16 UNL     1      21.660   7.468  49.681  1.00  0.00     0.115 A 
HETATM   25  N4  UNL     1      21.576   6.348  50.276  1.00  0.00    -0.276 NA
BRANCH  22  26
HETATM   26  O2  UNL     1      25.025   8.562  50.435  1.00  0.00    -0.355 OA
BRANCH  26  27
HETATM   27  C11 UNL     1      26.287   8.021  50.116  1.00  0.00     0.181 C 
BRANCH  27  28
HETATM   28  C12 UNL     1      27.056   9.071  49.381  1.00  0.00     0.030 A 
HETATM   29  C13 UNL     1      28.521   9.207  49.526  1.00  0.00     0.029 A 
HETATM   30  C14 UNL     1      27.998   8.558  48.299  1.00  0.00     0.089 A 
HETATM   31 CL1  UNL     1      28.222   6.785  48.175  1.00  0.00    -0.125 Cl
ENDBRANCH  27  28
ENDBRANCH  26  27
ENDBRANCH  22  26
ENDBRANCH  18  20
ENDBRANCH   7  18
BRANCH   1  32
HETATM   32  O1  UNL     1      26.654  -0.665  53.623  1.00  0.00    -0.336 OA
BRANCH  32  33
HETATM   33  C2  UNL     1      27.882  -0.952  52.979  1.00  0.00     0.173 C 
HETATM   34  C1  UNL     1      29.085  -0.798  53.848  1.00  0.00     0.034 C 
ENDBRANCH  32  33
ENDBRANCH   1  32
TORSDOF 7
ENDMDL
MODEL 4
REMARK VINA RESULT:      -8.3      4.718      8.652
REMARK  7 active torsions:
REMARK  status: ('A' for Active; 'I' for Inactive)
REMARK    1  A    between atoms: C2_2  and  O1_3 
REMARK    2  A    between atoms: O1_3  and  C3_4 
REMARK    3  A    between atoms: C7_10  and  N3_11 
REMARK    4  A    between atoms: N3_11  and  C8_12 
REMARK    5  A    between atoms: C10_14  and  O2_15 
REMARK    6  A    between atoms: O2_15  and  C11_16 
REMARK    7  A    between atoms: C11_16  and  C12_17 
ROOT
HETATM    1  C3  UNL     1      25.470   1.279  52.969  1.00  0.00     0.151 C 
HETATM    2  C4  UNL     1      24.799   0.321  53.588  1.00  0.00     0.089 C 
HETATM    3  C5  UNL     1      23.375  -0.064  53.437  1.00  0.00     0.076 A 
HETATM    4  N1  UNL     1      23.043  -0.885  54.448  1.00  0.00    -0.241 NA
HETATM    5  C6  UNL     1      21.797  -1.366  54.528  1.00  0.00     0.236 A 
HETATM    6  N2  UNL     1      20.866  -1.047  53.622  1.00  0.00    -0.224 NA
HETATM    7  C7  UNL     1      21.092  -0.239  52.579  1.00  0.00     0.139 A 
HETATM    8  C17 UNL     1      22.365   0.234  52.521  1.00  0.00     0.038 A 
HETATM    9  C18 UNL     1      22.397   1.056  51.317  1.00  0.00     0.018 C 
HETATM   10  C19 UNL     1      23.067   2.149  50.945  1.00  0.00     0.028 C 
HETATM   11  C20 UNL     1      24.086   3.036  51.563  1.00  0.00     0.257 C 
HETATM   12  O3  UNL     1      24.433   4.040  50.673  1.00  0.00    -0.362 OA
HETATM   13  C21 UNL     1      25.262   3.608  49.662  1.00  0.00     0.180 C 
HETATM   14  C22 UNL     1      26.666   3.317  50.160  1.00  0.00     0.129 C 
HETATM   15  C23 UNL     1      26.530   2.496  51.388  1.00  0.00     0.230 C 
HETATM   16  O4  UNL     1      27.547   1.962  51.928  1.00  0.00    -0.273 OA
HETATM   17  N5  UNL     1      25.235   2.286  51.994  1.00  0.00    -0.267 N 
ENDROOT
BRANCH   7  18
HETATM   18  N3  UNL     1      20.050   0.084  51.674  1.00  0.00    -0.351 N 
HETATM   19  H8  UNL     1      19.799  -0.102  50.691  1.00  0.00     0.163 HD
BRANCH  18  20
HETATM   20  C8  UNL     1      18.994   0.934  52.189  1.00  0.00     0.212 A 
HETATM   21  C9  UNL     1      19.191   2.389  51.931  1.00  0.00     0.113 A 
HETATM   22  C10 UNL     1      18.077   3.045  51.196  1.00  0.00     0.051 A 
HETATM   23  C15 UNL     1      16.952   2.520  50.733  1.00  0.00     0.051 A 
HETATM   24  C16 UNL     1      16.870   1.096  51.029  1.00  0.00     0.115 A 
HETATM   25  N4  UNL     1      17.741   0.413  51.651  1.00  0.00    -0.276 NA
BRANCH  22  26
HETATM   26  O2  UNL     1      18.293   4.421  50.983  1.00  0.00    -0.355 OA
BRANCH  26  27
HETATM   27  C11 UNL     1      18.485   4.983  49.704  1.00  0.00     0.181 C 
BRANCH  27  28
HETATM   28  C12 UNL     1      19.778   5.732  49.730  1.00  0.00     0.030 A 
HETATM   29  C13 UNL     1      20.935   5.261  50.521  1.00  0.00     0.029 A 
HETATM   30  C14 UNL     1      20.954   5.035  49.056  1.00  0.00     0.089 A 
HETATM   31 CL1  UNL     1      20.705   3.349  48.503  1.00  0.00    -0.125 Cl
ENDBRANCH  27  28
ENDBRANCH  26  27
ENDBRANCH  22  26
ENDBRANCH  18  20
ENDBRANCH   7  18
BRANCH   1  32
HETATM   32  O1  UNL     1      26.782   1.274  53.426  1.00  0.00    -0.336 OA
BRANCH  32  33
HETATM   33  C2  UNL     1      27.178   0.567  54.587  1.00  0.00     0.173 C 
HETATM   34  C1  UNL     1      28.625   0.207  54.626  1.00  0.00     0.034 C 
ENDBRANCH  32  33
ENDBRANCH   1  32
TORSDOF 7
ENDMDL
MODEL 5
REMARK VINA RESULT:      -8.3      5.867     12.043
REMARK  7 active torsions:
REMARK  status: ('A' for Active; 'I' for Inactive)
REMARK    1  A    between atoms: C2_2  and  O1_3 
REMARK    2  A    between atoms: O1_3  and  C3_4 
REMARK    3  A    between atoms: C7_10  and  N3_11 
REMARK    4  A    between atoms: N3_11  and  C8_12 
REMARK    5  A    between atoms: C10_14  and  O2_15 
REMARK    6  A    between atoms: O2_15  and  C11_16 
REMARK    7  A    between atoms: C11_16  and  C12_17 
ROOT
HETATM    1  C3  UNL     1      25.922   1.246  53.124  1.00  0.00     0.151 C 
HETATM    2  C4  UNL     1      25.507   0.191  53.809  1.00  0.00     0.089 C 
HETATM    3  C5  UNL     1      24.122  -0.206  54.158  1.00  0.00     0.076 A 
HETATM    4  N1  UNL     1      24.173  -1.170  55.091  1.00  0.00    -0.241 NA
HETATM    5  C6  UNL     1      23.036  -1.691  55.569  1.00  0.00     0.236 A 
HETATM    6  N2  UNL     1      21.842  -1.271  55.140  1.00  0.00    -0.224 NA
HETATM    7  C7  UNL     1      21.680  -0.316  54.214  1.00  0.00     0.139 A 
HETATM    8  C17 UNL     1      22.849   0.193  53.745  1.00  0.00     0.038 A 
HETATM    9  C18 UNL     1      22.447   1.179  52.749  1.00  0.00     0.018 C 
HETATM   10  C19 UNL     1      22.959   2.330  52.309  1.00  0.00     0.028 C 
HETATM   11  C20 UNL     1      24.161   3.148  52.613  1.00  0.00     0.257 C 
HETATM   12  O3  UNL     1      24.175   4.277  51.810  1.00  0.00    -0.362 OA
HETATM   13  C21 UNL     1      24.545   4.014  50.509  1.00  0.00     0.180 C 
HETATM   14  C22 UNL     1      26.024   3.693  50.391  1.00  0.00     0.129 C 
HETATM   15  C23 UNL     1      26.339   2.702  51.449  1.00  0.00     0.230 C 
HETATM   16  O4  UNL     1      27.469   2.124  51.481  1.00  0.00    -0.273 OA
HETATM   17  N5  UNL     1      25.365   2.374  52.464  1.00  0.00    -0.267 N 
ENDROOT
BRANCH   7  18
HETATM   18  N3  UNL     1      20.382   0.104  53.828  1.00  0.00    -0.351 N 
HETATM   19  H8  UNL     1      19.741   0.890  54.015  1.00  0.00     0.163 HD
BRANCH  18  20
HETATM   20  C8  UNL     1      19.667  -0.774  52.921  1.00  0.00     0.212 A 
HETATM   21  C9  UNL     1      19.117  -2.004  53.559  1.00  0.00     0.113 A 
HETATM   22  C10 UNL     1      17.650  -2.183  53.395  1.00  0.00     0.051 A 
HETATM   23  C15 UNL     1      16.772  -1.405  52.779  1.00  0.00     0.051 A 
HETATM   24  C16 UNL     1      17.413  -0.230  52.206  1.00  0.00     0.115 A 
HETATM   25  N4  UNL     1      18.653   0.045  52.265  1.00  0.00    -0.276 NA
BRANCH  22  26
HETATM   26  O2  UNL     1      17.169  -3.363  53.998  1.00  0.00    -0.355 OA
BRANCH  26  27
HETATM   27  C11 UNL     1      16.983  -4.569  53.292  1.00  0.00     0.181 C 
BRANCH  27  28
HETATM   28  C12 UNL     1      15.822  -5.280  53.908  1.00  0.00     0.030 A 
HETATM   29  C13 UNL     1      14.485  -4.654  53.998  1.00  0.00     0.029 A 
HETATM   30  C14 UNL     1      14.709  -5.676  52.946  1.00  0.00     0.089 A 
HETATM   31 CL1  UNL     1      14.825  -5.077  51.261  1.00  0.00    -0.125 Cl
ENDBRANCH  27  28
ENDBRANCH  26  27
ENDBRANCH  22  26
ENDBRANCH  18  20
ENDBRANCH   7  18
BRANCH   1  32
HETATM   32  O1  UNL     1      27.309   1.210  53.044  1.00  0.00    -0.336 OA
BRANCH  32  33
HETATM   33  C2  UNL     1      28.113   0.635  54.058  1.00  0.00     0.173 C 
HETATM   34  C1  UNL     1      29.291  -0.128  53.552  1.00  0.00     0.034 C 
ENDBRANCH  32  33
ENDBRANCH   1  32
TORSDOF 7
ENDMDL
MODEL 6
REMARK VINA RESULT:      -8.1      1.637      2.329
REMARK  7 active torsions:
REMARK  status: ('A' for Active; 'I' for Inactive)
REMARK    1  A    between atoms: C2_2  and  O1_3 
REMARK    2  A    between atoms: O1_3  and  C3_4 
REMARK    3  A    between atoms: C7_10  and  N3_11 
REMARK    4  A    between atoms: N3_11  and  C8_12 
REMARK    5  A    between atoms: C10_14  and  O2_15 
REMARK    6  A    between atoms: O2_15  and  C11_16 
REMARK    7  A    between atoms: C11_16  and  C12_17 
ROOT
HETATM    1  C3  UNL     1      24.619   0.671  53.276  1.00  0.00     0.151 C 
HETATM    2  C4  UNL     1      23.736   0.943  52.328  1.00  0.00     0.089 C 
HETATM    3  C5  UNL     1      23.852   1.889  51.192  1.00  0.00     0.076 A 
HETATM    4  N1  UNL     1      22.635   2.062  50.651  1.00  0.00    -0.241 NA
HETATM    5  C6  UNL     1      22.486   2.882  49.603  1.00  0.00     0.236 A 
HETATM    6  N2  UNL     1      23.526   3.539  49.078  1.00  0.00    -0.224 NA
HETATM    7  C7  UNL     1      24.778   3.437  49.542  1.00  0.00     0.139 A 
HETATM    8  C17 UNL     1      24.901   2.599  50.603  1.00  0.00     0.038 A 
HETATM    9  C18 UNL     1      26.323   2.617  50.924  1.00  0.00     0.018 C 
HETATM   10  C19 UNL     1      27.034   2.482  52.046  1.00  0.00     0.028 C 
HETATM   11  C20 UNL     1      26.727   2.251  53.481  1.00  0.00     0.257 C 
HETATM   12  O3  UNL     1      27.905   2.189  54.207  1.00  0.00    -0.362 OA
HETATM   13  C21 UNL     1      28.581   1.000  54.046  1.00  0.00     0.180 C 
HETATM   14  C22 UNL     1      27.881  -0.153  54.741  1.00  0.00     0.129 C 
HETATM   15  C23 UNL     1      26.447  -0.078  54.370  1.00  0.00     0.230 C 
HETATM   16  O4  UNL     1      25.649  -1.018  54.673  1.00  0.00    -0.273 OA
HETATM   17  N5  UNL     1      25.930   1.066  53.656  1.00  0.00    -0.267 N 
ENDROOT
BRANCH   7  18
HETATM   18  N3  UNL     1      25.829   4.189  48.958  1.00  0.00    -0.351 N 
HETATM   19  H8  UNL     1      26.643   4.026  48.345  1.00  0.00     0.163 HD
BRANCH  18  20
HETATM   20  C8  UNL     1      25.857   5.604  49.274  1.00  0.00     0.212 A 
HETATM   21  C9  UNL     1      27.156   6.276  48.984  1.00  0.00     0.113 A 
HETATM   22  C10 UNL     1      27.060   7.441  48.065  1.00  0.00     0.051 A 
HETATM   23  C15 UNL     1      25.995   7.951  47.465  1.00  0.00     0.051 A 
HETATM   24  C16 UNL     1      24.787   7.213  47.806  1.00  0.00     0.115 A 
HETATM   25  N4  UNL     1      24.723   6.207  48.580  1.00  0.00    -0.276 NA
BRANCH  22  26
HETATM   26  O2  UNL     1      28.304   8.059  47.827  1.00  0.00    -0.355 OA
BRANCH  26  27
HETATM   27  C11 UNL     1      28.990   8.812  48.801  1.00  0.00     0.181 C 
BRANCH  27  28
HETATM   28  C12 UNL     1      30.352   8.215  48.957  1.00  0.00     0.030 A 
HETATM   29  C13 UNL     1      31.132   7.741  47.794  1.00  0.00     0.029 A 
HETATM   30  C14 UNL     1      31.500   9.045  48.397  1.00  0.00     0.089 A 
HETATM   31 CL1  UNL     1      31.076  10.510  47.456  1.00  0.00    -0.125 Cl
ENDBRANCH  27  28
ENDBRANCH  26  27
ENDBRANCH  22  26
ENDBRANCH  18  20
ENDBRANCH   7  18
BRANCH   1  32
HETATM   32  O1  UNL     1      24.078  -0.280  54.132  1.00  0.00    -0.336 OA
BRANCH  32  33
HETATM   33  C2  UNL     1      22.687  -0.376  54.377  1.00  0.00     0.173 C 
HETATM   34  C1  UNL     1      22.199  -1.764  54.626  1.00  0.00     0.034 C 
ENDBRANCH  32  33
ENDBRANCH   1  32
TORSDOF 7
ENDMDL
MODEL 7
REMARK VINA RESULT:      -8.1      2.417      3.159
REMARK  7 active torsions:
REMARK  status: ('A' for Active; 'I' for Inactive)
REMARK    1  A    between atoms: C2_2  and  O1_3 
REMARK    2  A    between atoms: O1_3  and  C3_4 
REMARK    3  A    between atoms: C7_10  and  N3_11 
REMARK    4  A    between atoms: N3_11  and  C8_12 
REMARK    5  A    between atoms: C10_14  and  O2_15 
REMARK    6  A    between atoms: O2_15  and  C11_16 
REMARK    7  A    between atoms: C11_16  and  C12_17 
ROOT
HETATM    1  C3  UNL     1      24.922   0.639  53.324  1.00  0.00     0.151 C 
HETATM    2  C4  UNL     1      24.036   0.885  52.372  1.00  0.00     0.089 C 
HETATM    3  C5  UNL     1      24.133   1.828  51.232  1.00  0.00     0.076 A 
HETATM    4  N1  UNL     1      22.914   1.969  50.686  1.00  0.00    -0.241 NA
HETATM    5  C6  UNL     1      22.749   2.780  49.634  1.00  0.00     0.236 A 
HETATM    6  N2  UNL     1      23.773   3.462  49.111  1.00  0.00    -0.224 NA
HETATM    7  C7  UNL     1      25.026   3.393  49.579  1.00  0.00     0.139 A 
HETATM    8  C17 UNL     1      25.166   2.562  50.645  1.00  0.00     0.038 A 
HETATM    9  C18 UNL     1      26.586   2.617  50.970  1.00  0.00     0.018 C 
HETATM   10  C19 UNL     1      27.295   2.505  52.095  1.00  0.00     0.028 C 
HETATM   11  C20 UNL     1      26.989   2.273  53.530  1.00  0.00     0.257 C 
HETATM   12  O3  UNL     1      28.165   2.243  54.262  1.00  0.00    -0.362 OA
HETATM   13  C21 UNL     1      28.872   1.071  54.107  1.00  0.00     0.180 C 
HETATM   14  C22 UNL     1      28.199  -0.097  54.805  1.00  0.00     0.129 C 
HETATM   15  C23 UNL     1      26.764  -0.059  54.429  1.00  0.00     0.230 C 
HETATM   16  O4  UNL     1      25.989  -1.018  54.732  1.00  0.00    -0.273 OA
HETATM   17  N5  UNL     1      26.222   1.068  53.708  1.00  0.00    -0.267 N 
ENDROOT
BRANCH   7  18
HETATM   18  N3  UNL     1      26.060   4.168  48.996  1.00  0.00    -0.351 N 
HETATM   19  H8  UNL     1      26.895   4.020  48.408  1.00  0.00     0.163 HD
BRANCH  18  20
HETATM   20  C8  UNL     1      26.022   5.593  49.265  1.00  0.00     0.212 A 
HETATM   21  C9  UNL     1      27.118   6.373  48.622  1.00  0.00     0.113 A 
HETATM   22  C10 UNL     1      26.658   7.478  47.741  1.00  0.00     0.051 A 
HETATM   23  C15 UNL     1      25.423   7.855  47.441  1.00  0.00     0.051 A 
HETATM   24  C16 UNL     1      24.436   7.020  48.111  1.00  0.00     0.115 A 
HETATM   25  N4  UNL     1      24.687   6.050  48.893  1.00  0.00    -0.276 NA
BRANCH  22  26
HETATM   26  O2  UNL     1      27.720   8.201  47.163  1.00  0.00    -0.355 OA
BRANCH  26  27
HETATM   27  C11 UNL     1      27.529   9.232  46.221  1.00  0.00     0.181 C 
BRANCH  27  28
HETATM   28  C12 UNL     1      27.729   8.645  44.861  1.00  0.00     0.030 A 
HETATM   29  C13 UNL     1      26.609   8.488  43.909  1.00  0.00     0.029 A 
HETATM   30  C14 UNL     1      27.553   9.611  43.696  1.00  0.00     0.089 A 
HETATM   31 CL1  UNL     1      26.942  11.253  44.073  1.00  0.00    -0.125 Cl
ENDBRANCH  27  28
ENDBRANCH  26  27
ENDBRANCH  22  26
ENDBRANCH  18  20
ENDBRANCH   7  18
BRANCH   1  32
HETATM   32  O1  UNL     1      24.402  -0.322  54.182  1.00  0.00    -0.336 OA
BRANCH  32  33
HETATM   33  C2  UNL     1      23.047  -0.730  54.132  1.00  0.00     0.173 C 
HETATM   34  C1  UNL     1      22.582  -1.475  55.338  1.00  0.00     0.034 C 
ENDBRANCH  32  33
ENDBRANCH   1  32
TORSDOF 7
ENDMDL
MODEL 8
REMARK VINA RESULT:      -8.0      5.771     11.432
REMARK  7 active torsions:
REMARK  status: ('A' for Active; 'I' for Inactive)
REMARK    1  A    between atoms: C2_2  and  O1_3 
REMARK    2  A    between atoms: O1_3  and  C3_4 
REMARK    3  A    between atoms: C7_10  and  N3_11 
REMARK    4  A    between atoms: N3_11  and  C8_12 
REMARK    5  A    between atoms: C10_14  and  O2_15 
REMARK    6  A    between atoms: O2_15  and  C11_16 
REMARK    7  A    between atoms: C11_16  and  C12_17 
ROOT
HETATM    1  C3  UNL     1      25.416   1.242  52.814  1.00  0.00     0.151 C 
HETATM    2  C4  UNL     1      24.809   0.226  53.406  1.00  0.00     0.089 C 
HETATM    3  C5  UNL     1      23.357  -0.043  53.537  1.00  0.00     0.076 A 
HETATM    4  N1  UNL     1      23.180  -1.016  54.447  1.00  0.00    -0.241 NA
HETATM    5  C6  UNL     1      21.942  -1.432  54.740  1.00  0.00     0.236 A 
HETATM    6  N2  UNL     1      20.868  -0.899  54.147  1.00  0.00    -0.224 NA
HETATM    7  C7  UNL     1      20.934   0.074  53.229  1.00  0.00     0.139 A 
HETATM    8  C17 UNL     1      22.202   0.476  52.950  1.00  0.00     0.038 A 
HETATM    9  C18 UNL     1      22.044   1.503  51.927  1.00  0.00     0.018 C 
HETATM   10  C19 UNL     1      22.719   2.605  51.592  1.00  0.00     0.028 C 
HETATM   11  C20 UNL     1      23.931   3.304  52.089  1.00  0.00     0.257 C 
HETATM   12  O3  UNL     1      24.168   4.434  51.322  1.00  0.00    -0.362 OA
HETATM   13  C21 UNL     1      24.703   4.148  50.085  1.00  0.00     0.180 C 
HETATM   14  C22 UNL     1      26.148   3.691  50.180  1.00  0.00     0.129 C 
HETATM   15  C23 UNL     1      26.209   2.667  51.251  1.00  0.00     0.230 C 
HETATM   16  O4  UNL     1      27.264   1.986  51.437  1.00  0.00    -0.273 OA
HETATM   17  N5  UNL     1      25.069   2.423  52.104  1.00  0.00    -0.267 N 
ENDROOT
BRANCH   7  18
HETATM   18  N3  UNL     1      19.752   0.617  52.664  1.00  0.00    -0.351 N 
HETATM   19  H8  UNL     1      19.262   1.524  52.632  1.00  0.00     0.163 HD
BRANCH  18  20
HETATM   20  C8  UNL     1      18.921  -0.302  51.911  1.00  0.00     0.212 A 
HETATM   21  C9  UNL     1      17.668  -0.713  52.606  1.00  0.00     0.113 A 
HETATM   22  C10 UNL     1      16.419  -0.436  51.847  1.00  0.00     0.051 A 
HETATM   23  C15 UNL     1      16.267   0.129  50.658  1.00  0.00     0.051 A 
HETATM   24  C16 UNL     1      17.550   0.501  50.078  1.00  0.00     0.115 A 
HETATM   25  N4  UNL     1      18.689   0.319  50.611  1.00  0.00    -0.276 NA
BRANCH  22  26
HETATM   26  O2  UNL     1      15.257  -0.850  52.528  1.00  0.00    -0.355 OA
BRANCH  26  27
HETATM   27  C11 UNL     1      13.990  -0.271  52.314  1.00  0.00     0.181 C 
BRANCH  27  28
HETATM   28  C12 UNL     1      13.744   0.700  53.423  1.00  0.00     0.030 A 
HETATM   29  C13 UNL     1      12.495   1.487  53.507  1.00  0.00     0.029 A 
HETATM   30  C14 UNL     1      12.642   0.313  54.402  1.00  0.00     0.089 A 
HETATM   31 CL1  UNL     1      11.654  -1.127  54.002  1.00  0.00    -0.125 Cl
ENDBRANCH  27  28
ENDBRANCH  26  27
ENDBRANCH  22  26
ENDBRANCH  18  20
ENDBRANCH   7  18
BRANCH   1  32
HETATM   32  O1  UNL     1      26.790   1.078  52.939  1.00  0.00    -0.336 OA
BRANCH  32  33
HETATM   33  C2  UNL     1      27.367   0.241  53.924  1.00  0.00     0.173 C 
HETATM   34  C1  UNL     1      28.638   0.762  54.509  1.00  0.00     0.034 C 
ENDBRANCH  32  33
ENDBRANCH   1  32
TORSDOF 7
ENDMDL
MODEL 9
REMARK VINA RESULT:      -7.8      3.900      5.238
REMARK  7 active torsions:
REMARK  status: ('A' for Active; 'I' for Inactive)
REMARK    1  A    between atoms: C2_2  and  O1_3 
REMARK    2  A    between atoms: O1_3  and  C3_4 
REMARK    3  A    between atoms: C7_10  and  N3_11 
REMARK    4  A    between atoms: N3_11  and  C8_12 
REMARK    5  A    between atoms: C10_14  and  O2_15 
REMARK    6  A    between atoms: O2_15  and  C11_16 
REMARK    7  A    between atoms: C11_16  and  C12_17 
ROOT
HETATM    1  C3  UNL     1      24.755   0.616  53.159  1.00  0.00     0.151 C 
HETATM    2  C4  UNL     1      23.796   0.907  52.294  1.00  0.00     0.089 C 
HETATM    3  C5  UNL     1      23.788   1.934  51.224  1.00  0.00     0.076 A 
HETATM    4  N1  UNL     1      22.529   2.082  50.779  1.00  0.00    -0.241 NA
HETATM    5  C6  UNL     1      22.270   2.963  49.806  1.00  0.00     0.236 A 
HETATM    6  N2  UNL     1      23.238   3.708  49.262  1.00  0.00    -0.224 NA
HETATM    7  C7  UNL     1      24.524   3.638  49.632  1.00  0.00     0.139 A 
HETATM    8  C17 UNL     1      24.759   2.735  50.620  1.00  0.00     0.038 A 
HETATM    9  C18 UNL     1      26.198   2.804  50.845  1.00  0.00     0.018 C 
HETATM   10  C19 UNL     1      26.991   2.629  51.904  1.00  0.00     0.028 C 
HETATM   11  C20 UNL     1      26.797   2.284  53.336  1.00  0.00     0.257 C 
HETATM   12  O3  UNL     1      28.024   2.232  53.976  1.00  0.00    -0.362 OA
HETATM   13  C21 UNL     1      28.742   1.093  53.684  1.00  0.00     0.180 C 
HETATM   14  C22 UNL     1      28.147  -0.140  54.340  1.00  0.00     0.129 C 
HETATM   15  C23 UNL     1      26.688  -0.112  54.071  1.00  0.00     0.230 C 
HETATM   16  O4  UNL     1      25.957  -1.110  54.358  1.00  0.00    -0.273 OA
HETATM   17  N5  UNL     1      26.070   1.050  53.478  1.00  0.00    -0.267 N 
ENDROOT
BRANCH   7  18
HETATM   18  N3  UNL     1      25.495   4.481  49.035  1.00  0.00    -0.351 N 
HETATM   19  H8  UNL     1      26.378   4.386  48.511  1.00  0.00     0.163 HD
BRANCH  18  20
HETATM   20  C8  UNL     1      25.272   5.908  49.166  1.00  0.00     0.212 A 
HETATM   21  C9  UNL     1      24.095   6.422  48.410  1.00  0.00     0.113 A 
HETATM   22  C10 UNL     1      23.090   7.138  49.239  1.00  0.00     0.051 A 
HETATM   23  C15 UNL     1      23.088   7.370  50.543  1.00  0.00     0.051 A 
HETATM   24  C16 UNL     1      24.273   6.815  51.183  1.00  0.00     0.115 A 
HETATM   25  N4  UNL     1      25.211   6.188  50.598  1.00  0.00    -0.276 NA
BRANCH  22  26
HETATM   26  O2  UNL     1      22.000   7.622  48.487  1.00  0.00    -0.355 OA
BRANCH  26  27
HETATM   27  C11 UNL     1      20.787   6.918  48.348  1.00  0.00     0.181 C 
BRANCH  27  28
HETATM   28  C12 UNL     1      19.755   7.631  49.161  1.00  0.00     0.030 A 
HETATM   29  C13 UNL     1      19.852   9.078  49.446  1.00  0.00     0.029 A 
HETATM   30  C14 UNL     1      18.899   8.636  48.400  1.00  0.00     0.089 A 
HETATM   31 CL1  UNL     1      19.354   8.987  46.703  1.00  0.00    -0.125 Cl
ENDBRANCH  27  28
ENDBRANCH  26  27
ENDBRANCH  22  26
ENDBRANCH  18  20
ENDBRANCH   7  18
BRANCH   1  32
HETATM   32  O1  UNL     1      24.320  -0.419  53.978  1.00  0.00    -0.336 OA
BRANCH  32  33
HETATM   33  C2  UNL     1      22.952  -0.761  54.105  1.00  0.00     0.173 C 
HETATM   34  C1  UNL     1      22.626  -1.552  55.327  1.00  0.00     0.034 C 
ENDBRANCH  32  33
ENDBRANCH   1  32
TORSDOF 7
ENDMDL
