MODEL 1
REMARK VINA RESULT:      -7.8      0.000      0.000
REMARK  8 active torsions:
REMARK  status: ('A' for Active; 'I' for Inactive)
REMARK    1  A    between atoms: C2_2  and  C3_3 
REMARK    2  A    between atoms: C3_3  and  N1_4 
REMARK    3  A    between atoms: N1_4  and  C4_5 
REMARK    4  A    between atoms: C11_14  and  C12_15 
REMARK    5  A    between atoms: N4_16  and  C13_17 
REMARK    6  A    between atoms: C13_17  and  N5_18 
REMARK    7  A    between atoms: C14_19  and  N6_20 
REMARK    8  A    between atoms: N6_20  and  C15_21 
ROOT
HETATM    1  C4  UNL     1      24.734   0.884  52.421  1.00  0.00     0.047 C 
HETATM    2  C5  UNL     1      24.568  -0.377  53.181  1.00  0.00     0.062 C 
HETATM    3  C6  UNL     1      25.908  -0.887  53.709  1.00  0.00     0.036 C 
HETATM    4  C7  UNL     1      26.490   0.055  54.698  1.00  0.00     0.270 C 
HETATM    5  N2  UNL     1      27.872  -0.199  55.039  1.00  0.00     0.088 N 
HETATM    6  C8  UNL     1      28.727   0.031  53.866  1.00  0.00     0.316 C 
HETATM    7  C9  UNL     1      28.720   1.434  53.411  1.00  0.00     0.119 C 
HETATM    8  N3  UNL     1      27.603   1.305  52.840  1.00  0.00    -0.274 NA
HETATM    9  C10 UNL     1      26.878   2.232  52.144  1.00  0.00     0.130 C 
HETATM   10  C11 UNL     1      25.592   1.969  51.997  1.00  0.00     0.023 C 
HETATM   11  H12 UNL     1      28.154   0.387  55.834  1.00  0.00     0.316 HD
ENDROOT
BRANCH  10  12
HETATM   12  C12 UNL     1      24.959   3.043  51.242  1.00  0.00     0.127 C 
HETATM   13  N4  UNL     1      25.501   3.490  50.180  1.00  0.00    -0.279 NA
BRANCH  13  14
HETATM   14  C13 UNL     1      25.014   4.532  49.329  1.00  0.00     0.298 C 
BRANCH  14  15
HETATM   15  N5  UNL     1      25.940   5.637  49.178  1.00  0.00    -0.263 NA
HETATM   16  C14 UNL     1      27.148   5.321  48.772  1.00  0.00     0.203 C 
BRANCH  16  17
HETATM   17  N6  UNL     1      28.017   6.442  48.640  1.00  0.00    -0.351 N 
HETATM   18  H21 UNL     1      27.723   7.395  49.017  1.00  0.00     0.166 HD
BRANCH  17  19
HETATM   19  C15 UNL     1      29.290   6.390  48.015  1.00  0.00     0.034 A 
HETATM   20  C16 UNL     1      29.773   7.461  47.252  1.00  0.00     0.029 A 
HETATM   21  C17 UNL     1      31.002   7.441  46.629  1.00  0.00     0.004 A 
HETATM   22  C18 UNL     1      31.824   6.343  46.733  1.00  0.00     0.024 A 
HETATM   23  C19 UNL     1      31.389   5.261  47.477  1.00  0.00     0.036 A 
HETATM   24 CL1  UNL     1      32.426   3.862  47.613  1.00  0.00    -0.084 Cl
HETATM   25  C20 UNL     1      30.155   5.327  48.081  1.00  0.00     0.053 A 
ENDBRANCH  17  19
ENDBRANCH  16  17
ENDBRANCH  14  15
ENDBRANCH  13  14
ENDBRANCH  10  12
BRANCH   1  26
HETATM   26  N1  UNL     1      23.487   1.031  52.013  1.00  0.00    -0.265 NA
BRANCH  26  27
HETATM   27  C3  UNL     1      22.428   0.848  52.925  1.00  0.00     0.112 C 
BRANCH  27  28
HETATM   28  C2  UNL     1      21.348   0.734  53.647  1.00  0.00    -0.012 C 
HETATM   29  C1  UNL     1      21.303  -0.289  54.747  1.00  0.00     0.037 C 
ENDBRANCH  27  28
ENDBRANCH  26  27
ENDBRANCH   1  26
TORSDOF 8
ENDMDL
MODEL 2
REMARK VINA RESULT:      -7.7      1.676      2.220
REMARK  8 active torsions:
REMARK  status: ('A' for Active; 'I' for Inactive)
REMARK    1  A    between atoms: C2_2  and  C3_3 
REMARK    2  A    between atoms: C3_3  and  N1_4 
REMARK    3  A    between atoms: N1_4  and  C4_5 
REMARK    4  A    between atoms: C11_14  and  C12_15 
REMARK    5  A    between atoms: N4_16  and  C13_17 
REMARK    6  A    between atoms: C13_17  and  N5_18 
REMARK    7  A    between atoms: C14_19  and  N6_20 
REMARK    8  A    between atoms: N6_20  and  C15_21 
ROOT
HETATM    1  C4  UNL     1      24.600   0.744  52.676  1.00  0.00     0.047 C 
HETATM    2  C5  UNL     1      24.635  -0.514  53.458  1.00  0.00     0.062 C 
HETATM    3  C6  UNL     1      26.054  -0.842  53.920  1.00  0.00     0.036 C 
HETATM    4  C7  UNL     1      26.561   0.183  54.866  1.00  0.00     0.270 C 
HETATM    5  N2  UNL     1      27.979   0.112  55.136  1.00  0.00     0.088 N 
HETATM    6  C8  UNL     1      28.737   0.427  53.917  1.00  0.00     0.316 C 
HETATM    7  C9  UNL     1      28.530   1.809  53.447  1.00  0.00     0.119 C 
HETATM    8  N3  UNL     1      27.410   1.530  52.938  1.00  0.00    -0.274 NA
HETATM    9  C10 UNL     1      26.539   2.345  52.271  1.00  0.00     0.130 C 
HETATM   10  C11 UNL     1      25.291   1.920  52.195  1.00  0.00     0.023 C 
HETATM   11  H12 UNL     1      28.226   0.743  55.909  1.00  0.00     0.316 HD
ENDROOT
BRANCH  10  12
HETATM   12  C12 UNL     1      24.489   2.892  51.462  1.00  0.00     0.127 C 
HETATM   13  N4  UNL     1      24.119   3.975  52.021  1.00  0.00    -0.279 NA
BRANCH  13  14
HETATM   14  C13 UNL     1      23.337   5.025  51.447  1.00  0.00     0.298 C 
BRANCH  14  15
HETATM   15  N5  UNL     1      23.919   5.590  50.245  1.00  0.00    -0.263 NA
HETATM   16  C14 UNL     1      24.920   6.419  50.428  1.00  0.00     0.203 C 
BRANCH  16  17
HETATM   17  N6  UNL     1      25.455   6.944  49.216  1.00  0.00    -0.351 N 
HETATM   18  H21 UNL     1      24.829   7.489  48.546  1.00  0.00     0.166 HD
BRANCH  17  19
HETATM   19  C15 UNL     1      26.806   6.787  48.812  1.00  0.00     0.034 A 
HETATM   20  C16 UNL     1      27.370   5.518  48.628  1.00  0.00     0.029 A 
HETATM   21  C17 UNL     1      28.678   5.329  48.241  1.00  0.00     0.004 A 
HETATM   22  C18 UNL     1      29.505   6.405  48.014  1.00  0.00     0.024 A 
HETATM   23  C19 UNL     1      28.993   7.678  48.183  1.00  0.00     0.036 A 
HETATM   24 CL1  UNL     1      30.035   9.050  47.899  1.00  0.00    -0.084 Cl
HETATM   25  C20 UNL     1      27.680   7.816  48.570  1.00  0.00     0.053 A 
ENDBRANCH  17  19
ENDBRANCH  16  17
ENDBRANCH  14  15
ENDBRANCH  13  14
ENDBRANCH  10  12
BRANCH   1  26
HETATM   26  N1  UNL     1      23.325   0.725  52.333  1.00  0.00    -0.265 NA
BRANCH  26  27
HETATM   27  C3  UNL     1      22.341   0.503  53.317  1.00  0.00     0.112 C 
BRANCH  27  28
HETATM   28  C2  UNL     1      21.369   0.182  54.124  1.00  0.00    -0.012 C 
HETATM   29  C1  UNL     1      21.204  -1.252  54.544  1.00  0.00     0.037 C 
ENDBRANCH  27  28
ENDBRANCH  26  27
ENDBRANCH   1  26
TORSDOF 8
ENDMDL
MODEL 3
REMARK VINA RESULT:      -7.5      3.181      9.496
REMARK  8 active torsions:
REMARK  status: ('A' for Active; 'I' for Inactive)
REMARK    1  A    between atoms: C2_2  and  C3_3 
REMARK    2  A    between atoms: C3_3  and  N1_4 
REMARK    3  A    between atoms: N1_4  and  C4_5 
REMARK    4  A    between atoms: C11_14  and  C12_15 
REMARK    5  A    between atoms: N4_16  and  C13_17 
REMARK    6  A    between atoms: C13_17  and  N5_18 
REMARK    7  A    between atoms: C14_19  and  N6_20 
REMARK    8  A    between atoms: N6_20  and  C15_21 
ROOT
HETATM    1  C4  UNL     1      31.513   6.994  48.495  1.00  0.00     0.047 C 
HETATM    2  C5  UNL     1      32.827   7.662  48.635  1.00  0.00     0.062 C 
HETATM    3  C6  UNL     1      33.969   6.732  48.228  1.00  0.00     0.036 C 
HETATM    4  C7  UNL     1      33.893   6.388  46.786  1.00  0.00     0.270 C 
HETATM    5  N2  UNL     1      34.755   5.303  46.373  1.00  0.00     0.088 N 
HETATM    6  C8  UNL     1      34.318   4.050  47.005  1.00  0.00     0.316 C 
HETATM    7  C9  UNL     1      32.973   3.623  46.577  1.00  0.00     0.119 C 
HETATM    8  N3  UNL     1      32.404   4.455  47.335  1.00  0.00    -0.274 NA
HETATM    9  C10 UNL     1      31.069   4.684  47.515  1.00  0.00     0.130 C 
HETATM   10  C11 UNL     1      30.747   5.851  48.045  1.00  0.00     0.023 C 
HETATM   11  H12 UNL     1      34.764   5.227  45.348  1.00  0.00     0.316 HD
ENDROOT
BRANCH  10  12
HETATM   12  C12 UNL     1      29.299   5.947  48.170  1.00  0.00     0.127 C 
HETATM   13  N4  UNL     1      28.615   4.937  48.535  1.00  0.00    -0.279 NA
BRANCH  13  14
HETATM   14  C13 UNL     1      27.198   4.864  48.707  1.00  0.00     0.298 C 
BRANCH  14  15
HETATM   15  N5  UNL     1      26.743   3.593  49.237  1.00  0.00    -0.263 NA
HETATM   16  C14 UNL     1      26.410   3.588  50.507  1.00  0.00     0.203 C 
BRANCH  16  17
HETATM   17  N6  UNL     1      25.970   2.316  50.975  1.00  0.00    -0.351 N 
HETATM   18  H21 UNL     1      25.023   1.931  50.673  1.00  0.00     0.166 HD
BRANCH  17  19
HETATM   19  C15 UNL     1      26.722   1.491  51.853  1.00  0.00     0.034 A 
HETATM   20  C16 UNL     1      27.605   2.040  52.792  1.00  0.00     0.029 A 
HETATM   21  C17 UNL     1      28.353   1.269  53.655  1.00  0.00     0.004 A 
HETATM   22  C18 UNL     1      28.261  -0.103  53.630  1.00  0.00     0.024 A 
HETATM   23  C19 UNL     1      27.402  -0.690  52.719  1.00  0.00     0.036 A 
HETATM   24 CL1  UNL     1      27.279  -2.432  52.678  1.00  0.00    -0.084 Cl
HETATM   25  C20 UNL     1      26.675   0.121  51.878  1.00  0.00     0.053 A 
ENDBRANCH  17  19
ENDBRANCH  16  17
ENDBRANCH  14  15
ENDBRANCH  13  14
ENDBRANCH  10  12
BRANCH   1  26
HETATM   26  N1  UNL     1      30.753   7.951  48.994  1.00  0.00    -0.265 NA
BRANCH  26  27
HETATM   27  C3  UNL     1      30.774   9.234  48.410  1.00  0.00     0.112 C 
BRANCH  27  28
HETATM   28  C2  UNL     1      30.725  10.349  47.736  1.00  0.00    -0.012 C 
HETATM   29  C1  UNL     1      31.127  11.633  48.406  1.00  0.00     0.037 C 
ENDBRANCH  27  28
ENDBRANCH  26  27
ENDBRANCH   1  26
TORSDOF 8
ENDMDL
MODEL 4
REMARK VINA RESULT:      -7.3      2.078      2.456
REMARK  8 active torsions:
REMARK  status: ('A' for Active; 'I' for Inactive)
REMARK    1  A    between atoms: C2_2  and  C3_3 
REMARK    2  A    between atoms: C3_3  and  N1_4 
REMARK    3  A    between atoms: N1_4  and  C4_5 
REMARK    4  A    between atoms: C11_14  and  C12_15 
REMARK    5  A    between atoms: N4_16  and  C13_17 
REMARK    6  A    between atoms: C13_17  and  N5_18 
REMARK    7  A    between atoms: C14_19  and  N6_20 
REMARK    8  A    between atoms: N6_20  and  C15_21 
ROOT
HETATM    1  C4  UNL     1      24.388   1.569  52.345  1.00  0.00     0.047 C 
HETATM    2  C5  UNL     1      23.960   0.416  53.171  1.00  0.00     0.062 C 
HETATM    3  C6  UNL     1      25.159  -0.411  53.634  1.00  0.00     0.036 C 
HETATM    4  C7  UNL     1      26.036   0.375  54.538  1.00  0.00     0.270 C 
HETATM    5  N2  UNL     1      27.327  -0.220  54.800  1.00  0.00     0.088 N 
HETATM    6  C8  UNL     1      28.122  -0.253  53.564  1.00  0.00     0.316 C 
HETATM    7  C9  UNL     1      28.443   1.089  53.046  1.00  0.00     0.119 C 
HETATM    8  N3  UNL     1      27.291   1.239  52.556  1.00  0.00    -0.274 NA
HETATM    9  C10 UNL     1      26.780   2.303  51.867  1.00  0.00     0.130 C 
HETATM   10  C11 UNL     1      25.462   2.381  51.816  1.00  0.00     0.023 C 
HETATM   11  H12 UNL     1      27.810   0.294  55.548  1.00  0.00     0.316 HD
ENDROOT
BRANCH  10  12
HETATM   12  C12 UNL     1      25.073   3.561  51.055  1.00  0.00     0.127 C 
HETATM   13  N4  UNL     1      25.913   4.144  50.296  1.00  0.00    -0.279 NA
BRANCH  13  14
HETATM   14  C13 UNL     1      25.693   5.303  49.487  1.00  0.00     0.298 C 
BRANCH  14  15
HETATM   15  N5  UNL     1      26.882   5.762  48.797  1.00  0.00    -0.263 NA
HETATM   16  C14 UNL     1      27.834   4.871  48.641  1.00  0.00     0.203 C 
BRANCH  16  17
HETATM   17  N6  UNL     1      28.979   5.373  47.958  1.00  0.00    -0.351 N 
HETATM   18  H21 UNL     1      29.276   4.949  47.026  1.00  0.00     0.166 HD
BRANCH  17  19
HETATM   19  C15 UNL     1      29.791   6.432  48.442  1.00  0.00     0.034 A 
HETATM   20  C16 UNL     1      31.063   6.190  48.977  1.00  0.00     0.029 A 
HETATM   21  C17 UNL     1      31.875   7.193  49.460  1.00  0.00     0.004 A 
HETATM   22  C18 UNL     1      31.460   8.504  49.437  1.00  0.00     0.024 A 
HETATM   23  C19 UNL     1      30.211   8.791  48.918  1.00  0.00     0.036 A 
HETATM   24 CL1  UNL     1      29.674  10.453  48.885  1.00  0.00    -0.084 Cl
HETATM   25  C20 UNL     1      29.436   7.757  48.447  1.00  0.00     0.053 A 
ENDBRANCH  17  19
ENDBRANCH  16  17
ENDBRANCH  14  15
ENDBRANCH  13  14
ENDBRANCH  10  12
BRANCH   1  26
HETATM   26  N1  UNL     1      23.194   2.024  52.012  1.00  0.00    -0.265 NA
BRANCH  26  27
HETATM   27  C3  UNL     1      22.332   1.223  51.238  1.00  0.00     0.112 C 
BRANCH  27  28
HETATM   28  C2  UNL     1      21.502   0.619  50.434  1.00  0.00    -0.012 C 
HETATM   29  C1  UNL     1      21.447   1.030  48.989  1.00  0.00     0.037 C 
ENDBRANCH  27  28
ENDBRANCH  26  27
ENDBRANCH   1  26
TORSDOF 8
ENDMDL
MODEL 5
REMARK VINA RESULT:      -7.2      2.856      3.388
REMARK  8 active torsions:
REMARK  status: ('A' for Active; 'I' for Inactive)
REMARK    1  A    between atoms: C2_2  and  C3_3 
REMARK    2  A    between atoms: C3_3  and  N1_4 
REMARK    3  A    between atoms: N1_4  and  C4_5 
REMARK    4  A    between atoms: C11_14  and  C12_15 
REMARK    5  A    between atoms: N4_16  and  C13_17 
REMARK    6  A    between atoms: C13_17  and  N5_18 
REMARK    7  A    between atoms: C14_19  and  N6_20 
REMARK    8  A    between atoms: N6_20  and  C15_21 
ROOT
HETATM    1  C4  UNL     1      24.246   1.448  52.287  1.00  0.00     0.047 C 
HETATM    2  C5  UNL     1      23.792   0.332  53.148  1.00  0.00     0.062 C 
HETATM    3  C6  UNL     1      24.967  -0.530  53.605  1.00  0.00     0.036 C 
HETATM    4  C7  UNL     1      25.894   0.240  54.473  1.00  0.00     0.270 C 
HETATM    5  N2  UNL     1      27.166  -0.399  54.722  1.00  0.00     0.088 N 
HETATM    6  C8  UNL     1      27.933  -0.491  53.472  1.00  0.00     0.316 C 
HETATM    7  C9  UNL     1      28.294   0.826  52.916  1.00  0.00     0.119 C 
HETATM    8  N3  UNL     1      27.139   1.010  52.446  1.00  0.00    -0.274 NA
HETATM    9  C10 UNL     1      26.654   2.078  51.743  1.00  0.00     0.130 C 
HETATM   10  C11 UNL     1      25.339   2.206  51.717  1.00  0.00     0.023 C 
HETATM   11  H12 UNL     1      27.684   0.113  55.448  1.00  0.00     0.316 HD
ENDROOT
BRANCH  10  12
HETATM   12  C12 UNL     1      24.980   3.383  50.937  1.00  0.00     0.127 C 
HETATM   13  N4  UNL     1      25.794   3.864  50.084  1.00  0.00    -0.279 NA
BRANCH  13  14
HETATM   14  C13 UNL     1      25.597   5.004  49.243  1.00  0.00     0.298 C 
BRANCH  14  15
HETATM   15  N5  UNL     1      26.335   6.175  49.673  1.00  0.00    -0.263 NA
HETATM   16  C14 UNL     1      25.651   7.068  50.350  1.00  0.00     0.203 C 
BRANCH  16  17
HETATM   17  N6  UNL     1      26.423   8.198  50.747  1.00  0.00    -0.351 N 
HETATM   18  H21 UNL     1      26.671   8.343  51.774  1.00  0.00     0.166 HD
BRANCH  17  19
HETATM   19  C15 UNL     1      26.902   9.186  49.848  1.00  0.00     0.034 A 
HETATM   20  C16 UNL     1      26.030   9.898  49.014  1.00  0.00     0.029 A 
HETATM   21  C17 UNL     1      26.462  10.861  48.128  1.00  0.00     0.004 A 
HETATM   22  C18 UNL     1      27.798  11.169  48.022  1.00  0.00     0.024 A 
HETATM   23  C19 UNL     1      28.697  10.492  48.825  1.00  0.00     0.036 A 
HETATM   24 CL1  UNL     1      30.396  10.875  48.697  1.00  0.00    -0.084 Cl
HETATM   25  C20 UNL     1      28.219   9.539  49.696  1.00  0.00     0.053 A 
ENDBRANCH  17  19
ENDBRANCH  16  17
ENDBRANCH  14  15
ENDBRANCH  13  14
ENDBRANCH  10  12
BRANCH   1  26
HETATM   26  N1  UNL     1      23.064   1.942  51.968  1.00  0.00    -0.265 NA
BRANCH  26  27
HETATM   27  C3  UNL     1      22.200   1.204  51.135  1.00  0.00     0.112 C 
BRANCH  27  28
HETATM   28  C2  UNL     1      21.452   0.621  50.241  1.00  0.00    -0.012 C 
HETATM   29  C1  UNL     1      21.463   1.130  48.826  1.00  0.00     0.037 C 
ENDBRANCH  27  28
ENDBRANCH  26  27
ENDBRANCH   1  26
TORSDOF 8
ENDMDL
MODEL 6
REMARK VINA RESULT:      -7.0      5.237      7.691
REMARK  8 active torsions:
REMARK  status: ('A' for Active; 'I' for Inactive)
REMARK    1  A    between atoms: C2_2  and  C3_3 
REMARK    2  A    between atoms: C3_3  and  N1_4 
REMARK    3  A    between atoms: N1_4  and  C4_5 
REMARK    4  A    between atoms: C11_14  and  C12_15 
REMARK    5  A    between atoms: N4_16  and  C13_17 
REMARK    6  A    between atoms: C13_17  and  N5_18 
REMARK    7  A    between atoms: C14_19  and  N6_20 
REMARK    8  A    between atoms: N6_20  and  C15_21 
ROOT
HETATM    1  C4  UNL     1      24.590   0.889  52.449  1.00  0.00     0.047 C 
HETATM    2  C5  UNL     1      24.544  -0.451  53.080  1.00  0.00     0.062 C 
HETATM    3  C6  UNL     1      25.928  -0.886  53.560  1.00  0.00     0.036 C 
HETATM    4  C7  UNL     1      26.426   0.003  54.640  1.00  0.00     0.270 C 
HETATM    5  N2  UNL     1      27.826  -0.156  54.960  1.00  0.00     0.088 N 
HETATM    6  C8  UNL     1      28.651   0.266  53.819  1.00  0.00     0.316 C 
HETATM    7  C9  UNL     1      28.514   1.700  53.505  1.00  0.00     0.119 C 
HETATM    8  N3  UNL     1      27.411   1.526  52.919  1.00  0.00    -0.274 NA
HETATM    9  C10 UNL     1      26.601   2.447  52.315  1.00  0.00     0.130 C 
HETATM   10  C11 UNL     1      25.343   2.084  52.137  1.00  0.00     0.023 C 
HETATM   11  H12 UNL     1      28.058   0.373  55.811  1.00  0.00     0.316 HD
ENDROOT
BRANCH  10  12
HETATM   12  C12 UNL     1      24.612   3.165  51.489  1.00  0.00     0.127 C 
HETATM   13  N4  UNL     1      24.015   4.048  52.186  1.00  0.00    -0.279 NA
BRANCH  13  14
HETATM   14  C13 UNL     1      23.260   5.165  51.709  1.00  0.00     0.298 C 
BRANCH  14  15
HETATM   15  N5  UNL     1      21.827   5.001  51.857  1.00  0.00    -0.263 NA
HETATM   16  C14 UNL     1      21.219   4.370  50.879  1.00  0.00     0.203 C 
BRANCH  16  17
HETATM   17  N6  UNL     1      19.814   4.237  51.074  1.00  0.00    -0.351 N 
HETATM   18  H21 UNL     1      19.208   5.102  51.220  1.00  0.00     0.166 HD
BRANCH  17  19
HETATM   19  C15 UNL     1      19.131   2.992  51.095  1.00  0.00     0.034 A 
HETATM   20  C16 UNL     1      19.735   1.821  50.617  1.00  0.00     0.029 A 
HETATM   21  C17 UNL     1      19.100   0.598  50.619  1.00  0.00     0.004 A 
HETATM   22  C18 UNL     1      17.818   0.474  51.100  1.00  0.00     0.024 A 
HETATM   23  C19 UNL     1      17.181   1.603  51.582  1.00  0.00     0.036 A 
HETATM   24 CL1  UNL     1      15.552   1.455  52.194  1.00  0.00    -0.084 Cl
HETATM   25  C20 UNL     1      17.855   2.802  51.560  1.00  0.00     0.053 A 
ENDBRANCH  17  19
ENDBRANCH  16  17
ENDBRANCH  14  15
ENDBRANCH  13  14
ENDBRANCH  10  12
BRANCH   1  26
HETATM   26  N1  UNL     1      23.333   0.961  52.052  1.00  0.00    -0.265 NA
BRANCH  26  27
HETATM   27  C3  UNL     1      22.299   0.608  52.942  1.00  0.00     0.112 C 
BRANCH  27  28
HETATM   28  C2  UNL     1      21.396   0.408  53.861  1.00  0.00    -0.012 C 
HETATM   29  C1  UNL     1      20.582  -0.855  53.831  1.00  0.00     0.037 C 
ENDBRANCH  27  28
ENDBRANCH  26  27
ENDBRANCH   1  26
TORSDOF 8
ENDMDL
MODEL 7
REMARK VINA RESULT:      -6.9      2.090      2.496
REMARK  8 active torsions:
REMARK  status: ('A' for Active; 'I' for Inactive)
REMARK    1  A    between atoms: C2_2  and  C3_3 
REMARK    2  A    between atoms: C3_3  and  N1_4 
REMARK    3  A    between atoms: N1_4  and  C4_5 
REMARK    4  A    between atoms: C11_14  and  C12_15 
REMARK    5  A    between atoms: N4_16  and  C13_17 
REMARK    6  A    between atoms: C13_17  and  N5_18 
REMARK    7  A    between atoms: C14_19  and  N6_20 
REMARK    8  A    between atoms: N6_20  and  C15_21 
ROOT
HETATM    1  C4  UNL     1      25.182   1.067  52.251  1.00  0.00     0.047 C 
HETATM    2  C5  UNL     1      24.733  -0.079  53.076  1.00  0.00     0.062 C 
HETATM    3  C6  UNL     1      25.887  -0.668  53.886  1.00  0.00     0.036 C 
HETATM    4  C7  UNL     1      26.400   0.310  54.878  1.00  0.00     0.270 C 
HETATM    5  N2  UNL     1      27.659  -0.050  55.491  1.00  0.00     0.088 N 
HETATM    6  C8  UNL     1      28.727  -0.041  54.480  1.00  0.00     0.316 C 
HETATM    7  C9  UNL     1      28.973   1.296  53.910  1.00  0.00     0.119 C 
HETATM    8  N3  UNL     1      27.965   1.224  53.156  1.00  0.00    -0.274 NA
HETATM    9  C10 UNL     1      27.493   2.141  52.259  1.00  0.00     0.130 C 
HETATM   10  C11 UNL     1      26.229   2.002  51.899  1.00  0.00     0.023 C 
HETATM   11  H12 UNL     1      27.870   0.586  56.270  1.00  0.00     0.316 HD
ENDROOT
BRANCH  10  12
HETATM   12  C12 UNL     1      25.875   3.048  50.948  1.00  0.00     0.127 C 
HETATM   13  N4  UNL     1      26.672   3.358  50.006  1.00  0.00    -0.279 NA
BRANCH  13  14
HETATM   14  C13 UNL     1      26.478   4.352  48.996  1.00  0.00     0.298 C 
BRANCH  14  15
HETATM   15  N5  UNL     1      27.366   5.491  49.126  1.00  0.00    -0.263 NA
HETATM   16  C14 UNL     1      28.512   5.399  48.491  1.00  0.00     0.203 C 
BRANCH  16  17
HETATM   17  N6  UNL     1      29.345   6.544  48.652  1.00  0.00    -0.351 N 
HETATM   18  H21 UNL     1      30.169   6.517  49.329  1.00  0.00     0.166 HD
BRANCH  17  19
HETATM   19  C15 UNL     1      29.154   7.767  47.958  1.00  0.00     0.034 A 
HETATM   20  C16 UNL     1      28.625   7.795  46.660  1.00  0.00     0.029 A 
HETATM   21  C17 UNL     1      28.431   8.963  45.957  1.00  0.00     0.004 A 
HETATM   22  C18 UNL     1      28.756  10.179  46.511  1.00  0.00     0.024 A 
HETATM   23  C19 UNL     1      29.281  10.201  47.790  1.00  0.00     0.036 A 
HETATM   24 CL1  UNL     1      29.698  11.740  48.503  1.00  0.00    -0.084 Cl
HETATM   25  C20 UNL     1      29.457   9.009  48.454  1.00  0.00     0.053 A 
ENDBRANCH  17  19
ENDBRANCH  16  17
ENDBRANCH  14  15
ENDBRANCH  13  14
ENDBRANCH  10  12
BRANCH   1  26
HETATM   26  N1  UNL     1      24.053   1.299  51.608  1.00  0.00    -0.265 NA
BRANCH  26  27
HETATM   27  C3  UNL     1      22.827   1.211  52.297  1.00  0.00     0.112 C 
BRANCH  27  28
HETATM   28  C2  UNL     1      21.691   1.296  52.931  1.00  0.00    -0.012 C 
HETATM   29  C1  UNL     1      20.952   0.037  53.290  1.00  0.00     0.037 C 
ENDBRANCH  27  28
ENDBRANCH  26  27
ENDBRANCH   1  26
TORSDOF 8
ENDMDL
MODEL 8
REMARK VINA RESULT:      -6.8      2.821      9.462
REMARK  8 active torsions:
REMARK  status: ('A' for Active; 'I' for Inactive)
REMARK    1  A    between atoms: C2_2  and  C3_3 
REMARK    2  A    between atoms: C3_3  and  N1_4 
REMARK    3  A    between atoms: N1_4  and  C4_5 
REMARK    4  A    between atoms: C11_14  and  C12_15 
REMARK    5  A    between atoms: N4_16  and  C13_17 
REMARK    6  A    between atoms: C13_17  and  N5_18 
REMARK    7  A    between atoms: C14_19  and  N6_20 
REMARK    8  A    between atoms: N6_20  and  C15_21 
ROOT
HETATM    1  C4  UNL     1      29.844   8.111  47.527  1.00  0.00     0.047 C 
HETATM    2  C5  UNL     1      30.652   9.253  47.041  1.00  0.00     0.062 C 
HETATM    3  C6  UNL     1      32.144   8.924  47.056  1.00  0.00     0.036 C 
HETATM    4  C7  UNL     1      32.462   7.828  46.107  1.00  0.00     0.270 C 
HETATM    5  N2  UNL     1      33.784   7.261  46.253  1.00  0.00     0.088 N 
HETATM    6  C8  UNL     1      33.893   6.577  47.550  1.00  0.00     0.316 C 
HETATM    7  C9  UNL     1      32.990   5.418  47.671  1.00  0.00     0.119 C 
HETATM    8  N3  UNL     1      31.988   6.149  47.898  1.00  0.00    -0.274 NA
HETATM    9  C10 UNL     1      30.691   5.786  48.132  1.00  0.00     0.130 C 
HETATM   10  C11 UNL     1      29.783   6.727  47.944  1.00  0.00     0.023 C 
HETATM   11  H12 UNL     1      33.987   6.626  45.471  1.00  0.00     0.316 HD
ENDROOT
BRANCH  10  12
HETATM   12  C12 UNL     1      28.459   6.190  48.229  1.00  0.00     0.127 C 
HETATM   13  N4  UNL     1      28.321   4.982  48.608  1.00  0.00    -0.279 NA
BRANCH  13  14
HETATM   14  C13 UNL     1      27.102   4.306  48.927  1.00  0.00     0.298 C 
BRANCH  14  15
HETATM   15  N5  UNL     1      27.083   3.745  50.264  1.00  0.00    -0.263 NA
HETATM   16  C14 UNL     1      25.915   3.325  50.692  1.00  0.00     0.203 C 
BRANCH  16  17
HETATM   17  N6  UNL     1      25.952   2.784  52.010  1.00  0.00    -0.351 N 
HETATM   18  H21 UNL     1      25.533   3.328  52.825  1.00  0.00     0.166 HD
BRANCH  17  19
HETATM   19  C15 UNL     1      26.533   1.530  52.335  1.00  0.00     0.034 A 
HETATM   20  C16 UNL     1      25.827   0.332  52.162  1.00  0.00     0.029 A 
HETATM   21  C17 UNL     1      26.358  -0.901  52.471  1.00  0.00     0.004 A 
HETATM   22  C18 UNL     1      27.633  -1.009  52.975  1.00  0.00     0.024 A 
HETATM   23  C19 UNL     1      28.368   0.146  53.163  1.00  0.00     0.036 A 
HETATM   24 CL1  UNL     1      29.988   0.019  53.804  1.00  0.00    -0.084 Cl
HETATM   25  C20 UNL     1      27.796   1.355  52.839  1.00  0.00     0.053 A 
ENDBRANCH  17  19
ENDBRANCH  16  17
ENDBRANCH  14  15
ENDBRANCH  13  14
ENDBRANCH  10  12
BRANCH   1  26
HETATM   26  N1  UNL     1      28.657   8.689  47.505  1.00  0.00    -0.265 NA
BRANCH  26  27
HETATM   27  C3  UNL     1      28.417   9.820  48.310  1.00  0.00     0.112 C 
BRANCH  27  28
HETATM   28  C2  UNL     1      28.072  10.778  49.125  1.00  0.00    -0.012 C 
HETATM   29  C1  UNL     1      27.939  12.180  48.600  1.00  0.00     0.037 C 
ENDBRANCH  27  28
ENDBRANCH  26  27
ENDBRANCH   1  26
TORSDOF 8
ENDMDL
MODEL 9
REMARK VINA RESULT:      -6.7      2.016      2.555
REMARK  8 active torsions:
REMARK  status: ('A' for Active; 'I' for Inactive)
REMARK    1  A    between atoms: C2_2  and  C3_3 
REMARK    2  A    between atoms: C3_3  and  N1_4 
REMARK    3  A    between atoms: N1_4  and  C4_5 
REMARK    4  A    between atoms: C11_14  and  C12_15 
REMARK    5  A    between atoms: N4_16  and  C13_17 
REMARK    6  A    between atoms: C13_17  and  N5_18 
REMARK    7  A    between atoms: C14_19  and  N6_20 
REMARK    8  A    between atoms: N6_20  and  C15_21 
ROOT
HETATM    1  C4  UNL     1      23.152   1.193  52.734  1.00  0.00     0.047 C 
HETATM    2  C5  UNL     1      22.977  -0.049  53.522  1.00  0.00     0.062 C 
HETATM    3  C6  UNL     1      24.275  -0.853  53.587  1.00  0.00     0.036 C 
HETATM    4  C7  UNL     1      25.332  -0.109  54.317  1.00  0.00     0.270 C 
HETATM    5  N2  UNL     1      26.662  -0.660  54.189  1.00  0.00     0.088 N 
HETATM    6  C8  UNL     1      27.119  -0.543  52.797  1.00  0.00     0.316 C 
HETATM    7  C9  UNL     1      27.264   0.855  52.351  1.00  0.00     0.119 C 
HETATM    8  N3  UNL     1      26.022   0.991  52.181  1.00  0.00    -0.274 NA
HETATM    9  C10 UNL     1      25.326   2.085  51.749  1.00  0.00     0.130 C 
HETATM   10  C11 UNL     1      24.036   2.102  52.036  1.00  0.00     0.023 C 
HETATM   11  H12 UNL     1      27.305  -0.191  54.840  1.00  0.00     0.316 HD
ENDROOT
BRANCH  10  12
HETATM   12  C12 UNL     1      23.437   3.324  51.517  1.00  0.00     0.127 C 
HETATM   13  N4  UNL     1      24.064   4.430  51.589  1.00  0.00    -0.279 NA
BRANCH  13  14
HETATM   14  C13 UNL     1      23.621   5.710  51.130  1.00  0.00     0.298 C 
BRANCH  14  15
HETATM   15  N5  UNL     1      24.324   6.177  49.951  1.00  0.00    -0.263 NA
HETATM   16  C14 UNL     1      25.197   7.138  50.147  1.00  0.00     0.203 C 
BRANCH  16  17
HETATM   17  N6  UNL     1      25.859   7.559  48.957  1.00  0.00    -0.351 N 
HETATM   18  H21 UNL     1      25.363   8.205  48.269  1.00  0.00     0.166 HD
BRANCH  17  19
HETATM   19  C15 UNL     1      27.175   7.165  48.600  1.00  0.00     0.034 A 
HETATM   20  C16 UNL     1      27.533   5.813  48.513  1.00  0.00     0.029 A 
HETATM   21  C17 UNL     1      28.802   5.396  48.174  1.00  0.00     0.004 A 
HETATM   22  C18 UNL     1      29.792   6.311  47.901  1.00  0.00     0.024 A 
HETATM   23  C19 UNL     1      29.484   7.657  47.974  1.00  0.00     0.036 A 
HETATM   24 CL1  UNL     1      30.735   8.827  47.630  1.00  0.00    -0.084 Cl
HETATM   25  C20 UNL     1      28.204   8.026  48.316  1.00  0.00     0.053 A 
ENDBRANCH  17  19
ENDBRANCH  16  17
ENDBRANCH  14  15
ENDBRANCH  13  14
ENDBRANCH  10  12
BRANCH   1  26
HETATM   26  N1  UNL     1      21.902   1.616  52.756  1.00  0.00    -0.265 NA
BRANCH  26  27
HETATM   27  C3  UNL     1      20.912   0.907  52.048  1.00  0.00     0.112 C 
BRANCH  27  28
HETATM   28  C2  UNL     1      19.991   0.147  51.523  1.00  0.00    -0.012 C 
HETATM   29  C1  UNL     1      18.863   0.779  50.756  1.00  0.00     0.037 C 
ENDBRANCH  27  28
ENDBRANCH  26  27
ENDBRANCH   1  26
TORSDOF 8
ENDMDL
