MODEL 1
REMARK VINA RESULT:      -7.7      0.000      0.000
REMARK  5 active torsions:
REMARK  status: ('A' for Active; 'I' for Inactive)
REMARK    1  A    between atoms: O1_2  and  C2_3 
REMARK    2  A    between atoms: C5_6  and  C6_7 
REMARK    3  A    between atoms: C6_7  and  N1_8 
REMARK    4  A    between atoms: N1_8  and  C7_9 
REMARK    5  A    between atoms: C12_14  and  C13_15 
ROOT
HETATM    1  C7  UNL     1      21.400  -0.671  53.626  1.00  0.00     0.040 C 
HETATM    2  C8  UNL     1      22.386  -1.228  54.460  1.00  0.00     0.026 C 
HETATM    3  C9  UNL     1      23.468  -0.762  53.722  1.00  0.00     0.114 C 
HETATM    4  C10 UNL     1      24.743  -0.071  53.973  1.00  0.00     0.093 C 
HETATM    5  C11 UNL     1      24.995   0.613  52.533  1.00  0.00     0.052 C 
HETATM    6  C12 UNL     1      26.270   0.624  52.097  1.00  0.00     0.039 C 
HETATM    7  O2  UNL     1      24.058   1.193  51.686  1.00  0.00    -0.316 OA
HETATM    8  C16 UNL     1      22.692   0.976  51.714  1.00  0.00     0.228 A 
HETATM    9  C17 UNL     1      21.503   0.268  52.408  1.00  0.00     0.165 A 
HETATM   10  N2  UNL     1      22.825   0.132  52.716  1.00  0.00    -0.346 N 
ENDROOT
BRANCH   1  11
HETATM   11  N1  UNL     1      19.958  -0.869  53.939  1.00  0.00    -0.387 N 
HETATM   12  H8  UNL     1      19.647  -1.359  54.839  1.00  0.00     0.159 HD
BRANCH  11  13
HETATM   13  C6  UNL     1      18.788  -0.470  53.137  1.00  0.00     0.158 C 
BRANCH  13  14
HETATM   14  C5  UNL     1      17.759  -1.499  53.041  1.00  0.00    -0.040 A 
HETATM   15  C4  UNL     1      16.558  -1.334  52.378  1.00  0.00     0.011 A 
HETATM   16  C3  UNL     1      15.644  -2.392  52.350  1.00  0.00     0.037 A 
HETATM   17  C2  UNL     1      15.927  -3.604  52.978  1.00  0.00     0.068 A 
HETATM   18  C19 UNL     1      17.149  -3.738  53.637  1.00  0.00     0.037 A 
HETATM   19  C18 UNL     1      18.068  -2.688  53.672  1.00  0.00     0.011 A 
BRANCH  17  20
HETATM   20  O1  UNL     1      14.996  -4.633  52.928  1.00  0.00    -0.356 OA
HETATM   21  C1  UNL     1      15.226  -5.770  53.738  1.00  0.00     0.210 C 
ENDBRANCH  17  20
ENDBRANCH  13  14
ENDBRANCH  11  13
ENDBRANCH   1  11
BRANCH   6  22
HETATM   22  C13 UNL     1      27.347   0.035  52.924  1.00  0.00    -0.056 A 
HETATM   23  C14 UNL     1      28.085  -1.119  53.052  1.00  0.00    -0.015 A 
HETATM   24  C15 UNL     1      28.387  -0.051  54.010  1.00  0.00     0.066 A 
ENDBRANCH   6  22
TORSDOF 5
ENDMDL
MODEL 2
REMARK VINA RESULT:      -7.6      5.533     11.323
REMARK  5 active torsions:
REMARK  status: ('A' for Active; 'I' for Inactive)
REMARK    1  A    between atoms: O1_2  and  C2_3 
REMARK    2  A    between atoms: C5_6  and  C6_7 
REMARK    3  A    between atoms: C6_7  and  N1_8 
REMARK    4  A    between atoms: N1_8  and  C7_9 
REMARK    5  A    between atoms: C12_14  and  C13_15 
ROOT
HETATM    1  C7  UNL     1      25.725   3.309  50.851  1.00  0.00     0.040 C 
HETATM    2  C8  UNL     1      24.337   3.441  51.030  1.00  0.00     0.026 C 
HETATM    3  C9  UNL     1      24.166   2.221  51.678  1.00  0.00     0.114 C 
HETATM    4  C10 UNL     1      23.493   1.712  52.883  1.00  0.00     0.093 C 
HETATM    5  C11 UNL     1      24.364   0.382  53.164  1.00  0.00     0.052 C 
HETATM    6  C12 UNL     1      23.677  -0.697  53.589  1.00  0.00     0.039 C 
HETATM    7  O2  UNL     1      25.736   0.211  53.023  1.00  0.00    -0.316 OA
HETATM    8  C16 UNL     1      26.580   1.004  52.266  1.00  0.00     0.228 A 
HETATM    9  C17 UNL     1      26.724   2.246  51.353  1.00  0.00     0.165 A 
HETATM   10  N2  UNL     1      25.567   1.755  51.885  1.00  0.00    -0.346 N 
ENDROOT
BRANCH   1  11
HETATM   11  N1  UNL     1      26.495   4.379  50.160  1.00  0.00    -0.387 N 
HETATM   12  H8  UNL     1      26.563   5.366  50.570  1.00  0.00     0.159 HD
BRANCH  11  13
HETATM   13  C6  UNL     1      27.236   4.295  48.890  1.00  0.00     0.158 C 
BRANCH  13  14
HETATM   14  C5  UNL     1      27.802   5.564  48.451  1.00  0.00    -0.040 A 
HETATM   15  C4  UNL     1      27.071   6.727  48.298  1.00  0.00     0.011 A 
HETATM   16  C3  UNL     1      27.719   7.890  47.870  1.00  0.00     0.037 A 
HETATM   17  C2  UNL     1      29.087   7.891  47.600  1.00  0.00     0.068 A 
HETATM   18  C19 UNL     1      29.796   6.703  47.766  1.00  0.00     0.037 A 
HETATM   19  C18 UNL     1      29.158   5.536  48.191  1.00  0.00     0.011 A 
BRANCH  17  20
HETATM   20  O1  UNL     1      29.698   9.065  47.178  1.00  0.00    -0.356 OA
HETATM   21  C1  UNL     1      30.761   9.574  47.961  1.00  0.00     0.210 C 
ENDBRANCH  17  20
ENDBRANCH  13  14
ENDBRANCH  11  13
ENDBRANCH   1  11
BRANCH   6  22
HETATM   22  C13 UNL     1      22.211  -0.622  53.776  1.00  0.00    -0.056 A 
HETATM   23  C14 UNL     1      21.266  -0.468  54.764  1.00  0.00    -0.015 A 
HETATM   24  C15 UNL     1      20.753  -0.619  53.399  1.00  0.00     0.066 A 
ENDBRANCH   6  22
TORSDOF 5
ENDMDL
MODEL 3
REMARK VINA RESULT:      -7.4      5.363     10.915
REMARK  5 active torsions:
REMARK  status: ('A' for Active; 'I' for Inactive)
REMARK    1  A    between atoms: O1_2  and  C2_3 
REMARK    2  A    between atoms: C5_6  and  C6_7 
REMARK    3  A    between atoms: C6_7  and  N1_8 
REMARK    4  A    between atoms: N1_8  and  C7_9 
REMARK    5  A    between atoms: C12_14  and  C13_15 
ROOT
HETATM    1  C7  UNL     1      25.061   3.576  51.261  1.00  0.00     0.040 C 
HETATM    2  C8  UNL     1      25.563   2.417  51.878  1.00  0.00     0.026 C 
HETATM    3  C9  UNL     1      24.346   2.010  52.416  1.00  0.00     0.114 C 
HETATM    4  C10 UNL     1      23.549   0.776  52.499  1.00  0.00     0.093 C 
HETATM    5  C11 UNL     1      22.072   1.394  52.701  1.00  0.00     0.052 C 
HETATM    6  C12 UNL     1      21.267   0.738  53.559  1.00  0.00     0.039 C 
HETATM    7  O2  UNL     1      21.527   2.521  52.098  1.00  0.00    -0.316 OA
HETATM    8  C16 UNL     1      22.236   3.550  51.504  1.00  0.00     0.228 A 
HETATM    9  C17 UNL     1      23.623   4.110  51.106  1.00  0.00     0.165 A 
HETATM   10  N2  UNL     1      23.377   2.964  51.803  1.00  0.00    -0.346 N 
ENDROOT
BRANCH   1  11
HETATM   11  N1  UNL     1      25.974   4.471  50.499  1.00  0.00    -0.387 N 
HETATM   12  H8  UNL     1      26.145   5.482  50.807  1.00  0.00     0.159 HD
BRANCH  11  13
HETATM   13  C6  UNL     1      26.742   4.166  49.279  1.00  0.00     0.158 C 
BRANCH  13  14
HETATM   14  C5  UNL     1      27.316   5.341  48.634  1.00  0.00    -0.040 A 
HETATM   15  C4  UNL     1      26.597   6.475  48.308  1.00  0.00     0.011 A 
HETATM   16  C3  UNL     1      27.252   7.544  47.690  1.00  0.00     0.037 A 
HETATM   17  C2  UNL     1      28.615   7.482  47.401  1.00  0.00     0.068 A 
HETATM   18  C19 UNL     1      29.312   6.324  47.744  1.00  0.00     0.037 A 
HETATM   19  C18 UNL     1      28.667   5.251  48.361  1.00  0.00     0.011 A 
BRANCH  17  20
HETATM   20  O1  UNL     1      29.233   8.564  46.788  1.00  0.00    -0.356 OA
HETATM   21  C1  UNL     1      29.169   9.817  47.440  1.00  0.00     0.210 C 
ENDBRANCH  17  20
ENDBRANCH  13  14
ENDBRANCH  11  13
ENDBRANCH   1  11
BRANCH   6  22
HETATM   22  C13 UNL     1      21.749  -0.477  54.253  1.00  0.00    -0.056 A 
HETATM   23  C14 UNL     1      21.514  -1.831  54.326  1.00  0.00    -0.015 A 
HETATM   24  C15 UNL     1      22.580  -1.315  55.189  1.00  0.00     0.066 A 
ENDBRANCH   6  22
TORSDOF 5
ENDMDL
MODEL 4
REMARK VINA RESULT:      -7.4      6.645     10.441
REMARK  5 active torsions:
REMARK  status: ('A' for Active; 'I' for Inactive)
REMARK    1  A    between atoms: O1_2  and  C2_3 
REMARK    2  A    between atoms: C5_6  and  C6_7 
REMARK    3  A    between atoms: C6_7  and  N1_8 
REMARK    4  A    between atoms: N1_8  and  C7_9 
REMARK    5  A    between atoms: C12_14  and  C13_15 
ROOT
HETATM    1  C7  UNL     1      25.274   3.476  50.623  1.00  0.00     0.040 C 
HETATM    2  C8  UNL     1      26.423   2.806  50.166  1.00  0.00     0.026 C 
HETATM    3  C9  UNL     1      26.672   2.133  51.358  1.00  0.00     0.114 C 
HETATM    4  C10 UNL     1      26.987   0.762  51.791  1.00  0.00     0.093 C 
HETATM    5  C11 UNL     1      26.459   0.808  53.315  1.00  0.00     0.052 C 
HETATM    6  C12 UNL     1      27.211   0.156  54.223  1.00  0.00     0.039 C 
HETATM    7  O2  UNL     1      25.322   1.436  53.809  1.00  0.00    -0.316 OA
HETATM    8  C16 UNL     1      24.620   2.453  53.186  1.00  0.00     0.228 A 
HETATM    9  C17 UNL     1      24.483   3.364  51.942  1.00  0.00     0.165 A 
HETATM   10  N2  UNL     1      25.464   2.445  52.175  1.00  0.00    -0.346 N 
ENDROOT
BRANCH   1  11
HETATM   11  N1  UNL     1      24.542   4.405  49.720  1.00  0.00    -0.387 N 
HETATM   12  H8  UNL     1      24.029   4.047  48.852  1.00  0.00     0.159 HD
BRANCH  11  13
HETATM   13  C6  UNL     1      24.405   5.868  49.834  1.00  0.00     0.158 C 
BRANCH  13  14
HETATM   14  C5  UNL     1      25.616   6.604  49.491  1.00  0.00    -0.040 A 
HETATM   15  C4  UNL     1      26.525   6.195  48.534  1.00  0.00     0.011 A 
HETATM   16  C3  UNL     1      27.655   6.982  48.287  1.00  0.00     0.037 A 
HETATM   17  C2  UNL     1      27.873   8.167  48.989  1.00  0.00     0.068 A 
HETATM   18  C19 UNL     1      26.936   8.551  49.947  1.00  0.00     0.037 A 
HETATM   19  C18 UNL     1      25.805   7.773  50.202  1.00  0.00     0.011 A 
BRANCH  17  20
HETATM   20  O1  UNL     1      29.005   8.923  48.716  1.00  0.00    -0.356 OA
HETATM   21  C1  UNL     1      28.878  10.332  48.735  1.00  0.00     0.210 C 
ENDBRANCH  17  20
ENDBRANCH  13  14
ENDBRANCH  11  13
ENDBRANCH   1  11
BRANCH   6  22
HETATM   22  C13 UNL     1      28.443  -0.550  53.803  1.00  0.00    -0.056 A 
HETATM   23  C14 UNL     1      29.796  -0.347  53.664  1.00  0.00    -0.015 A 
HETATM   24  C15 UNL     1      29.304  -1.678  53.297  1.00  0.00     0.066 A 
ENDBRANCH   6  22
TORSDOF 5
ENDMDL
MODEL 5
REMARK VINA RESULT:      -7.4      5.847      8.720
REMARK  5 active torsions:
REMARK  status: ('A' for Active; 'I' for Inactive)
REMARK    1  A    between atoms: O1_2  and  C2_3 
REMARK    2  A    between atoms: C5_6  and  C6_7 
REMARK    3  A    between atoms: C6_7  and  N1_8 
REMARK    4  A    between atoms: N1_8  and  C7_9 
REMARK    5  A    between atoms: C12_14  and  C13_15 
ROOT
HETATM    1  C7  UNL     1      23.993   3.895  50.431  1.00  0.00     0.040 C 
HETATM    2  C8  UNL     1      24.915   3.578  49.418  1.00  0.00     0.026 C 
HETATM    3  C9  UNL     1      25.365   4.880  49.231  1.00  0.00     0.114 C 
HETATM    4  C10 UNL     1      26.653   5.583  49.115  1.00  0.00     0.093 C 
HETATM    5  C11 UNL     1      26.218   7.069  49.570  1.00  0.00     0.052 C 
HETATM    6  C12 UNL     1      26.785   8.086  48.893  1.00  0.00     0.039 C 
HETATM    7  O2  UNL     1      25.330   7.430  50.576  1.00  0.00    -0.316 OA
HETATM    8  C16 UNL     1      24.360   6.617  51.136  1.00  0.00     0.228 A 
HETATM    9  C17 UNL     1      23.709   5.213  51.179  1.00  0.00     0.165 A 
HETATM   10  N2  UNL     1      24.706   5.624  50.343  1.00  0.00    -0.346 N 
ENDROOT
BRANCH   1  11
HETATM   11  N1  UNL     1      23.159   2.825  51.044  1.00  0.00    -0.387 N 
HETATM   12  H8  UNL     1      22.546   2.186  50.443  1.00  0.00     0.159 HD
BRANCH  11  13
HETATM   13  C6  UNL     1      23.025   2.477  52.470  1.00  0.00     0.158 C 
BRANCH  13  14
HETATM   14  C5  UNL     1      24.103   1.635  52.976  1.00  0.00    -0.040 A 
HETATM   15  C4  UNL     1      24.060   0.254  53.000  1.00  0.00     0.011 A 
HETATM   16  C3  UNL     1      25.154  -0.453  53.509  1.00  0.00     0.037 A 
HETATM   17  C2  UNL     1      26.281   0.214  53.988  1.00  0.00     0.068 A 
HETATM   18  C19 UNL     1      26.292   1.607  53.949  1.00  0.00     0.037 A 
HETATM   19  C18 UNL     1      25.205   2.323  53.444  1.00  0.00     0.011 A 
BRANCH  17  20
HETATM   20  O1  UNL     1      27.349  -0.521  54.486  1.00  0.00    -0.356 OA
HETATM   21  C1  UNL     1      28.511   0.185  54.875  1.00  0.00     0.210 C 
ENDBRANCH  17  20
ENDBRANCH  13  14
ENDBRANCH  11  13
ENDBRANCH   1  11
BRANCH   6  22
HETATM   22  C13 UNL     1      27.748   7.812  47.803  1.00  0.00    -0.056 A 
HETATM   23  C14 UNL     1      27.972   8.102  46.477  1.00  0.00    -0.015 A 
HETATM   24  C15 UNL     1      28.962   7.235  47.123  1.00  0.00     0.066 A 
ENDBRANCH   6  22
TORSDOF 5
ENDMDL
MODEL 6
REMARK VINA RESULT:      -7.3      4.836     10.281
REMARK  5 active torsions:
REMARK  status: ('A' for Active; 'I' for Inactive)
REMARK    1  A    between atoms: O1_2  and  C2_3 
REMARK    2  A    between atoms: C5_6  and  C6_7 
REMARK    3  A    between atoms: C6_7  and  N1_8 
REMARK    4  A    between atoms: N1_8  and  C7_9 
REMARK    5  A    between atoms: C12_14  and  C13_15 
ROOT
HETATM    1  C7  UNL     1      22.948   3.613  50.294  1.00  0.00     0.040 C 
HETATM    2  C8  UNL     1      23.589   2.382  50.517  1.00  0.00     0.026 C 
HETATM    3  C9  UNL     1      22.775   1.993  51.575  1.00  0.00     0.114 C 
HETATM    4  C10 UNL     1      22.023   0.798  51.990  1.00  0.00     0.093 C 
HETATM    5  C11 UNL     1      20.905   1.470  52.940  1.00  0.00     0.052 C 
HETATM    6  C12 UNL     1      20.584   0.784  54.055  1.00  0.00     0.039 C 
HETATM    7  O2  UNL     1      20.230   2.670  52.751  1.00  0.00    -0.316 OA
HETATM    8  C16 UNL     1      20.633   3.708  51.930  1.00  0.00     0.228 A 
HETATM    9  C17 UNL     1      21.677   4.230  50.913  1.00  0.00     0.165 A 
HETATM   10  N2  UNL     1      21.715   3.042  51.583  1.00  0.00    -0.346 N 
ENDROOT
BRANCH   1  11
HETATM   11  N1  UNL     1      23.430   4.523  49.219  1.00  0.00    -0.387 N 
HETATM   12  H8  UNL     1      23.301   4.278  48.185  1.00  0.00     0.159 HD
BRANCH  11  13
HETATM   13  C6  UNL     1      24.120   5.817  49.361  1.00  0.00     0.158 C 
BRANCH  13  14
HETATM   14  C5  UNL     1      25.528   5.780  48.983  1.00  0.00    -0.040 A 
HETATM   15  C4  UNL     1      26.341   4.673  49.136  1.00  0.00     0.011 A 
HETATM   16  C3  UNL     1      27.680   4.750  48.738  1.00  0.00     0.037 A 
HETATM   17  C2  UNL     1      28.200   5.922  48.191  1.00  0.00     0.068 A 
HETATM   18  C19 UNL     1      27.352   7.020  48.049  1.00  0.00     0.037 A 
HETATM   19  C18 UNL     1      26.015   6.954  48.444  1.00  0.00     0.011 A 
BRANCH  17  20
HETATM   20  O1  UNL     1      29.534   5.963  47.805  1.00  0.00    -0.356 OA
HETATM   21  C1  UNL     1      30.003   7.138  47.173  1.00  0.00     0.210 C 
ENDBRANCH  17  20
ENDBRANCH  13  14
ENDBRANCH  11  13
ENDBRANCH   1  11
BRANCH   6  22
HETATM   22  C13 UNL     1      21.242  -0.508  54.351  1.00  0.00    -0.056 A 
HETATM   23  C14 UNL     1      22.298  -1.032  55.061  1.00  0.00    -0.015 A 
HETATM   24  C15 UNL     1      21.487  -1.993  54.308  1.00  0.00     0.066 A 
ENDBRANCH   6  22
TORSDOF 5
ENDMDL
MODEL 7
REMARK VINA RESULT:      -7.2      5.500      9.437
REMARK  5 active torsions:
REMARK  status: ('A' for Active; 'I' for Inactive)
REMARK    1  A    between atoms: O1_2  and  C2_3 
REMARK    2  A    between atoms: C5_6  and  C6_7 
REMARK    3  A    between atoms: C6_7  and  N1_8 
REMARK    4  A    between atoms: N1_8  and  C7_9 
REMARK    5  A    between atoms: C12_14  and  C13_15 
ROOT
HETATM    1  C7  UNL     1      24.292   2.955  50.998  1.00  0.00     0.040 C 
HETATM    2  C8  UNL     1      25.684   3.048  50.821  1.00  0.00     0.026 C 
HETATM    3  C9  UNL     1      26.005   2.042  51.726  1.00  0.00     0.114 C 
HETATM    4  C10 UNL     1      26.868   0.851  51.772  1.00  0.00     0.093 C 
HETATM    5  C11 UNL     1      26.112  -0.015  52.904  1.00  0.00     0.052 C 
HETATM    6  C12 UNL     1      26.903  -0.689  53.762  1.00  0.00     0.039 C 
HETATM    7  O2  UNL     1      24.744  -0.154  53.105  1.00  0.00    -0.316 OA
HETATM    8  C16 UNL     1      23.762   0.698  52.632  1.00  0.00     0.228 A 
HETATM    9  C17 UNL     1      23.429   1.962  51.802  1.00  0.00     0.165 A 
HETATM   10  N2  UNL     1      24.672   1.472  52.076  1.00  0.00    -0.346 N 
ENDROOT
BRANCH   1  11
HETATM   11  N1  UNL     1      23.381   3.858  50.244  1.00  0.00    -0.387 N 
HETATM   12  H8  UNL     1      22.365   4.003  50.549  1.00  0.00     0.159 HD
BRANCH  11  13
HETATM   13  C6  UNL     1      23.675   4.648  49.035  1.00  0.00     0.158 C 
BRANCH  13  14
HETATM   14  C5  UNL     1      24.416   5.876  49.298  1.00  0.00    -0.040 A 
HETATM   15  C4  UNL     1      25.668   6.150  48.782  1.00  0.00     0.011 A 
HETATM   16  C3  UNL     1      26.288   7.362  49.101  1.00  0.00     0.037 A 
HETATM   17  C2  UNL     1      25.661   8.293  49.929  1.00  0.00     0.068 A 
HETATM   18  C19 UNL     1      24.397   7.986  50.432  1.00  0.00     0.037 A 
HETATM   19  C18 UNL     1      23.771   6.779  50.120  1.00  0.00     0.011 A 
BRANCH  17  20
HETATM   20  O1  UNL     1      26.305   9.487  50.224  1.00  0.00    -0.356 OA
HETATM   21  C1  UNL     1      27.709   9.537  50.060  1.00  0.00     0.210 C 
ENDBRANCH  17  20
ENDBRANCH  13  14
ENDBRANCH  11  13
ENDBRANCH   1  11
BRANCH   6  22
HETATM   22  C13 UNL     1      28.376  -0.612  53.636  1.00  0.00    -0.056 A 
HETATM   23  C14 UNL     1      29.470  -1.406  53.377  1.00  0.00    -0.015 A 
HETATM   24  C15 UNL     1      29.747   0.012  53.628  1.00  0.00     0.066 A 
ENDBRANCH   6  22
TORSDOF 5
ENDMDL
MODEL 8
REMARK VINA RESULT:      -7.1      8.124     11.598
REMARK  5 active torsions:
REMARK  status: ('A' for Active; 'I' for Inactive)
REMARK    1  A    between atoms: O1_2  and  C2_3 
REMARK    2  A    between atoms: C5_6  and  C6_7 
REMARK    3  A    between atoms: C6_7  and  N1_8 
REMARK    4  A    between atoms: N1_8  and  C7_9 
REMARK    5  A    between atoms: C12_14  and  C13_15 
ROOT
HETATM    1  C7  UNL     1      29.420   6.638  48.500  1.00  0.00     0.040 C 
HETATM    2  C8  UNL     1      29.649   5.369  47.939  1.00  0.00     0.026 C 
HETATM    3  C9  UNL     1      31.006   5.565  47.706  1.00  0.00     0.114 C 
HETATM    4  C10 UNL     1      32.266   4.840  47.929  1.00  0.00     0.093 C 
HETATM    5  C11 UNL     1      33.312   6.070  47.950  1.00  0.00     0.052 C 
HETATM    6  C12 UNL     1      34.499   5.849  47.353  1.00  0.00     0.039 C 
HETATM    7  O2  UNL     1      33.139   7.330  48.509  1.00  0.00    -0.316 OA
HETATM    8  C16 UNL     1      31.929   7.922  48.824  1.00  0.00     0.228 A 
HETATM    9  C17 UNL     1      30.388   7.781  48.871  1.00  0.00     0.165 A 
HETATM   10  N2  UNL     1      31.275   6.869  48.378  1.00  0.00    -0.346 N 
ENDROOT
BRANCH   1  11
HETATM   11  N1  UNL     1      28.055   7.020  48.955  1.00  0.00    -0.387 N 
HETATM   12  H8  UNL     1      27.911   7.731  49.742  1.00  0.00     0.159 HD
BRANCH  11  13
HETATM   13  C6  UNL     1      26.758   6.530  48.456  1.00  0.00     0.158 C 
BRANCH  13  14
HETATM   14  C5  UNL     1      26.172   5.475  49.274  1.00  0.00    -0.040 A 
HETATM   15  C4  UNL     1      26.661   4.184  49.339  1.00  0.00     0.011 A 
HETATM   16  C3  UNL     1      26.018   3.251  50.159  1.00  0.00     0.037 A 
HETATM   17  C2  UNL     1      24.897   3.606  50.908  1.00  0.00     0.068 A 
HETATM   18  C19 UNL     1      24.430   4.916  50.821  1.00  0.00     0.037 A 
HETATM   19  C18 UNL     1      25.064   5.854  50.005  1.00  0.00     0.011 A 
BRANCH  17  20
HETATM   20  O1  UNL     1      24.285   2.653  51.712  1.00  0.00    -0.356 OA
HETATM   21  C1  UNL     1      25.042   2.098  52.771  1.00  0.00     0.210 C 
ENDBRANCH  17  20
ENDBRANCH  13  14
ENDBRANCH  11  13
ENDBRANCH   1  11
BRANCH   6  22
HETATM   22  C13 UNL     1      34.787   4.538  46.728  1.00  0.00    -0.056 A 
HETATM   23  C14 UNL     1      34.970   3.960  45.493  1.00  0.00    -0.015 A 
HETATM   24  C15 UNL     1      35.074   3.062  46.646  1.00  0.00     0.066 A 
ENDBRANCH   6  22
TORSDOF 5
ENDMDL
MODEL 9
REMARK VINA RESULT:      -7.0      3.909      5.788
REMARK  5 active torsions:
REMARK  status: ('A' for Active; 'I' for Inactive)
REMARK    1  A    between atoms: O1_2  and  C2_3 
REMARK    2  A    between atoms: C5_6  and  C6_7 
REMARK    3  A    between atoms: C6_7  and  N1_8 
REMARK    4  A    between atoms: N1_8  and  C7_9 
REMARK    5  A    between atoms: C12_14  and  C13_15 
ROOT
HETATM    1  C7  UNL     1      25.142   3.453  50.771  1.00  0.00     0.040 C 
HETATM    2  C8  UNL     1      26.341   2.895  50.295  1.00  0.00     0.026 C 
HETATM    3  C9  UNL     1      26.641   2.199  51.460  1.00  0.00     0.114 C 
HETATM    4  C10 UNL     1      27.064   0.842  51.842  1.00  0.00     0.093 C 
HETATM    5  C11 UNL     1      26.531   0.786  53.364  1.00  0.00     0.052 C 
HETATM    6  C12 UNL     1      27.332   0.161  54.250  1.00  0.00     0.039 C 
HETATM    7  O2  UNL     1      25.347   1.302  53.876  1.00  0.00    -0.316 OA
HETATM    8  C16 UNL     1      24.567   2.282  53.290  1.00  0.00     0.228 A 
HETATM    9  C17 UNL     1      24.359   3.227  52.081  1.00  0.00     0.165 A 
HETATM   10  N2  UNL     1      25.411   2.381  52.283  1.00  0.00    -0.346 N 
ENDROOT
BRANCH   1  11
HETATM   11  N1  UNL     1      24.340   4.355  49.901  1.00  0.00    -0.387 N 
HETATM   12  H8  UNL     1      24.305   5.410  50.078  1.00  0.00     0.159 HD
BRANCH  11  13
HETATM   13  C6  UNL     1      23.509   4.000  48.737  1.00  0.00     0.158 C 
BRANCH  13  14
HETATM   14  C5  UNL     1      22.305   3.252  49.078  1.00  0.00    -0.040 A 
HETATM   15  C4  UNL     1      21.237   3.780  49.778  1.00  0.00     0.011 A 
HETATM   16  C3  UNL     1      20.130   2.969  50.050  1.00  0.00     0.037 A 
HETATM   17  C2  UNL     1      20.091   1.642  49.625  1.00  0.00     0.068 A 
HETATM   18  C19 UNL     1      21.184   1.140  48.920  1.00  0.00     0.037 A 
HETATM   19  C18 UNL     1      22.293   1.941  48.644  1.00  0.00     0.011 A 
BRANCH  17  20
HETATM   20  O1  UNL     1      18.975   0.866  49.911  1.00  0.00    -0.356 OA
HETATM   21  C1  UNL     1      18.878   0.304  51.206  1.00  0.00     0.210 C 
ENDBRANCH  17  20
ENDBRANCH  13  14
ENDBRANCH  11  13
ENDBRANCH   1  11
BRANCH   6  22
HETATM   22  C13 UNL     1      28.617  -0.427  53.809  1.00  0.00    -0.056 A 
HETATM   23  C14 UNL     1      29.149  -1.610  53.352  1.00  0.00    -0.015 A 
HETATM   24  C15 UNL     1      30.086  -0.491  53.484  1.00  0.00     0.066 A 
ENDBRANCH   6  22
TORSDOF 5
ENDMDL
