MODEL 1
REMARK VINA RESULT:      -7.8      0.000      0.000
REMARK  7 active torsions:
REMARK  status: ('A' for Active; 'I' for Inactive)
REMARK    1  A    between atoms: C2_2  and  O1_3 
REMARK    2  A    between atoms: O1_3  and  C3_4 
REMARK    3  A    between atoms: C4_5  and  O2_6 
REMARK    4  A    between atoms: C7_10  and  N2_11 
REMARK    5  A    between atoms: C10_14  and  O3_15 
REMARK    6  A    between atoms: C12_17  and  O4_18 
REMARK    7  A    between atoms: C20_28  and  O5_29 
ROOT
HETATM    1  C3  UNL     1      26.558   0.189  53.733  1.00  0.00     0.163 A 
HETATM    2  C4  UNL     1      25.260  -0.168  54.043  1.00  0.00     0.202 A 
HETATM    3  N1  UNL     1      24.173   0.452  53.548  1.00  0.00    -0.216 NA
HETATM    4  C6  UNL     1      24.338   1.497  52.685  1.00  0.00     0.137 A 
HETATM    5  C7  UNL     1      23.294   2.227  52.099  1.00  0.00     0.160 A 
HETATM    6  N3  UNL     1      23.526   3.231  51.271  1.00  0.00    -0.222 NA
HETATM    7  C18 UNL     1      24.771   3.564  50.979  1.00  0.00     0.236 A 
HETATM    8  N4  UNL     1      25.749   2.870  51.537  1.00  0.00    -0.237 NA
HETATM    9  C19 UNL     1      25.595   1.856  52.373  1.00  0.00     0.127 A 
HETATM   10  C20 UNL     1      26.728   1.230  52.873  1.00  0.00     0.138 A 
ENDROOT
BRANCH   5  11
HETATM   11  N2  UNL     1      21.979   1.642  52.535  1.00  0.00    -0.337 N 
HETATM   12  C8  UNL     1      21.276   0.543  53.424  1.00  0.00     0.058 A 
HETATM   13  C9  UNL     1      20.190  -0.387  53.231  1.00  0.00     0.045 C 
HETATM   14  C17 UNL     1      20.813   0.071  52.208  1.00  0.00     0.083 A 
HETATM   15  C16 UNL     1      20.283   1.371  52.944  1.00  0.00     0.062 A 
HETATM   16  C10 UNL     1      19.053  -0.005  52.311  1.00  0.00     0.122 C 
HETATM   17  C12 UNL     1      18.532   1.264  51.320  1.00  0.00     0.080 C 
HETATM   18  C14 UNL     1      19.128   2.513  51.955  1.00  0.00     0.043 C 
HETATM   19  C15 UNL     1      20.677   2.297  52.123  1.00  0.00     0.091 A 
BRANCH  16  20
HETATM   20  O3  UNL     1      18.168  -1.073  52.302  1.00  0.00    -0.377 OA
HETATM   21  C11 UNL     1      17.817  -1.766  53.457  1.00  0.00     0.203 C 
ENDBRANCH  16  20
BRANCH  17  22
HETATM   22  O4  UNL     1      17.743   0.941  50.241  1.00  0.00    -0.357 OA
HETATM   23  C13 UNL     1      16.398   1.394  50.270  1.00  0.00     0.209 C 
ENDBRANCH  17  22
ENDBRANCH   5  11
BRANCH   2  24
HETATM   24  O2  UNL     1      25.084  -1.230  54.920  1.00  0.00    -0.337 OA
HETATM   25  C5  UNL     1      23.896  -1.383  55.656  1.00  0.00     0.212 C 
ENDBRANCH   2  24
BRANCH  10  26
HETATM   26  O5  UNL     1      28.027   1.606  52.546  1.00  0.00    -0.351 OA
HETATM   27  C21 UNL     1      28.674   2.484  53.454  1.00  0.00     0.210 C 
ENDBRANCH  10  26
BRANCH   1  28
HETATM   28  O1  UNL     1      27.633  -0.500  54.285  1.00  0.00    -0.316 OA
BRANCH  28  29
HETATM   29  C2  UNL     1      28.510  -1.271  53.555  1.00  0.00     0.132 C 
HETATM   30  C1  UNL     1      29.814  -1.273  53.464  1.00  0.00     0.037 C 
ENDBRANCH  28  29
ENDBRANCH   1  28
TORSDOF 7
ENDMDL
MODEL 2
REMARK VINA RESULT:      -7.5      1.587      2.004
REMARK  7 active torsions:
REMARK  status: ('A' for Active; 'I' for Inactive)
REMARK    1  A    between atoms: C2_2  and  O1_3 
REMARK    2  A    between atoms: O1_3  and  C3_4 
REMARK    3  A    between atoms: C4_5  and  O2_6 
REMARK    4  A    between atoms: C7_10  and  N2_11 
REMARK    5  A    between atoms: C10_14  and  O3_15 
REMARK    6  A    between atoms: C12_17  and  O4_18 
REMARK    7  A    between atoms: C20_28  and  O5_29 
ROOT
HETATM    1  C3  UNL     1      26.889   0.303  53.322  1.00  0.00     0.163 A 
HETATM    2  C4  UNL     1      25.554  -0.041  53.250  1.00  0.00     0.202 A 
HETATM    3  N1  UNL     1      24.650   0.614  52.499  1.00  0.00    -0.216 NA
HETATM    4  C6  UNL     1      25.054   1.686  51.755  1.00  0.00     0.137 A 
HETATM    5  C7  UNL     1      24.217   2.453  50.932  1.00  0.00     0.160 A 
HETATM    6  N3  UNL     1      24.676   3.480  50.237  1.00  0.00    -0.222 NA
HETATM    7  C18 UNL     1      25.955   3.801  50.311  1.00  0.00     0.236 A 
HETATM    8  N4  UNL     1      26.738   3.071  51.090  1.00  0.00    -0.237 NA
HETATM    9  C19 UNL     1      26.350   2.032  51.813  1.00  0.00     0.127 A 
HETATM   10  C20 UNL     1      27.297   1.369  52.582  1.00  0.00     0.138 A 
ENDROOT
BRANCH   5  11
HETATM   11  N2  UNL     1      22.829   1.877  50.968  1.00  0.00    -0.337 N 
HETATM   12  C8  UNL     1      21.881   0.733  50.433  1.00  0.00     0.058 A 
HETATM   13  C9  UNL     1      20.532   0.676  49.925  1.00  0.00     0.045 C 
HETATM   14  C17 UNL     1      21.176   1.784  49.875  1.00  0.00     0.083 A 
HETATM   15  C16 UNL     1      21.187   1.408  51.415  1.00  0.00     0.062 A 
HETATM   16  C10 UNL     1      19.510   1.661  50.447  1.00  0.00     0.122 C 
HETATM   17  C12 UNL     1      19.359   2.945  51.539  1.00  0.00     0.080 C 
HETATM   18  C14 UNL     1      20.398   2.656  52.614  1.00  0.00     0.043 C 
HETATM   19  C15 UNL     1      21.791   2.441  51.917  1.00  0.00     0.091 A 
BRANCH  16  20
HETATM   20  O3  UNL     1      18.320   1.391  49.788  1.00  0.00    -0.377 OA
HETATM   21  C11 UNL     1      17.543   0.271  50.070  1.00  0.00     0.203 C 
ENDBRANCH  16  20
BRANCH  17  22
HETATM   22  O4  UNL     1      18.412   3.902  51.263  1.00  0.00    -0.357 OA
HETATM   23  C13 UNL     1      18.679   4.776  50.177  1.00  0.00     0.209 C 
ENDBRANCH  17  22
ENDBRANCH   5  11
BRANCH   2  24
HETATM   24  O2  UNL     1      25.134  -1.128  54.004  1.00  0.00    -0.337 OA
HETATM   25  C5  UNL     1      24.741  -0.983  55.346  1.00  0.00     0.212 C 
ENDBRANCH   2  24
BRANCH  10  26
HETATM   26  O5  UNL     1      28.639   1.733  52.639  1.00  0.00    -0.351 OA
HETATM   27  C21 UNL     1      29.040   2.480  53.777  1.00  0.00     0.210 C 
ENDBRANCH  10  26
BRANCH   1  28
HETATM   28  O1  UNL     1      27.765  -0.423  54.123  1.00  0.00    -0.316 OA
BRANCH  28  29
HETATM   29  C2  UNL     1      28.724  -1.282  53.632  1.00  0.00     0.132 C 
HETATM   30  C1  UNL     1      30.030  -1.245  53.650  1.00  0.00     0.037 C 
ENDBRANCH  28  29
ENDBRANCH   1  28
TORSDOF 7
ENDMDL
MODEL 3
REMARK VINA RESULT:      -7.4      2.880      5.108
REMARK  7 active torsions:
REMARK  status: ('A' for Active; 'I' for Inactive)
REMARK    1  A    between atoms: C2_2  and  O1_3 
REMARK    2  A    between atoms: O1_3  and  C3_4 
REMARK    3  A    between atoms: C4_5  and  O2_6 
REMARK    4  A    between atoms: C7_10  and  N2_11 
REMARK    5  A    between atoms: C10_14  and  O3_15 
REMARK    6  A    between atoms: C12_17  and  O4_18 
REMARK    7  A    between atoms: C20_28  and  O5_29 
ROOT
HETATM    1  C3  UNL     1      26.140   0.296  53.598  1.00  0.00     0.163 A 
HETATM    2  C4  UNL     1      25.825   1.197  52.600  1.00  0.00     0.202 A 
HETATM    3  N1  UNL     1      24.588   1.359  52.098  1.00  0.00    -0.216 NA
HETATM    4  C6  UNL     1      23.565   0.599  52.590  1.00  0.00     0.137 A 
HETATM    5  C7  UNL     1      22.233   0.669  52.157  1.00  0.00     0.160 A 
HETATM    6  N3  UNL     1      21.291  -0.099  52.678  1.00  0.00    -0.222 NA
HETATM    7  C18 UNL     1      21.601  -0.957  53.633  1.00  0.00     0.236 A 
HETATM    8  N4  UNL     1      22.860  -1.016  54.035  1.00  0.00    -0.237 NA
HETATM    9  C19 UNL     1      23.854  -0.281  53.562  1.00  0.00     0.127 A 
HETATM   10  C20 UNL     1      25.124  -0.463  54.092  1.00  0.00     0.138 A 
ENDROOT
BRANCH   5  11
HETATM   11  N2  UNL     1      22.111   1.739  51.108  1.00  0.00    -0.337 N 
HETATM   12  C8  UNL     1      22.035   2.041  49.560  1.00  0.00     0.058 A 
HETATM   13  C9  UNL     1      22.641   3.006  48.675  1.00  0.00     0.045 C 
HETATM   14  C17 UNL     1      23.214   2.729  49.788  1.00  0.00     0.083 A 
HETATM   15  C16 UNL     1      21.770   3.224  50.217  1.00  0.00     0.062 A 
HETATM   16  C10 UNL     1      22.978   4.380  49.209  1.00  0.00     0.122 C 
HETATM   17  C12 UNL     1      22.886   5.300  50.626  1.00  0.00     0.080 C 
HETATM   18  C14 UNL     1      21.682   4.735  51.369  1.00  0.00     0.043 C 
HETATM   19  C15 UNL     1      21.867   3.180  51.511  1.00  0.00     0.091 A 
BRANCH  16  20
HETATM   20  O3  UNL     1      23.552   5.087  48.163  1.00  0.00    -0.377 OA
HETATM   21  C11 UNL     1      22.842   6.013  47.404  1.00  0.00     0.203 C 
ENDBRANCH  16  20
BRANCH  17  22
HETATM   22  O4  UNL     1      23.827   6.285  50.803  1.00  0.00    -0.357 OA
HETATM   23  C13 UNL     1      23.367   7.627  50.764  1.00  0.00     0.209 C 
ENDBRANCH  17  22
ENDBRANCH   5  11
BRANCH   2  24
HETATM   24  O2  UNL     1      26.859   1.973  52.093  1.00  0.00    -0.337 OA
HETATM   25  C5  UNL     1      26.663   2.832  50.998  1.00  0.00     0.212 C 
ENDBRANCH   2  24
BRANCH  10  26
HETATM   26  O5  UNL     1      25.417  -1.378  55.099  1.00  0.00    -0.351 OA
HETATM   27  C21 UNL     1      25.214  -0.933  56.430  1.00  0.00     0.210 C 
ENDBRANCH  10  26
BRANCH   1  28
HETATM   28  O1  UNL     1      27.445   0.184  54.066  1.00  0.00    -0.316 OA
BRANCH  28  29
HETATM   29  C2  UNL     1      28.400  -0.627  53.496  1.00  0.00     0.132 C 
HETATM   30  C1  UNL     1      29.687  -0.743  53.691  1.00  0.00     0.037 C 
ENDBRANCH  28  29
ENDBRANCH   1  28
TORSDOF 7
ENDMDL
MODEL 4
REMARK VINA RESULT:      -7.4      2.698      5.156
REMARK  7 active torsions:
REMARK  status: ('A' for Active; 'I' for Inactive)
REMARK    1  A    between atoms: C2_2  and  O1_3 
REMARK    2  A    between atoms: O1_3  and  C3_4 
REMARK    3  A    between atoms: C4_5  and  O2_6 
REMARK    4  A    between atoms: C7_10  and  N2_11 
REMARK    5  A    between atoms: C10_14  and  O3_15 
REMARK    6  A    between atoms: C12_17  and  O4_18 
REMARK    7  A    between atoms: C20_28  and  O5_29 
ROOT
HETATM    1  C3  UNL     1      26.661   0.105  53.699  1.00  0.00     0.163 A 
HETATM    2  C4  UNL     1      26.740   1.082  52.727  1.00  0.00     0.202 A 
HETATM    3  N1  UNL     1      25.684   1.529  52.024  1.00  0.00    -0.216 NA
HETATM    4  C6  UNL     1      24.450   1.000  52.269  1.00  0.00     0.137 A 
HETATM    5  C7  UNL     1      23.270   1.375  51.610  1.00  0.00     0.160 A 
HETATM    6  N3  UNL     1      22.106   0.819  51.897  1.00  0.00    -0.222 NA
HETATM    7  C18 UNL     1      22.038  -0.115  52.829  1.00  0.00     0.236 A 
HETATM    8  N4  UNL     1      23.156  -0.462  53.446  1.00  0.00    -0.237 NA
HETATM    9  C19 UNL     1      24.355   0.048  53.212  1.00  0.00     0.127 A 
HETATM   10  C20 UNL     1      25.433  -0.426  53.947  1.00  0.00     0.138 A 
ENDROOT
BRANCH   5  11
HETATM   11  N2  UNL     1      23.580   2.477  50.635  1.00  0.00    -0.337 N 
HETATM   12  C8  UNL     1      24.473   3.748  50.349  1.00  0.00     0.058 A 
HETATM   13  C9  UNL     1      24.231   5.073  49.836  1.00  0.00     0.045 C 
HETATM   14  C17 UNL     1      23.261   4.416  50.357  1.00  0.00     0.083 A 
HETATM   15  C16 UNL     1      23.777   3.473  49.191  1.00  0.00     0.062 A 
HETATM   16  C10 UNL     1      23.128   5.276  48.822  1.00  0.00     0.122 C 
HETATM   17  C12 UNL     1      21.946   4.413  47.972  1.00  0.00     0.080 C 
HETATM   18  C14 UNL     1      22.524   3.010  47.838  1.00  0.00     0.043 C 
HETATM   19  C15 UNL     1      22.925   2.496  49.269  1.00  0.00     0.091 A 
BRANCH  16  20
HETATM   20  O3  UNL     1      23.109   6.629  48.515  1.00  0.00    -0.377 OA
HETATM   21  C11 UNL     1      23.891   7.180  47.504  1.00  0.00     0.203 C 
ENDBRANCH  16  20
BRANCH  17  22
HETATM   22  O4  UNL     1      20.810   5.091  47.603  1.00  0.00    -0.357 OA
HETATM   23  C13 UNL     1      19.804   5.245  48.593  1.00  0.00     0.209 C 
ENDBRANCH  17  22
ENDBRANCH   5  11
BRANCH   2  24
HETATM   24  O2  UNL     1      27.993   1.626  52.472  1.00  0.00    -0.337 OA
HETATM   25  C5  UNL     1      28.557   2.597  53.317  1.00  0.00     0.212 C 
ENDBRANCH   2  24
BRANCH  10  26
HETATM   26  O5  UNL     1      25.328  -1.413  54.923  1.00  0.00    -0.351 OA
HETATM   27  C21 UNL     1      25.007  -0.971  56.232  1.00  0.00     0.210 C 
ENDBRANCH  10  26
BRANCH   1  28
HETATM   28  O1  UNL     1      27.799  -0.307  54.385  1.00  0.00    -0.316 OA
BRANCH  28  29
HETATM   29  C2  UNL     1      28.783  -1.099  53.837  1.00  0.00     0.132 C 
HETATM   30  C1  UNL     1      30.073  -0.935  53.707  1.00  0.00     0.037 C 
ENDBRANCH  28  29
ENDBRANCH   1  28
TORSDOF 7
ENDMDL
MODEL 5
REMARK VINA RESULT:      -7.2      1.600      3.572
REMARK  7 active torsions:
REMARK  status: ('A' for Active; 'I' for Inactive)
REMARK    1  A    between atoms: C2_2  and  O1_3 
REMARK    2  A    between atoms: O1_3  and  C3_4 
REMARK    3  A    between atoms: C4_5  and  O2_6 
REMARK    4  A    between atoms: C7_10  and  N2_11 
REMARK    5  A    between atoms: C10_14  and  O3_15 
REMARK    6  A    between atoms: C12_17  and  O4_18 
REMARK    7  A    between atoms: C20_28  and  O5_29 
ROOT
HETATM    1  C3  UNL     1      26.707   1.363  52.680  1.00  0.00     0.163 A 
HETATM    2  C4  UNL     1      25.774   2.110  51.987  1.00  0.00     0.202 A 
HETATM    3  N1  UNL     1      24.446   1.917  52.071  1.00  0.00    -0.216 NA
HETATM    4  C6  UNL     1      23.967   0.930  52.885  1.00  0.00     0.137 A 
HETATM    5  C7  UNL     1      22.610   0.625  53.064  1.00  0.00     0.160 A 
HETATM    6  N3  UNL     1      22.215  -0.346  53.868  1.00  0.00    -0.222 NA
HETATM    7  C18 UNL     1      23.114  -1.055  54.528  1.00  0.00     0.236 A 
HETATM    8  N4  UNL     1      24.392  -0.760  54.353  1.00  0.00    -0.237 NA
HETATM    9  C19 UNL     1      24.861   0.195  53.566  1.00  0.00     0.127 A 
HETATM   10  C20 UNL     1      26.234   0.379  53.492  1.00  0.00     0.138 A 
ENDROOT
BRANCH   5  11
HETATM   11  N2  UNL     1      21.779   1.585  52.258  1.00  0.00    -0.337 N 
HETATM   12  C8  UNL     1      21.240   3.066  52.150  1.00  0.00     0.058 A 
HETATM   13  C9  UNL     1      19.968   3.670  51.841  1.00  0.00     0.045 C 
HETATM   14  C17 UNL     1      20.000   2.464  52.273  1.00  0.00     0.083 A 
HETATM   15  C16 UNL     1      20.909   2.427  50.974  1.00  0.00     0.062 A 
HETATM   16  C10 UNL     1      19.035   2.965  50.883  1.00  0.00     0.122 C 
HETATM   17  C12 UNL     1      18.935   1.570  49.931  1.00  0.00     0.080 C 
HETATM   18  C14 UNL     1      20.381   1.241  49.584  1.00  0.00     0.043 C 
HETATM   19  C15 UNL     1      21.210   1.165  50.918  1.00  0.00     0.091 A 
BRANCH  16  20
HETATM   20  O3  UNL     1      17.897   3.752  50.778  1.00  0.00    -0.377 OA
HETATM   21  C11 UNL     1      16.835   3.660  51.674  1.00  0.00     0.203 C 
ENDBRANCH  16  20
BRANCH  17  22
HETATM   22  O4  UNL     1      17.682   1.063  49.682  1.00  0.00    -0.357 OA
HETATM   23  C13 UNL     1      17.298  -0.091  50.414  1.00  0.00     0.209 C 
ENDBRANCH  17  22
ENDBRANCH   5  11
BRANCH   2  24
HETATM   24  O2  UNL     1      26.253   3.115  51.157  1.00  0.00    -0.337 OA
HETATM   25  C5  UNL     1      25.466   3.649  50.122  1.00  0.00     0.212 C 
ENDBRANCH   2  24
BRANCH  10  26
HETATM   26  O5  UNL     1      27.156  -0.387  54.200  1.00  0.00    -0.351 OA
HETATM   27  C21 UNL     1      27.924  -1.308  53.442  1.00  0.00     0.210 C 
ENDBRANCH  10  26
BRANCH   1  28
HETATM   28  O1  UNL     1      28.067   1.622  52.541  1.00  0.00    -0.316 OA
BRANCH  28  29
HETATM   29  C2  UNL     1      28.794   2.401  53.411  1.00  0.00     0.132 C 
HETATM   30  C1  UNL     1      29.540   2.106  54.443  1.00  0.00     0.037 C 
ENDBRANCH  28  29
ENDBRANCH   1  28
TORSDOF 7
ENDMDL
MODEL 6
REMARK VINA RESULT:      -7.1      1.859      2.979
REMARK  7 active torsions:
REMARK  status: ('A' for Active; 'I' for Inactive)
REMARK    1  A    between atoms: C2_2  and  O1_3 
REMARK    2  A    between atoms: O1_3  and  C3_4 
REMARK    3  A    between atoms: C4_5  and  O2_6 
REMARK    4  A    between atoms: C7_10  and  N2_11 
REMARK    5  A    between atoms: C10_14  and  O3_15 
REMARK    6  A    between atoms: C12_17  and  O4_18 
REMARK    7  A    between atoms: C20_28  and  O5_29 
ROOT
HETATM    1  C3  UNL     1      25.742   0.991  52.909  1.00  0.00     0.163 A 
HETATM    2  C4  UNL     1      24.381   1.180  52.778  1.00  0.00     0.202 A 
HETATM    3  N1  UNL     1      23.824   2.059  51.925  1.00  0.00    -0.216 NA
HETATM    4  C6  UNL     1      24.633   2.820  51.131  1.00  0.00     0.137 A 
HETATM    5  C7  UNL     1      24.183   3.770  50.202  1.00  0.00     0.160 A 
HETATM    6  N3  UNL     1      25.024   4.473  49.465  1.00  0.00    -0.222 NA
HETATM    7  C18 UNL     1      26.326   4.286  49.596  1.00  0.00     0.236 A 
HETATM    8  N4  UNL     1      26.740   3.387  50.475  1.00  0.00    -0.237 NA
HETATM    9  C19 UNL     1      25.960   2.647  51.246  1.00  0.00     0.127 A 
HETATM   10  C20 UNL     1      26.553   1.747  52.120  1.00  0.00     0.138 A 
ENDROOT
BRANCH   5  11
HETATM   11  N2  UNL     1      22.680   3.775  50.192  1.00  0.00    -0.337 N 
HETATM   12  C8  UNL     1      21.382   4.674  50.223  1.00  0.00     0.058 A 
HETATM   13  C9  UNL     1      20.123   4.628  50.923  1.00  0.00     0.045 C 
HETATM   14  C17 UNL     1      21.137   4.018  51.416  1.00  0.00     0.083 A 
HETATM   15  C16 UNL     1      20.973   3.381  49.973  1.00  0.00     0.062 A 
HETATM   16  C10 UNL     1      19.536   3.283  51.291  1.00  0.00     0.122 C 
HETATM   17  C12 UNL     1      19.857   1.627  51.156  1.00  0.00     0.080 C 
HETATM   18  C14 UNL     1      20.688   1.503  49.886  1.00  0.00     0.043 C 
HETATM   19  C15 UNL     1      21.912   2.484  49.991  1.00  0.00     0.091 A 
BRANCH  16  20
HETATM   20  O3  UNL     1      18.346   3.533  51.958  1.00  0.00    -0.377 OA
HETATM   21  C11 UNL     1      17.107   3.484  51.326  1.00  0.00     0.203 C 
ENDBRANCH  16  20
BRANCH  17  22
HETATM   22  O4  UNL     1      19.346   0.803  52.129  1.00  0.00    -0.357 OA
HETATM   23  C13 UNL     1      18.434  -0.200  51.708  1.00  0.00     0.209 C 
ENDBRANCH  17  22
ENDBRANCH   5  11
BRANCH   2  24
HETATM   24  O2  UNL     1      23.551   0.410  53.582  1.00  0.00    -0.337 OA
HETATM   25  C5  UNL     1      22.582  -0.446  53.030  1.00  0.00     0.212 C 
ENDBRANCH   2  24
BRANCH  10  26
HETATM   26  O5  UNL     1      27.929   1.573  52.235  1.00  0.00    -0.351 OA
HETATM   27  C21 UNL     1      28.562   2.260  53.303  1.00  0.00     0.210 C 
ENDBRANCH  10  26
BRANCH   1  28
HETATM   28  O1  UNL     1      26.244   0.062  53.815  1.00  0.00    -0.316 OA
BRANCH  28  29
HETATM   29  C2  UNL     1      26.410  -1.275  53.533  1.00  0.00     0.132 C 
HETATM   30  C1  UNL     1      27.103  -1.903  52.620  1.00  0.00     0.037 C 
ENDBRANCH  28  29
ENDBRANCH   1  28
TORSDOF 7
ENDMDL
MODEL 7
REMARK VINA RESULT:      -7.0      3.065      7.319
REMARK  7 active torsions:
REMARK  status: ('A' for Active; 'I' for Inactive)
REMARK    1  A    between atoms: C2_2  and  O1_3 
REMARK    2  A    between atoms: O1_3  and  C3_4 
REMARK    3  A    between atoms: C4_5  and  O2_6 
REMARK    4  A    between atoms: C7_10  and  N2_11 
REMARK    5  A    between atoms: C10_14  and  O3_15 
REMARK    6  A    between atoms: C12_17  and  O4_18 
REMARK    7  A    between atoms: C20_28  and  O5_29 
ROOT
HETATM    1  C3  UNL     1      20.858   0.512  53.137  1.00  0.00     0.163 A 
HETATM    2  C4  UNL     1      20.763   1.691  52.425  1.00  0.00     0.202 A 
HETATM    3  N1  UNL     1      21.812   2.311  51.856  1.00  0.00    -0.216 NA
HETATM    4  C6  UNL     1      23.056   1.760  51.977  1.00  0.00     0.137 A 
HETATM    5  C7  UNL     1      24.230   2.302  51.434  1.00  0.00     0.160 A 
HETATM    6  N3  UNL     1      25.404   1.715  51.591  1.00  0.00    -0.222 NA
HETATM    7  C18 UNL     1      25.486   0.586  52.273  1.00  0.00     0.236 A 
HETATM    8  N4  UNL     1      24.373   0.083  52.781  1.00  0.00    -0.237 NA
HETATM    9  C19 UNL     1      23.165   0.613  52.666  1.00  0.00     0.127 A 
HETATM   10  C20 UNL     1      22.095  -0.041  53.260  1.00  0.00     0.138 A 
ENDROOT
BRANCH   5  11
HETATM   11  N2  UNL     1      23.888   3.549  50.667  1.00  0.00    -0.337 N 
HETATM   12  C8  UNL     1      23.185   4.132  49.378  1.00  0.00     0.058 A 
HETATM   13  C9  UNL     1      23.521   5.131  48.394  1.00  0.00     0.045 C 
HETATM   14  C17 UNL     1      24.460   4.572  49.066  1.00  0.00     0.083 A 
HETATM   15  C16 UNL     1      23.521   5.205  50.177  1.00  0.00     0.062 A 
HETATM   16  C10 UNL     1      24.363   6.316  48.811  1.00  0.00     0.122 C 
HETATM   17  C12 UNL     1      25.134   6.970  50.168  1.00  0.00     0.080 C 
HETATM   18  C14 UNL     1      24.308   6.478  51.349  1.00  0.00     0.043 C 
HETATM   19  C15 UNL     1      24.184   4.914  51.255  1.00  0.00     0.091 A 
BRANCH  16  20
HETATM   20  O3  UNL     1      24.540   7.100  47.680  1.00  0.00    -0.377 OA
HETATM   21  C11 UNL     1      23.474   7.575  46.921  1.00  0.00     0.203 C 
ENDBRANCH  16  20
BRANCH  17  22
HETATM   22  O4  UNL     1      26.247   7.747  49.949  1.00  0.00    -0.357 OA
HETATM   23  C13 UNL     1      26.093   9.149  50.108  1.00  0.00     0.209 C 
ENDBRANCH  17  22
ENDBRANCH   5  11
BRANCH   2  24
HETATM   24  O2  UNL     1      19.501   2.258  52.298  1.00  0.00    -0.337 OA
HETATM   25  C5  UNL     1      19.294   3.422  51.538  1.00  0.00     0.212 C 
ENDBRANCH   2  24
BRANCH  10  26
HETATM   26  O5  UNL     1      22.215  -1.230  53.974  1.00  0.00    -0.351 OA
HETATM   27  C21 UNL     1      22.667  -1.116  55.313  1.00  0.00     0.210 C 
ENDBRANCH  10  26
BRANCH   1  28
HETATM   28  O1  UNL     1      19.725  -0.070  53.698  1.00  0.00    -0.316 OA
BRANCH  28  29
HETATM   29  C2  UNL     1      18.868  -0.901  53.011  1.00  0.00     0.132 C 
HETATM   30  C1  UNL     1      17.998  -1.791  53.410  1.00  0.00     0.037 C 
ENDBRANCH  28  29
ENDBRANCH   1  28
TORSDOF 7
ENDMDL
MODEL 8
REMARK VINA RESULT:      -7.0      3.582      7.744
REMARK  7 active torsions:
REMARK  status: ('A' for Active; 'I' for Inactive)
REMARK    1  A    between atoms: C2_2  and  O1_3 
REMARK    2  A    between atoms: O1_3  and  C3_4 
REMARK    3  A    between atoms: C4_5  and  O2_6 
REMARK    4  A    between atoms: C7_10  and  N2_11 
REMARK    5  A    between atoms: C10_14  and  O3_15 
REMARK    6  A    between atoms: C12_17  and  O4_18 
REMARK    7  A    between atoms: C20_28  and  O5_29 
ROOT
HETATM    1  C3  UNL     1      23.348   5.471  48.302  1.00  0.00     0.163 A 
HETATM    2  C4  UNL     1      23.933   5.259  49.535  1.00  0.00     0.202 A 
HETATM    3  N1  UNL     1      23.775   4.136  50.258  1.00  0.00    -0.216 NA
HETATM    4  C6  UNL     1      22.994   3.131  49.763  1.00  0.00     0.137 A 
HETATM    5  C7  UNL     1      22.747   1.912  50.411  1.00  0.00     0.160 A 
HETATM    6  N3  UNL     1      21.978   0.981  49.873  1.00  0.00    -0.222 NA
HETATM    7  C18 UNL     1      21.423   1.192  48.693  1.00  0.00     0.236 A 
HETATM    8  N4  UNL     1      21.662   2.344  48.088  1.00  0.00    -0.237 NA
HETATM    9  C19 UNL     1      22.418   3.321  48.564  1.00  0.00     0.127 A 
HETATM   10  C20 UNL     1      22.569   4.473  47.804  1.00  0.00     0.138 A 
ENDROOT
BRANCH   5  11
HETATM   11  N2  UNL     1      23.514   1.878  51.704  1.00  0.00    -0.337 N 
HETATM   12  C8  UNL     1      24.348   2.724  52.744  1.00  0.00     0.058 A 
HETATM   13  C9  UNL     1      25.581   2.528  53.466  1.00  0.00     0.045 C 
HETATM   14  C17 UNL     1      25.378   1.872  52.383  1.00  0.00     0.083 A 
HETATM   15  C16 UNL     1      24.147   1.479  53.303  1.00  0.00     0.062 A 
HETATM   16  C10 UNL     1      25.983   1.125  53.864  1.00  0.00     0.122 C 
HETATM   17  C12 UNL     1      25.446  -0.476  53.762  1.00  0.00     0.080 C 
HETATM   18  C14 UNL     1      23.928  -0.366  53.708  1.00  0.00     0.043 C 
HETATM   19  C15 UNL     1      23.538   0.618  52.545  1.00  0.00     0.091 A 
BRANCH  16  20
HETATM   20  O3  UNL     1      27.197   1.229  54.526  1.00  0.00    -0.377 OA
HETATM   21  C11 UNL     1      28.390   1.512  53.867  1.00  0.00     0.203 C 
ENDBRANCH  16  20
BRANCH  17  22
HETATM   22  O4  UNL     1      26.401  -1.464  53.752  1.00  0.00    -0.357 OA
HETATM   23  C13 UNL     1      26.861  -1.901  52.482  1.00  0.00     0.209 C 
ENDBRANCH  17  22
ENDBRANCH   5  11
BRANCH   2  24
HETATM   24  O2  UNL     1      24.728   6.277  50.046  1.00  0.00    -0.337 OA
HETATM   25  C5  UNL     1      26.061   6.445  49.631  1.00  0.00     0.212 C 
ENDBRANCH   2  24
BRANCH  10  26
HETATM   26  O5  UNL     1      21.970   4.664  46.563  1.00  0.00    -0.351 OA
HETATM   27  C21 UNL     1      20.625   5.117  46.578  1.00  0.00     0.210 C 
ENDBRANCH  10  26
BRANCH   1  28
HETATM   28  O1  UNL     1      23.559   6.662  47.614  1.00  0.00    -0.316 OA
BRANCH  28  29
HETATM   29  C2  UNL     1      22.778   7.786  47.764  1.00  0.00     0.132 C 
HETATM   30  C1  UNL     1      22.762   8.732  48.666  1.00  0.00     0.037 C 
ENDBRANCH  28  29
ENDBRANCH   1  28
TORSDOF 7
ENDMDL
MODEL 9
REMARK VINA RESULT:      -6.9      3.673      7.139
REMARK  7 active torsions:
REMARK  status: ('A' for Active; 'I' for Inactive)
REMARK    1  A    between atoms: C2_2  and  O1_3 
REMARK    2  A    between atoms: O1_3  and  C3_4 
REMARK    3  A    between atoms: C4_5  and  O2_6 
REMARK    4  A    between atoms: C7_10  and  N2_11 
REMARK    5  A    between atoms: C10_14  and  O3_15 
REMARK    6  A    between atoms: C12_17  and  O4_18 
REMARK    7  A    between atoms: C20_28  and  O5_29 
ROOT
HETATM    1  C3  UNL     1      24.652   0.929  53.244  1.00  0.00     0.163 A 
HETATM    2  C4  UNL     1      25.288   2.140  53.052  1.00  0.00     0.202 A 
HETATM    3  N1  UNL     1      24.866   3.080  52.188  1.00  0.00    -0.216 NA
HETATM    4  C6  UNL     1      23.744   2.847  51.446  1.00  0.00     0.137 A 
HETATM    5  C7  UNL     1      23.198   3.741  50.513  1.00  0.00     0.160 A 
HETATM    6  N3  UNL     1      22.106   3.449  49.827  1.00  0.00    -0.222 NA
HETATM    7  C18 UNL     1      21.503   2.289  50.017  1.00  0.00     0.236 A 
HETATM    8  N4  UNL     1      22.025   1.453  50.900  1.00  0.00    -0.237 NA
HETATM    9  C19 UNL     1      23.113   1.675  51.622  1.00  0.00     0.127 A 
HETATM   10  C20 UNL     1      23.533   0.692  52.507  1.00  0.00     0.138 A 
ENDROOT
BRANCH   5  11
HETATM   11  N2  UNL     1      24.017   5.002  50.501  1.00  0.00    -0.337 N 
HETATM   12  C8  UNL     1      24.279   6.390  51.207  1.00  0.00     0.058 A 
HETATM   13  C9  UNL     1      24.493   7.742  50.756  1.00  0.00     0.045 C 
HETATM   14  C17 UNL     1      23.886   6.914  49.988  1.00  0.00     0.083 A 
HETATM   15  C16 UNL     1      25.280   6.215  50.276  1.00  0.00     0.062 A 
HETATM   16  C10 UNL     1      25.184   7.971  49.430  1.00  0.00     0.122 C 
HETATM   17  C12 UNL     1      25.880   7.119  48.144  1.00  0.00     0.080 C 
HETATM   18  C14 UNL     1      26.375   5.822  48.771  1.00  0.00     0.043 C 
HETATM   19  C15 UNL     1      25.179   5.150  49.539  1.00  0.00     0.091 A 
BRANCH  16  20
HETATM   20  O3  UNL     1      25.247   9.344  49.243  1.00  0.00    -0.377 OA
HETATM   21  C11 UNL     1      26.430  10.067  49.372  1.00  0.00     0.203 C 
ENDBRANCH  16  20
BRANCH  17  22
HETATM   22  O4  UNL     1      25.864   7.717  46.907  1.00  0.00    -0.357 OA
HETATM   23  C13 UNL     1      27.102   8.205  46.413  1.00  0.00     0.209 C 
ENDBRANCH  17  22
ENDBRANCH   5  11
BRANCH   2  24
HETATM   24  O2  UNL     1      26.430   2.384  53.802  1.00  0.00    -0.337 OA
HETATM   25  C5  UNL     1      27.713   2.309  53.231  1.00  0.00     0.212 C 
ENDBRANCH   2  24
BRANCH  10  26
HETATM   26  O5  UNL     1      22.874  -0.521  52.684  1.00  0.00    -0.351 OA
HETATM   27  C21 UNL     1      21.909  -0.567  53.722  1.00  0.00     0.210 C 
ENDBRANCH  10  26
BRANCH   1  28
HETATM   28  O1  UNL     1      25.149   0.005  54.157  1.00  0.00    -0.316 OA
BRANCH  28  29
HETATM   29  C2  UNL     1      26.151  -0.895  53.872  1.00  0.00     0.132 C 
HETATM   30  C1  UNL     1      26.551  -1.443  52.755  1.00  0.00     0.037 C 
ENDBRANCH  28  29
ENDBRANCH   1  28
TORSDOF 7
ENDMDL
