MODEL 1
REMARK VINA RESULT:      -6.8      0.000      0.000
REMARK  5 active torsions:
REMARK  status: ('A' for Active; 'I' for Inactive)
REMARK    1  A    between atoms: O1_2  and  C2_3 
REMARK    2  A    between atoms: C2_3  and  C3_4 
REMARK    3  A    between atoms: C3_4  and  O2_5 
REMARK    4  A    between atoms: O2_5  and  C4_6 
REMARK    5  A    between atoms: C8_12  and  C9_13 
ROOT
HETATM    1  C4  UNL     1      24.758   1.420  51.786  1.00  0.00     0.115 A 
HETATM    2  C5  UNL     1      24.303   2.645  51.419  1.00  0.00     0.037 A 
HETATM    3  C6  UNL     1      25.142   3.571  50.685  1.00  0.00     0.131 C 
HETATM    4  N1  UNL     1      24.683   4.785  50.958  1.00  0.00    -0.254 NA
HETATM    5  C7  UNL     1      23.501   4.884  51.787  1.00  0.00     0.228 C 
HETATM    6  N2  UNL     1      22.639   4.005  52.350  1.00  0.00    -0.255 NA
HETATM    7  C8  UNL     1      22.961   2.661  51.983  1.00  0.00     0.164 A 
HETATM    8  C15 UNL     1      22.645   1.491  52.702  1.00  0.00     0.122 A 
HETATM    9  C16 UNL     1      23.733   0.707  52.581  1.00  0.00     0.135 A 
HETATM   10  O3  UNL     1      23.605  -0.540  53.224  1.00  0.00    -0.344 OA
HETATM   11  C17 UNL     1      22.291  -1.059  53.398  1.00  0.00     0.202 C 
HETATM   12  C18 UNL     1      21.482  -0.044  54.154  1.00  0.00     0.202 C 
HETATM   13  O4  UNL     1      21.505   1.170  53.386  1.00  0.00    -0.347 OA
ENDROOT
BRANCH   7  14
HETATM   14  C9  UNL     1      22.042   2.539  50.644  1.00  0.00    -0.016 A 
HETATM   15  C10 UNL     1      22.349   1.726  49.577  1.00  0.00     0.013 A 
HETATM   16  C11 UNL     1      21.443   1.765  48.545  1.00  0.00     0.043 A 
HETATM   17  C12 UNL     1      20.324   2.535  48.549  1.00  0.00     0.116 A 
HETATM   18  F1  UNL     1      19.550   2.441  47.442  1.00  0.00    -0.206 F 
HETATM   19  C13 UNL     1      20.041   3.340  49.629  1.00  0.00     0.043 A 
HETATM   20  C14 UNL     1      20.918   3.336  50.688  1.00  0.00     0.013 A 
ENDBRANCH   7  14
BRANCH   1  21
HETATM   21  O2  UNL     1      25.982   0.745  51.586  1.00  0.00    -0.345 OA
BRANCH  21  22
HETATM   22  C3  UNL     1      26.920   0.789  52.628  1.00  0.00     0.202 C 
BRANCH  22  23
HETATM   23  C2  UNL     1      27.302  -0.527  53.206  1.00  0.00     0.193 C 
BRANCH  23  24
HETATM   24  O1  UNL     1      27.634  -0.543  54.536  1.00  0.00    -0.394 OA
HETATM   25  C1  UNL     1      28.684   0.218  54.925  1.00  0.00     0.201 C 
ENDBRANCH  23  24
ENDBRANCH  22  23
ENDBRANCH  21  22
ENDBRANCH   1  21
TORSDOF 5
ENDMDL
MODEL 2
REMARK VINA RESULT:      -6.7      3.021      4.818
REMARK  5 active torsions:
REMARK  status: ('A' for Active; 'I' for Inactive)
REMARK    1  A    between atoms: O1_2  and  C2_3 
REMARK    2  A    between atoms: C2_3  and  C3_4 
REMARK    3  A    between atoms: C3_4  and  O2_5 
REMARK    4  A    between atoms: O2_5  and  C4_6 
REMARK    5  A    between atoms: C8_12  and  C9_13 
ROOT
HETATM    1  C4  UNL     1      22.997   1.765  51.383  1.00  0.00     0.115 A 
HETATM    2  C5  UNL     1      23.511   2.943  51.822  1.00  0.00     0.037 A 
HETATM    3  C6  UNL     1      24.146   3.050  53.120  1.00  0.00     0.131 C 
HETATM    4  N1  UNL     1      24.031   4.320  53.486  1.00  0.00    -0.254 NA
HETATM    5  C7  UNL     1      23.424   5.236  52.544  1.00  0.00     0.228 C 
HETATM    6  N2  UNL     1      22.964   5.154  51.274  1.00  0.00    -0.255 NA
HETATM    7  C8  UNL     1      23.187   3.850  50.730  1.00  0.00     0.164 A 
HETATM    8  C15 UNL     1      22.462   3.234  49.690  1.00  0.00     0.122 A 
HETATM    9  C16 UNL     1      22.347   1.947  50.066  1.00  0.00     0.135 A 
HETATM   10  O3  UNL     1      21.659   1.145  49.133  1.00  0.00    -0.344 OA
HETATM   11  C17 UNL     1      21.681   1.557  47.769  1.00  0.00     0.202 C 
HETATM   12  C18 UNL     1      21.139   2.956  47.693  1.00  0.00     0.202 C 
HETATM   13  O4  UNL     1      21.965   3.775  48.536  1.00  0.00    -0.347 OA
ENDROOT
BRANCH   7  14
HETATM   14  C9  UNL     1      24.653   4.102  50.068  1.00  0.00    -0.016 A 
HETATM   15  C10 UNL     1      25.669   3.173  50.082  1.00  0.00     0.013 A 
HETATM   16  C11 UNL     1      26.828   3.579  49.467  1.00  0.00     0.043 A 
HETATM   17  C12 UNL     1      26.989   4.794  48.883  1.00  0.00     0.116 A 
HETATM   18  F1  UNL     1      28.204   5.016  48.327  1.00  0.00    -0.206 F 
HETATM   19  C13 UNL     1      25.958   5.706  48.884  1.00  0.00     0.043 A 
HETATM   20  C14 UNL     1      24.776   5.346  49.487  1.00  0.00     0.013 A 
ENDBRANCH   7  14
BRANCH   1  21
HETATM   21  O2  UNL     1      22.942   0.469  51.940  1.00  0.00    -0.345 OA
BRANCH  21  22
HETATM   22  C3  UNL     1      21.737   0.076  52.540  1.00  0.00     0.202 C 
BRANCH  22  23
HETATM   23  C2  UNL     1      21.695   0.172  54.024  1.00  0.00     0.193 C 
BRANCH  23  24
HETATM   24  O1  UNL     1      21.736  -1.007  54.720  1.00  0.00    -0.394 OA
HETATM   25  C1  UNL     1      22.908  -1.341  55.312  1.00  0.00     0.201 C 
ENDBRANCH  23  24
ENDBRANCH  22  23
ENDBRANCH  21  22
ENDBRANCH   1  21
TORSDOF 5
ENDMDL
MODEL 3
REMARK VINA RESULT:      -6.6      2.722      4.426
REMARK  5 active torsions:
REMARK  status: ('A' for Active; 'I' for Inactive)
REMARK    1  A    between atoms: O1_2  and  C2_3 
REMARK    2  A    between atoms: C2_3  and  C3_4 
REMARK    3  A    between atoms: C3_4  and  O2_5 
REMARK    4  A    between atoms: O2_5  and  C4_6 
REMARK    5  A    between atoms: C8_12  and  C9_13 
ROOT
HETATM    1  C4  UNL     1      25.447   3.566  50.107  1.00  0.00     0.115 A 
HETATM    2  C5  UNL     1      24.230   4.087  50.409  1.00  0.00     0.037 A 
HETATM    3  C6  UNL     1      23.511   4.918  49.463  1.00  0.00     0.131 C 
HETATM    4  N1  UNL     1      22.709   5.691  50.183  1.00  0.00    -0.254 NA
HETATM    5  C7  UNL     1      22.683   5.482  51.614  1.00  0.00     0.228 C 
HETATM    6  N2  UNL     1      23.252   4.605  52.474  1.00  0.00    -0.255 NA
HETATM    7  C8  UNL     1      24.021   3.623  51.773  1.00  0.00     0.164 A 
HETATM    8  C15 UNL     1      25.106   2.881  52.281  1.00  0.00     0.122 A 
HETATM    9  C16 UNL     1      25.988   2.822  51.266  1.00  0.00     0.135 A 
HETATM   10  O3  UNL     1      27.154   2.090  51.572  1.00  0.00    -0.344 OA
HETATM   11  C17 UNL     1      27.053   1.082  52.573  1.00  0.00     0.202 C 
HETATM   12  C18 UNL     1      26.543   1.722  53.833  1.00  0.00     0.202 C 
HETATM   13  O4  UNL     1      25.276   2.322  53.517  1.00  0.00    -0.347 OA
ENDROOT
BRANCH   7  14
HETATM   14  C9  UNL     1      22.862   2.499  51.563  1.00  0.00    -0.016 A 
HETATM   15  C10 UNL     1      22.645   1.837  50.375  1.00  0.00     0.013 A 
HETATM   16  C11 UNL     1      21.619   0.924  50.405  1.00  0.00     0.043 A 
HETATM   17  C12 UNL     1      20.862   0.672  51.504  1.00  0.00     0.116 A 
HETATM   18  F1  UNL     1      19.896  -0.262  51.343  1.00  0.00    -0.206 F 
HETATM   19  C13 UNL     1      21.100   1.349  52.679  1.00  0.00     0.043 A 
HETATM   20  C14 UNL     1      22.116   2.274  52.700  1.00  0.00     0.013 A 
ENDBRANCH   7  14
BRANCH   1  21
HETATM   21  O2  UNL     1      26.265   3.627  48.958  1.00  0.00    -0.345 OA
BRANCH  21  22
HETATM   22  C3  UNL     1      27.327   4.542  48.971  1.00  0.00     0.202 C 
BRANCH  22  23
HETATM   23  C2  UNL     1      26.982   5.935  48.582  1.00  0.00     0.193 C 
BRANCH  23  24
HETATM   24  O1  UNL     1      28.006   6.846  48.576  1.00  0.00    -0.394 OA
HETATM   25  C1  UNL     1      29.098   6.549  47.832  1.00  0.00     0.201 C 
ENDBRANCH  23  24
ENDBRANCH  22  23
ENDBRANCH  21  22
ENDBRANCH   1  21
TORSDOF 5
ENDMDL
MODEL 4
REMARK VINA RESULT:      -6.5      2.439      4.422
REMARK  5 active torsions:
REMARK  status: ('A' for Active; 'I' for Inactive)
REMARK    1  A    between atoms: O1_2  and  C2_3 
REMARK    2  A    between atoms: C2_3  and  C3_4 
REMARK    3  A    between atoms: C3_4  and  O2_5 
REMARK    4  A    between atoms: O2_5  and  C4_6 
REMARK    5  A    between atoms: C8_12  and  C9_13 
ROOT
HETATM    1  C4  UNL     1      22.616   0.916  51.596  1.00  0.00     0.115 A 
HETATM    2  C5  UNL     1      22.153   1.532  50.478  1.00  0.00     0.037 A 
HETATM    3  C6  UNL     1      20.833   1.246  49.952  1.00  0.00     0.131 C 
HETATM    4  N1  UNL     1      20.882   1.520  48.656  1.00  0.00    -0.254 NA
HETATM    5  C7  UNL     1      22.114   2.072  48.133  1.00  0.00     0.228 C 
HETATM    6  N2  UNL     1      23.295   2.470  48.661  1.00  0.00    -0.255 NA
HETATM    7  C8  UNL     1      23.286   2.359  50.086  1.00  0.00     0.164 A 
HETATM    8  C15 UNL     1      24.406   2.204  50.929  1.00  0.00     0.122 A 
HETATM    9  C16 UNL     1      24.009   1.331  51.873  1.00  0.00     0.135 A 
HETATM   10  O3  UNL     1      24.998   1.057  52.839  1.00  0.00    -0.344 OA
HETATM   11  C17 UNL     1      25.986   2.056  53.072  1.00  0.00     0.202 C 
HETATM   12  C18 UNL     1      26.663   2.359  51.765  1.00  0.00     0.202 C 
HETATM   13  O4  UNL     1      25.640   2.787  50.851  1.00  0.00    -0.347 OA
ENDROOT
BRANCH   7  14
HETATM   14  C9  UNL     1      22.744   3.850  50.452  1.00  0.00    -0.016 A 
HETATM   15  C10 UNL     1      21.908   4.122  51.512  1.00  0.00     0.013 A 
HETATM   16  C11 UNL     1      21.568   5.446  51.650  1.00  0.00     0.043 A 
HETATM   17  C12 UNL     1      22.005   6.430  50.823  1.00  0.00     0.116 A 
HETATM   18  F1  UNL     1      21.562   7.676  51.117  1.00  0.00    -0.206 F 
HETATM   19  C13 UNL     1      22.839   6.130  49.769  1.00  0.00     0.043 A 
HETATM   20  C14 UNL     1      23.208   4.819  49.588  1.00  0.00     0.013 A 
ENDBRANCH   7  14
BRANCH   1  21
HETATM   21  O2  UNL     1      22.050  -0.026  52.483  1.00  0.00    -0.345 OA
BRANCH  21  22
HETATM   22  C3  UNL     1      21.725   0.418  53.773  1.00  0.00     0.202 C 
BRANCH  22  23
HETATM   23  C2  UNL     1      21.185  -0.619  54.693  1.00  0.00     0.193 C 
BRANCH  23  24
HETATM   24  O1  UNL     1      22.002  -1.683  54.971  1.00  0.00    -0.394 OA
HETATM   25  C1  UNL     1      23.216  -1.412  55.508  1.00  0.00     0.201 C 
ENDBRANCH  23  24
ENDBRANCH  22  23
ENDBRANCH  21  22
ENDBRANCH   1  21
TORSDOF 5
ENDMDL
MODEL 5
REMARK VINA RESULT:      -6.4      2.361      5.102
REMARK  5 active torsions:
REMARK  status: ('A' for Active; 'I' for Inactive)
REMARK    1  A    between atoms: O1_2  and  C2_3 
REMARK    2  A    between atoms: C2_3  and  C3_4 
REMARK    3  A    between atoms: C3_4  and  O2_5 
REMARK    4  A    between atoms: O2_5  and  C4_6 
REMARK    5  A    between atoms: C8_12  and  C9_13 
ROOT
HETATM    1  C4  UNL     1      22.196   0.897  53.248  1.00  0.00     0.115 A 
HETATM    2  C5  UNL     1      21.789   1.524  52.115  1.00  0.00     0.037 A 
HETATM    3  C6  UNL     1      20.396   1.865  51.901  1.00  0.00     0.131 C 
HETATM    4  N1  UNL     1      20.226   1.924  50.587  1.00  0.00    -0.254 NA
HETATM    5  C7  UNL     1      21.392   1.733  49.751  1.00  0.00     0.228 C 
HETATM    6  N2  UNL     1      22.717   1.558  49.964  1.00  0.00    -0.255 NA
HETATM    7  C8  UNL     1      23.028   1.634  51.358  1.00  0.00     0.164 A 
HETATM    8  C15 UNL     1      24.133   1.050  52.010  1.00  0.00     0.122 A 
HETATM    9  C16 UNL     1      23.644   0.603  53.182  1.00  0.00     0.135 A 
HETATM   10  O3  UNL     1      24.615  -0.006  54.003  1.00  0.00    -0.344 OA
HETATM   11  C17 UNL     1      25.970   0.398  53.829  1.00  0.00     0.202 C 
HETATM   12  C18 UNL     1      26.346   0.172  52.392  1.00  0.00     0.202 C 
HETATM   13  O4  UNL     1      25.430   0.937  51.592  1.00  0.00    -0.347 OA
ENDROOT
BRANCH   7  14
HETATM   14  C9  UNL     1      23.332   3.231  51.460  1.00  0.00    -0.016 A 
HETATM   15  C10 UNL     1      22.959   4.014  52.529  1.00  0.00     0.013 A 
HETATM   16  C11 UNL     1      23.312   5.337  52.423  1.00  0.00     0.043 A 
HETATM   17  C12 UNL     1      23.977   5.860  51.360  1.00  0.00     0.116 A 
HETATM   18  F1  UNL     1      24.238   7.187  51.433  1.00  0.00    -0.206 F 
HETATM   19  C13 UNL     1      24.337   5.055  50.303  1.00  0.00     0.043 A 
HETATM   20  C14 UNL     1      24.006   3.722  50.363  1.00  0.00     0.013 A 
ENDBRANCH   7  14
BRANCH   1  21
HETATM   21  O2  UNL     1      21.517   0.467  54.410  1.00  0.00    -0.345 OA
BRANCH  21  22
HETATM   22  C3  UNL     1      21.382  -0.916  54.602  1.00  0.00     0.202 C 
BRANCH  22  23
HETATM   23  C2  UNL     1      20.303  -1.572  53.817  1.00  0.00     0.193 C 
BRANCH  23  24
HETATM   24  O1  UNL     1      19.174  -0.832  53.580  1.00  0.00    -0.394 OA
HETATM   25  C1  UNL     1      18.022  -1.508  53.355  1.00  0.00     0.201 C 
ENDBRANCH  23  24
ENDBRANCH  22  23
ENDBRANCH  21  22
ENDBRANCH   1  21
TORSDOF 5
ENDMDL
MODEL 6
REMARK VINA RESULT:      -6.1      3.106      5.818
REMARK  5 active torsions:
REMARK  status: ('A' for Active; 'I' for Inactive)
REMARK    1  A    between atoms: O1_2  and  C2_3 
REMARK    2  A    between atoms: C2_3  and  C3_4 
REMARK    3  A    between atoms: C3_4  and  O2_5 
REMARK    4  A    between atoms: O2_5  and  C4_6 
REMARK    5  A    between atoms: C8_12  and  C9_13 
ROOT
HETATM    1  C4  UNL     1      19.454   1.086  51.635  1.00  0.00     0.115 A 
HETATM    2  C5  UNL     1      20.079   1.637  50.563  1.00  0.00     0.037 A 
HETATM    3  C6  UNL     1      19.334   2.323  49.527  1.00  0.00     0.131 C 
HETATM    4  N1  UNL     1      20.069   2.243  48.426  1.00  0.00    -0.254 NA
HETATM    5  C7  UNL     1      21.369   1.616  48.532  1.00  0.00     0.228 C 
HETATM    6  N2  UNL     1      22.117   1.106  49.537  1.00  0.00    -0.255 NA
HETATM    7  C8  UNL     1      21.472   1.286  50.801  1.00  0.00     0.164 A 
HETATM    8  C15 UNL     1      21.661   0.511  51.963  1.00  0.00     0.122 A 
HETATM    9  C16 UNL     1      20.432   0.389  52.499  1.00  0.00     0.135 A 
HETATM   10  O3  UNL     1      20.411  -0.347  53.701  1.00  0.00    -0.344 OA
HETATM   11  C17 UNL     1      21.603  -0.371  54.479  1.00  0.00     0.202 C 
HETATM   12  C18 UNL     1      22.717  -0.892  53.616  1.00  0.00     0.202 C 
HETATM   13  O4  UNL     1      22.811  -0.021  52.478  1.00  0.00    -0.347 OA
ENDROOT
BRANCH   7  14
HETATM   14  C9  UNL     1      22.109   2.729  51.204  1.00  0.00    -0.016 A 
HETATM   15  C10 UNL     1      21.389   3.747  51.789  1.00  0.00     0.013 A 
HETATM   16  C11 UNL     1      22.112   4.885  52.052  1.00  0.00     0.043 A 
HETATM   17  C12 UNL     1      23.432   5.025  51.770  1.00  0.00     0.116 A 
HETATM   18  F1  UNL     1      23.975   6.220  52.102  1.00  0.00    -0.206 F 
HETATM   19  C13 UNL     1      24.129   3.992  51.184  1.00  0.00     0.043 A 
HETATM   20  C14 UNL     1      23.450   2.831  50.900  1.00  0.00     0.013 A 
ENDBRANCH   7  14
BRANCH   1  21
HETATM   21  O2  UNL     1      18.102   1.032  52.041  1.00  0.00    -0.345 OA
BRANCH  21  22
HETATM   22  C3  UNL     1      17.333  -0.045  51.577  1.00  0.00     0.202 C 
BRANCH  22  23
HETATM   23  C2  UNL     1      16.618  -0.823  52.623  1.00  0.00     0.193 C 
BRANCH  23  24
HETATM   24  O1  UNL     1      17.366  -1.267  53.682  1.00  0.00    -0.394 OA
HETATM   25  C1  UNL     1      17.747  -2.567  53.672  1.00  0.00     0.201 C 
ENDBRANCH  23  24
ENDBRANCH  22  23
ENDBRANCH  21  22
ENDBRANCH   1  21
TORSDOF 5
ENDMDL
MODEL 7
REMARK VINA RESULT:      -6.0      2.615      3.936
REMARK  5 active torsions:
REMARK  status: ('A' for Active; 'I' for Inactive)
REMARK    1  A    between atoms: O1_2  and  C2_3 
REMARK    2  A    between atoms: C2_3  and  C3_4 
REMARK    3  A    between atoms: C3_4  and  O2_5 
REMARK    4  A    between atoms: O2_5  and  C4_6 
REMARK    5  A    between atoms: C8_12  and  C9_13 
ROOT
HETATM    1  C4  UNL     1      21.242   1.086  52.016  1.00  0.00     0.115 A 
HETATM    2  C5  UNL     1      22.288   1.876  51.663  1.00  0.00     0.037 A 
HETATM    3  C6  UNL     1      23.657   1.421  51.807  1.00  0.00     0.131 C 
HETATM    4  N1  UNL     1      24.400   2.513  51.932  1.00  0.00    -0.254 NA
HETATM    5  C7  UNL     1      23.734   3.793  51.820  1.00  0.00     0.228 C 
HETATM    6  N2  UNL     1      22.476   4.208  51.541  1.00  0.00    -0.255 NA
HETATM    7  C8  UNL     1      21.625   3.100  51.236  1.00  0.00     0.164 A 
HETATM    8  C15 UNL     1      20.223   3.050  51.372  1.00  0.00     0.122 A 
HETATM    9  C16 UNL     1      19.965   1.813  51.837  1.00  0.00     0.135 A 
HETATM   10  O3  UNL     1      18.592   1.554  52.022  1.00  0.00    -0.344 OA
HETATM   11  C17 UNL     1      17.670   2.291  51.225  1.00  0.00     0.202 C 
HETATM   12  C18 UNL     1      17.918   3.755  51.456  1.00  0.00     0.202 C 
HETATM   13  O4  UNL     1      19.288   4.011  51.104  1.00  0.00    -0.347 OA
ENDROOT
BRANCH   7  14
HETATM   14  C9  UNL     1      21.849   3.048  49.624  1.00  0.00    -0.016 A 
HETATM   15  C10 UNL     1      22.149   1.897  48.930  1.00  0.00     0.013 A 
HETATM   16  C11 UNL     1      22.296   2.065  47.575  1.00  0.00     0.043 A 
HETATM   17  C12 UNL     1      22.163   3.259  46.942  1.00  0.00     0.116 A 
HETATM   18  F1  UNL     1      22.345   3.229  45.600  1.00  0.00    -0.206 F 
HETATM   19  C13 UNL     1      21.864   4.395  47.660  1.00  0.00     0.043 A 
HETATM   20  C14 UNL     1      21.706   4.278  49.020  1.00  0.00     0.013 A 
ENDBRANCH   7  14
BRANCH   1  21
HETATM   21  O2  UNL     1      21.153  -0.228  52.527  1.00  0.00    -0.345 OA
BRANCH  21  22
HETATM   22  C3  UNL     1      20.483  -0.400  53.746  1.00  0.00     0.202 C 
BRANCH  22  23
HETATM   23  C2  UNL     1      21.336  -0.343  54.963  1.00  0.00     0.193 C 
BRANCH  23  24
HETATM   24  O1  UNL     1      22.093  -1.451  55.240  1.00  0.00    -0.394 OA
HETATM   25  C1  UNL     1      23.436  -1.288  55.301  1.00  0.00     0.201 C 
ENDBRANCH  23  24
ENDBRANCH  22  23
ENDBRANCH  21  22
ENDBRANCH   1  21
TORSDOF 5
ENDMDL
MODEL 8
REMARK VINA RESULT:      -6.0      7.884     10.470
REMARK  5 active torsions:
REMARK  status: ('A' for Active; 'I' for Inactive)
REMARK    1  A    between atoms: O1_2  and  C2_3 
REMARK    2  A    between atoms: C2_3  and  C3_4 
REMARK    3  A    between atoms: C3_4  and  O2_5 
REMARK    4  A    between atoms: O2_5  and  C4_6 
REMARK    5  A    between atoms: C8_12  and  C9_13 
ROOT
HETATM    1  C4  UNL     1      28.578   6.701  48.088  1.00  0.00     0.115 A 
HETATM    2  C5  UNL     1      28.499   7.689  47.160  1.00  0.00     0.037 A 
HETATM    3  C6  UNL     1      27.219   8.212  46.725  1.00  0.00     0.131 C 
HETATM    4  N1  UNL     1      27.412   8.698  45.506  1.00  0.00    -0.254 NA
HETATM    5  C7  UNL     1      28.759   8.668  44.977  1.00  0.00     0.228 C 
HETATM    6  N2  UNL     1      29.975   8.308  45.449  1.00  0.00    -0.255 NA
HETATM    7  C8  UNL     1      29.897   7.911  46.822  1.00  0.00     0.164 A 
HETATM    8  C15 UNL     1      30.779   7.048  47.502  1.00  0.00     0.122 A 
HETATM    9  C16 UNL     1      29.988   6.305  48.298  1.00  0.00     0.135 A 
HETATM   10  O3  UNL     1      30.695   5.378  49.091  1.00  0.00    -0.344 OA
HETATM   11  C17 UNL     1      32.050   5.683  49.409  1.00  0.00     0.202 C 
HETATM   12  C18 UNL     1      32.799   5.886  48.123  1.00  0.00     0.202 C 
HETATM   13  O4  UNL     1      32.140   6.948  47.414  1.00  0.00    -0.347 OA
ENDROOT
BRANCH   7  14
HETATM   14  C9  UNL     1      30.175   9.358  47.517  1.00  0.00    -0.016 A 
HETATM   15  C10 UNL     1      29.405   9.880  48.531  1.00  0.00     0.013 A 
HETATM   16  C11 UNL     1      29.808  11.113  48.982  1.00  0.00     0.043 A 
HETATM   17  C12 UNL     1      30.877  11.788  48.487  1.00  0.00     0.116 A 
HETATM   18  F1  UNL     1      31.120  12.992  49.057  1.00  0.00    -0.206 F 
HETATM   19  C13 UNL     1      31.630  11.243  47.471  1.00  0.00     0.043 A 
HETATM   20  C14 UNL     1      31.267  10.010  46.985  1.00  0.00     0.013 A 
ENDBRANCH   7  14
BRANCH   1  21
HETATM   21  O2  UNL     1      27.607   5.995  48.831  1.00  0.00    -0.345 OA
BRANCH  21  22
HETATM   22  C3  UNL     1      27.531   4.608  48.638  1.00  0.00     0.202 C 
BRANCH  22  23
HETATM   23  C2  UNL     1      26.570   3.887  49.516  1.00  0.00     0.193 C 
BRANCH  23  24
HETATM   24  O1  UNL     1      27.094   3.244  50.606  1.00  0.00    -0.394 OA
HETATM   25  C1  UNL     1      26.251   2.480  51.342  1.00  0.00     0.201 C 
ENDBRANCH  23  24
ENDBRANCH  22  23
ENDBRANCH  21  22
ENDBRANCH   1  21
TORSDOF 5
ENDMDL
MODEL 9
REMARK VINA RESULT:      -6.0      3.696      6.593
REMARK  5 active torsions:
REMARK  status: ('A' for Active; 'I' for Inactive)
REMARK    1  A    between atoms: O1_2  and  C2_3 
REMARK    2  A    between atoms: C2_3  and  C3_4 
REMARK    3  A    between atoms: C3_4  and  O2_5 
REMARK    4  A    between atoms: O2_5  and  C4_6 
REMARK    5  A    between atoms: C8_12  and  C9_13 
ROOT
HETATM    1  C4  UNL     1      22.960   3.129  49.107  1.00  0.00     0.115 A 
HETATM    2  C5  UNL     1      22.725   2.468  50.270  1.00  0.00     0.037 A 
HETATM    3  C6  UNL     1      22.101   1.160  50.280  1.00  0.00     0.131 C 
HETATM    4  N1  UNL     1      21.518   1.036  51.465  1.00  0.00    -0.254 NA
HETATM    5  C7  UNL     1      21.699   2.111  52.417  1.00  0.00     0.228 C 
HETATM    6  N2  UNL     1      22.404   3.265  52.449  1.00  0.00    -0.255 NA
HETATM    7  C8  UNL     1      23.197   3.417  51.268  1.00  0.00     0.164 A 
HETATM    8  C15 UNL     1      23.661   4.626  50.712  1.00  0.00     0.122 A 
HETATM    9  C16 UNL     1      23.537   4.464  49.382  1.00  0.00     0.135 A 
HETATM   10  O3  UNL     1      23.976   5.575  48.634  1.00  0.00    -0.344 OA
HETATM   11  C17 UNL     1      24.960   6.418  49.224  1.00  0.00     0.202 C 
HETATM   12  C18 UNL     1      24.429   6.906  50.543  1.00  0.00     0.202 C 
HETATM   13  O4  UNL     1      24.141   5.744  51.337  1.00  0.00    -0.347 OA
ENDROOT
BRANCH   7  14
HETATM   14  C9  UNL     1      24.561   2.694  51.788  1.00  0.00    -0.016 A 
HETATM   15  C10 UNL     1      25.470   2.085  50.952  1.00  0.00     0.013 A 
HETATM   16  C11 UNL     1      26.557   1.536  51.587  1.00  0.00     0.043 A 
HETATM   17  C12 UNL     1      26.747   1.575  52.931  1.00  0.00     0.116 A 
HETATM   18  F1  UNL     1      27.879   0.979  53.376  1.00  0.00    -0.206 F 
HETATM   19  C13 UNL     1      25.822   2.190  53.745  1.00  0.00     0.043 A 
HETATM   20  C14 UNL     1      24.716   2.755  53.156  1.00  0.00     0.013 A 
ENDBRANCH   7  14
BRANCH   1  21
HETATM   21  O2  UNL     1      22.737   2.805  47.751  1.00  0.00    -0.345 OA
BRANCH  21  22
HETATM   22  C3  UNL     1      21.677   3.454  47.100  1.00  0.00     0.202 C 
BRANCH  22  23
HETATM   23  C2  UNL     1      20.317   2.939  47.412  1.00  0.00     0.193 C 
BRANCH  23  24
HETATM   24  O1  UNL     1      19.644   3.554  48.435  1.00  0.00    -0.394 OA
HETATM   25  C1  UNL     1      18.905   2.769  49.254  1.00  0.00     0.201 C 
ENDBRANCH  23  24
ENDBRANCH  22  23
ENDBRANCH  21  22
ENDBRANCH   1  21
TORSDOF 5
ENDMDL
