MODEL 1
REMARK VINA RESULT:      -7.2      0.000      0.000
REMARK  2 active torsions:
REMARK  status: ('A' for Active; 'I' for Inactive)
REMARK    1  A    between atoms: C13_15  and  C14_16 
REMARK    2  A    between atoms: C14_16  and  N3_17 
ROOT
HETATM    1  C1  UNL     1      22.405  -1.249  54.962  1.00  0.00     0.016 C 
HETATM    2  C2  UNL     1      21.916  -0.175  54.095  1.00  0.00     0.026 C 
HETATM    3  C3  UNL     1      22.925   0.352  53.167  1.00  0.00     0.088 C 
HETATM    4  N1  UNL     1      22.684   1.571  52.987  1.00  0.00    -0.299 NA
HETATM    5  C4  UNL     1      23.504   2.418  52.092  1.00  0.00     0.117 C 
HETATM    6  C5  UNL     1      23.417   1.731  50.738  1.00  0.00     0.054 C 
HETATM    7  C6  UNL     1      22.204   2.071  50.033  1.00  0.00    -0.028 C 
HETATM    8  C7  UNL     1      21.069   1.418  50.032  1.00  0.00    -0.026 C 
HETATM    9  C8  UNL     1      21.306   0.263  50.936  1.00  0.00     0.062 C 
HETATM   10  C9  UNL     1      20.659   0.605  52.255  1.00  0.00    -0.061 C 
HETATM   11  C10 UNL     1      20.226   1.822  52.651  1.00  0.00     0.086 C 
HETATM   12  N2  UNL     1      20.354   3.010  51.830  1.00  0.00    -0.394 N 
HETATM   13  C11 UNL     1      21.381   3.890  52.261  1.00  0.00     0.087 A 
HETATM   14  C12 UNL     1      21.534   5.055  51.262  1.00  0.00     0.032 A 
HETATM   15  C13 UNL     1      23.040   4.769  51.151  1.00  0.00     0.024 A 
HETATM   16  C18 UNL     1      22.809   3.719  52.189  1.00  0.00     0.039 A 
HETATM   17  C19 UNL     1      20.657  -0.513  53.268  1.00  0.00     0.045 C 
HETATM   18  H14 UNL     1      19.761   3.263  50.995  1.00  0.00     0.159 HD
ENDROOT
BRANCH  15  19
HETATM   19  C14 UNL     1      23.790   6.018  51.583  1.00  0.00     0.277 C 
BRANCH  19  20
HETATM   20  N3  UNL     1      24.917   6.358  50.818  1.00  0.00     0.088 N 
HETATM   21  C15 UNL     1      24.913   7.327  49.797  1.00  0.00     0.274 A 
HETATM   22  C16 UNL     1      25.248   6.312  48.718  1.00  0.00     0.060 A 
HETATM   23  C17 UNL     1      25.296   5.344  49.875  1.00  0.00     0.274 A 
ENDBRANCH  19  20
ENDBRANCH  15  19
TORSDOF 2
ENDMDL
MODEL 2
REMARK VINA RESULT:      -7.0      1.562      6.169
REMARK  2 active torsions:
REMARK  status: ('A' for Active; 'I' for Inactive)
REMARK    1  A    between atoms: C13_15  and  C14_16 
REMARK    2  A    between atoms: C14_16  and  N3_17 
ROOT
HETATM    1  C1  UNL     1      27.481   4.702  48.914  1.00  0.00     0.016 C 
HETATM    2  C2  UNL     1      26.049   4.522  49.162  1.00  0.00     0.026 C 
HETATM    3  C3  UNL     1      25.735   3.980  50.490  1.00  0.00     0.088 C 
HETATM    4  N1  UNL     1      24.698   3.278  50.383  1.00  0.00    -0.299 NA
HETATM    5  C4  UNL     1      24.088   2.585  51.541  1.00  0.00     0.117 C 
HETATM    6  C5  UNL     1      23.786   3.698  52.532  1.00  0.00     0.054 C 
HETATM    7  C6  UNL     1      22.552   4.380  52.224  1.00  0.00    -0.028 C 
HETATM    8  C7  UNL     1      22.394   5.465  51.510  1.00  0.00    -0.026 C 
HETATM    9  C8  UNL     1      23.768   5.824  51.072  1.00  0.00     0.062 C 
HETATM   10  C9  UNL     1      23.897   5.369  49.638  1.00  0.00    -0.061 C 
HETATM   11  C10 UNL     1      23.067   4.535  48.978  1.00  0.00     0.086 C 
HETATM   12  N2  UNL     1      21.905   3.925  49.596  1.00  0.00    -0.394 N 
HETATM   13  C11 UNL     1      22.083   2.550  49.904  1.00  0.00     0.087 A 
HETATM   14  C12 UNL     1      20.855   2.018  50.672  1.00  0.00     0.032 A 
HETATM   15  C13 UNL     1      21.776   1.477  51.777  1.00  0.00     0.024 A 
HETATM   16  C18 UNL     1      22.906   1.949  50.921  1.00  0.00     0.039 A 
HETATM   17  C19 UNL     1      25.180   5.782  48.958  1.00  0.00     0.045 C 
HETATM   18  H14 UNL     1      20.985   4.395  49.804  1.00  0.00     0.159 HD
ENDROOT
BRANCH  15  19
HETATM   19  C14 UNL     1      21.562  -0.025  51.877  1.00  0.00     0.277 C 
BRANCH  19  20
HETATM   20  N3  UNL     1      21.069  -0.500  53.102  1.00  0.00     0.088 N 
HETATM   21  C15 UNL     1      21.114   0.229  54.305  1.00  0.00     0.274 A 
HETATM   22  C16 UNL     1      22.025  -0.780  54.980  1.00  0.00     0.060 A 
HETATM   23  C17 UNL     1      21.878  -1.535  53.682  1.00  0.00     0.274 A 
ENDBRANCH  19  20
ENDBRANCH  15  19
TORSDOF 2
ENDMDL
MODEL 3
REMARK VINA RESULT:      -7.0     10.765     12.174
REMARK  2 active torsions:
REMARK  status: ('A' for Active; 'I' for Inactive)
REMARK    1  A    between atoms: C13_15  and  C14_16 
REMARK    2  A    between atoms: C14_16  and  N3_17 
ROOT
HETATM    1  C1  UNL     1      32.494   1.461  46.874  1.00  0.00     0.016 C 
HETATM    2  C2  UNL     1      32.908   2.853  46.681  1.00  0.00     0.026 C 
HETATM    3  C3  UNL     1      32.397   3.776  47.702  1.00  0.00     0.088 C 
HETATM    4  N1  UNL     1      32.217   4.892  47.155  1.00  0.00    -0.299 NA
HETATM    5  C4  UNL     1      31.715   6.068  47.902  1.00  0.00     0.117 C 
HETATM    6  C5  UNL     1      32.727   6.266  49.019  1.00  0.00     0.054 C 
HETATM    7  C6  UNL     1      33.898   6.984  48.572  1.00  0.00    -0.028 C 
HETATM    8  C7  UNL     1      35.024   6.483  48.131  1.00  0.00    -0.026 C 
HETATM    9  C8  UNL     1      34.817   5.012  48.175  1.00  0.00     0.062 C 
HETATM   10  C9  UNL     1      34.521   4.574  46.762  1.00  0.00    -0.061 C 
HETATM   11  C10 UNL     1      34.199   5.370  45.720  1.00  0.00     0.086 C 
HETATM   12  N2  UNL     1      34.068   6.809  45.838  1.00  0.00    -0.394 N 
HETATM   13  C11 UNL     1      32.722   7.259  45.835  1.00  0.00     0.087 A 
HETATM   14  C12 UNL     1      32.671   8.779  46.095  1.00  0.00     0.032 A 
HETATM   15  C13 UNL     1      31.667   8.556  47.237  1.00  0.00     0.024 A 
HETATM   16  C18 UNL     1      31.715   7.112  46.854  1.00  0.00     0.039 A 
HETATM   17  C19 UNL     1      34.430   3.080  46.569  1.00  0.00     0.045 C 
HETATM   18  H14 UNL     1      34.856   7.508  45.903  1.00  0.00     0.159 HD
ENDROOT
BRANCH  15  19
HETATM   19  C14 UNL     1      30.396   9.319  46.904  1.00  0.00     0.277 C 
BRANCH  19  20
HETATM   20  N3  UNL     1      29.840  10.079  47.945  1.00  0.00     0.088 N 
HETATM   21  C15 UNL     1      29.799  11.486  47.957  1.00  0.00     0.274 A 
HETATM   22  C16 UNL     1      30.689  11.585  49.184  1.00  0.00     0.060 A 
HETATM   23  C17 UNL     1      30.634  10.078  49.142  1.00  0.00     0.274 A 
ENDBRANCH  19  20
ENDBRANCH  15  19
TORSDOF 2
ENDMDL
MODEL 4
REMARK VINA RESULT:      -6.8      1.430      1.711
REMARK  2 active torsions:
REMARK  status: ('A' for Active; 'I' for Inactive)
REMARK    1  A    between atoms: C13_15  and  C14_16 
REMARK    2  A    between atoms: C14_16  and  N3_17 
ROOT
HETATM    1  C1  UNL     1      24.360  -0.509  53.626  1.00  0.00     0.016 C 
HETATM    2  C2  UNL     1      23.625   0.612  53.036  1.00  0.00     0.026 C 
HETATM    3  C3  UNL     1      24.362   1.324  51.984  1.00  0.00     0.088 C 
HETATM    4  N1  UNL     1      24.017   2.531  52.022  1.00  0.00    -0.299 NA
HETATM    5  C4  UNL     1      24.560   3.540  51.085  1.00  0.00     0.117 C 
HETATM    6  C5  UNL     1      24.203   3.007  49.707  1.00  0.00     0.054 C 
HETATM    7  C6  UNL     1      22.843   3.320  49.337  1.00  0.00    -0.028 C 
HETATM    8  C7  UNL     1      21.778   2.578  49.503  1.00  0.00    -0.026 C 
HETATM    9  C8  UNL     1      22.281   1.352  50.174  1.00  0.00     0.062 C 
HETATM   10  C9  UNL     1      21.936   1.486  51.637  1.00  0.00    -0.061 C 
HETATM   11  C10 UNL     1      21.538   2.609  52.273  1.00  0.00     0.086 C 
HETATM   12  N2  UNL     1      21.406   3.889  51.605  1.00  0.00    -0.394 N 
HETATM   13  C11 UNL     1      22.453   4.798  51.909  1.00  0.00     0.087 A 
HETATM   14  C12 UNL     1      22.305   6.078  51.061  1.00  0.00     0.032 A 
HETATM   15  C13 UNL     1      23.759   5.936  50.583  1.00  0.00     0.024 A 
HETATM   16  C18 UNL     1      23.834   4.759  51.501  1.00  0.00     0.039 A 
HETATM   17  C19 UNL     1      22.231   0.264  52.471  1.00  0.00     0.045 C 
HETATM   18  H14 UNL     1      20.624   4.185  50.962  1.00  0.00     0.159 HD
ENDROOT
BRANCH  15  19
HETATM   19  C14 UNL     1      24.517   7.186  50.997  1.00  0.00     0.277 C 
BRANCH  19  20
HETATM   20  N3  UNL     1      25.747   7.404  50.358  1.00  0.00     0.088 N 
HETATM   21  C15 UNL     1      26.020   8.507  49.528  1.00  0.00     0.274 A 
HETATM   22  C16 UNL     1      26.233   7.637  48.301  1.00  0.00     0.060 A 
HETATM   23  C17 UNL     1      25.993   6.503  49.267  1.00  0.00     0.274 A 
ENDBRANCH  19  20
ENDBRANCH  15  19
TORSDOF 2
ENDMDL
MODEL 5
REMARK VINA RESULT:      -6.7      2.375      5.437
REMARK  2 active torsions:
REMARK  status: ('A' for Active; 'I' for Inactive)
REMARK    1  A    between atoms: C13_15  and  C14_16 
REMARK    2  A    between atoms: C14_16  and  N3_17 
ROOT
HETATM    1  C1  UNL     1      22.253   4.338  46.917  1.00  0.00     0.016 C 
HETATM    2  C2  UNL     1      22.043   3.948  48.313  1.00  0.00     0.026 C 
HETATM    3  C3  UNL     1      23.284   3.723  49.065  1.00  0.00     0.088 C 
HETATM    4  N1  UNL     1      23.061   2.826  49.915  1.00  0.00    -0.299 NA
HETATM    5  C4  UNL     1      24.099   2.355  50.861  1.00  0.00     0.117 C 
HETATM    6  C5  UNL     1      24.518   3.606  51.616  1.00  0.00     0.054 C 
HETATM    7  C6  UNL     1      23.608   3.923  52.691  1.00  0.00    -0.028 C 
HETATM    8  C7  UNL     1      22.577   4.728  52.656  1.00  0.00    -0.026 C 
HETATM    9  C8  UNL     1      22.542   5.224  51.256  1.00  0.00     0.062 C 
HETATM   10  C9  UNL     1      21.463   4.444  50.547  1.00  0.00    -0.061 C 
HETATM   11  C10 UNL     1      20.862   3.316  50.984  1.00  0.00     0.086 C 
HETATM   12  N2  UNL     1      21.208   2.672  52.235  1.00  0.00    -0.394 N 
HETATM   13  C11 UNL     1      21.980   1.491  52.072  1.00  0.00     0.087 A 
HETATM   14  C12 UNL     1      22.412   0.946  53.449  1.00  0.00     0.032 A 
HETATM   15  C13 UNL     1      23.876   0.910  52.981  1.00  0.00     0.024 A 
HETATM   16  C18 UNL     1      23.352   1.356  51.654  1.00  0.00     0.039 A 
HETATM   17  C19 UNL     1      21.165   4.909  49.142  1.00  0.00     0.045 C 
HETATM   18  H14 UNL     1      20.929   2.987  53.202  1.00  0.00     0.159 HD
ENDROOT
BRANCH  15  19
HETATM   19  C14 UNL     1      24.370  -0.523  53.085  1.00  0.00     0.277 C 
BRANCH  19  20
HETATM   20  N3  UNL     1      25.721  -0.688  53.426  1.00  0.00     0.088 N 
HETATM   21  C15 UNL     1      26.499   0.297  54.063  1.00  0.00     0.274 A 
HETATM   22  C16 UNL     1      27.447   0.429  52.884  1.00  0.00     0.060 A 
HETATM   23  C17 UNL     1      26.603  -0.673  52.292  1.00  0.00     0.274 A 
ENDBRANCH  19  20
ENDBRANCH  15  19
TORSDOF 2
ENDMDL
MODEL 6
REMARK VINA RESULT:      -6.7      2.775      5.023
REMARK  2 active torsions:
REMARK  status: ('A' for Active; 'I' for Inactive)
REMARK    1  A    between atoms: C13_15  and  C14_16 
REMARK    2  A    between atoms: C14_16  and  N3_17 
ROOT
HETATM    1  C1  UNL     1      27.159  -2.171  52.653  1.00  0.00     0.016 C 
HETATM    2  C2  UNL     1      26.905  -0.749  52.412  1.00  0.00     0.026 C 
HETATM    3  C3  UNL     1      25.492  -0.365  52.534  1.00  0.00     0.088 C 
HETATM    4  N1  UNL     1      25.279   0.575  51.728  1.00  0.00    -0.299 NA
HETATM    5  C4  UNL     1      23.952   1.218  51.596  1.00  0.00     0.117 C 
HETATM    6  C5  UNL     1      23.642   1.736  52.992  1.00  0.00     0.054 C 
HETATM    7  C6  UNL     1      24.287   2.999  53.260  1.00  0.00    -0.028 C 
HETATM    8  C7  UNL     1      25.445   3.201  53.834  1.00  0.00    -0.026 C 
HETATM    9  C8  UNL     1      25.954   1.837  54.130  1.00  0.00     0.062 C 
HETATM   10  C9  UNL     1      26.978   1.518  53.067  1.00  0.00    -0.061 C 
HETATM   11  C10 UNL     1      27.174   2.184  51.910  1.00  0.00     0.086 C 
HETATM   12  N2  UNL     1      26.378   3.328  51.513  1.00  0.00    -0.394 N 
HETATM   13  C11 UNL     1      25.432   3.036  50.496  1.00  0.00     0.087 A 
HETATM   14  C12 UNL     1      24.544   4.269  50.228  1.00  0.00     0.032 A 
HETATM   15  C13 UNL     1      23.284   3.410  50.421  1.00  0.00     0.024 A 
HETATM   16  C18 UNL     1      24.222   2.258  50.580  1.00  0.00     0.039 A 
HETATM   17  C19 UNL     1      27.728   0.226  53.280  1.00  0.00     0.045 C 
HETATM   18  H14 UNL     1      26.458   4.310  51.889  1.00  0.00     0.159 HD
ENDROOT
BRANCH  15  19
HETATM   19  C14 UNL     1      22.471   3.470  49.139  1.00  0.00     0.277 C 
BRANCH  19  20
HETATM   20  N3  UNL     1      21.181   2.922  49.198  1.00  0.00     0.088 N 
HETATM   21  C15 UNL     1      20.559   2.497  50.387  1.00  0.00     0.274 A 
HETATM   22  C16 UNL     1      20.489   1.050  49.931  1.00  0.00     0.060 A 
HETATM   23  C17 UNL     1      21.099   1.592  48.662  1.00  0.00     0.274 A 
ENDBRANCH  19  20
ENDBRANCH  15  19
TORSDOF 2
ENDMDL
MODEL 7
REMARK VINA RESULT:      -6.6      1.675      6.231
REMARK  2 active torsions:
REMARK  status: ('A' for Active; 'I' for Inactive)
REMARK    1  A    between atoms: C13_15  and  C14_16 
REMARK    2  A    between atoms: C14_16  and  N3_17 
ROOT
HETATM    1  C1  UNL     1      20.430   8.101  49.892  1.00  0.00     0.016 C 
HETATM    2  C2  UNL     1      21.476   7.175  50.331  1.00  0.00     0.026 C 
HETATM    3  C3  UNL     1      21.246   5.780  49.934  1.00  0.00     0.088 C 
HETATM    4  N1  UNL     1      21.732   5.041  50.826  1.00  0.00    -0.299 NA
HETATM    5  C4  UNL     1      21.688   3.563  50.742  1.00  0.00     0.117 C 
HETATM    6  C5  UNL     1      22.402   3.237  49.440  1.00  0.00     0.054 C 
HETATM    7  C6  UNL     1      23.838   3.238  49.592  1.00  0.00    -0.028 C 
HETATM    8  C7  UNL     1      24.665   4.228  49.377  1.00  0.00    -0.026 C 
HETATM    9  C8  UNL     1      23.792   5.356  48.961  1.00  0.00     0.062 C 
HETATM   10  C9  UNL     1      23.645   6.256  50.164  1.00  0.00    -0.061 C 
HETATM   11  C10 UNL     1      23.968   5.956  51.440  1.00  0.00     0.086 C 
HETATM   12  N2  UNL     1      24.503   4.668  51.838  1.00  0.00    -0.394 N 
HETATM   13  C11 UNL     1      23.560   3.845  52.508  1.00  0.00     0.087 A 
HETATM   14  C12 UNL     1      24.169   2.454  52.777  1.00  0.00     0.032 A 
HETATM   15  C13 UNL     1      22.953   1.788  52.111  1.00  0.00     0.024 A 
HETATM   16  C18 UNL     1      22.405   3.171  51.974  1.00  0.00     0.039 A 
HETATM   17  C19 UNL     1      22.911   7.548  49.902  1.00  0.00     0.045 C 
HETATM   18  H14 UNL     1      25.489   4.325  51.691  1.00  0.00     0.159 HD
ENDROOT
BRANCH  15  19
HETATM   19  C14 UNL     1      22.294   0.879  53.135  1.00  0.00     0.277 C 
BRANCH  19  20
HETATM   20  N3  UNL     1      21.407  -0.083  52.628  1.00  0.00     0.088 N 
HETATM   21  C15 UNL     1      20.458   0.173  51.621  1.00  0.00     0.274 A 
HETATM   22  C16 UNL     1      19.283  -0.117  52.538  1.00  0.00     0.060 A 
HETATM   23  C17 UNL     1      20.360  -0.436  53.546  1.00  0.00     0.274 A 
ENDBRANCH  19  20
ENDBRANCH  15  19
TORSDOF 2
ENDMDL
MODEL 8
REMARK VINA RESULT:      -6.6      2.269      5.687
REMARK  2 active torsions:
REMARK  status: ('A' for Active; 'I' for Inactive)
REMARK    1  A    between atoms: C13_15  and  C14_16 
REMARK    2  A    between atoms: C14_16  and  N3_17 
ROOT
HETATM    1  C1  UNL     1      19.327   5.527  49.205  1.00  0.00     0.016 C 
HETATM    2  C2  UNL     1      20.597   5.346  49.912  1.00  0.00     0.026 C 
HETATM    3  C3  UNL     1      21.341   4.146  49.507  1.00  0.00     0.088 C 
HETATM    4  N1  UNL     1      21.970   3.727  50.510  1.00  0.00    -0.299 NA
HETATM    5  C4  UNL     1      22.841   2.531  50.456  1.00  0.00     0.117 C 
HETATM    6  C5  UNL     1      23.864   2.856  49.379  1.00  0.00     0.054 C 
HETATM    7  C6  UNL     1      24.938   3.679  49.880  1.00  0.00    -0.028 C 
HETATM    8  C7  UNL     1      25.027   4.985  49.850  1.00  0.00    -0.026 C 
HETATM    9  C8  UNL     1      23.765   5.427  49.203  1.00  0.00     0.062 C 
HETATM   10  C9  UNL     1      22.856   5.905  50.309  1.00  0.00    -0.061 C 
HETATM   11  C10 UNL     1      23.015   5.693  51.632  1.00  0.00     0.086 C 
HETATM   12  N2  UNL     1      24.116   4.927  52.182  1.00  0.00    -0.394 N 
HETATM   13  C11 UNL     1      23.741   3.629  52.621  1.00  0.00     0.087 A 
HETATM   14  C12 UNL     1      24.989   2.840  53.068  1.00  0.00     0.032 A 
HETATM   15  C13 UNL     1      24.592   1.679  52.141  1.00  0.00     0.024 A 
HETATM   16  C18 UNL     1      23.368   2.480  51.837  1.00  0.00     0.039 A 
HETATM   17  C19 UNL     1      21.570   6.542  49.840  1.00  0.00     0.045 C 
HETATM   18  H14 UNL     1      25.113   5.250  52.292  1.00  0.00     0.159 HD
ENDROOT
BRANCH  15  19
HETATM   19  C14 UNL     1      24.413   0.435  52.994  1.00  0.00     0.277 C 
BRANCH  19  20
HETATM   20  N3  UNL     1      25.482  -0.473  52.997  1.00  0.00     0.088 N 
HETATM   21  C15 UNL     1      26.470  -0.525  53.999  1.00  0.00     0.274 A 
HETATM   22  C16 UNL     1      27.585  -0.157  53.036  1.00  0.00     0.060 A 
HETATM   23  C17 UNL     1      26.482  -0.183  52.007  1.00  0.00     0.274 A 
ENDBRANCH  19  20
ENDBRANCH  15  19
TORSDOF 2
ENDMDL
MODEL 9
REMARK VINA RESULT:      -6.6      2.553      6.392
REMARK  2 active torsions:
REMARK  status: ('A' for Active; 'I' for Inactive)
REMARK    1  A    between atoms: C13_15  and  C14_16 
REMARK    2  A    between atoms: C14_16  and  N3_17 
ROOT
HETATM    1  C1  UNL     1      25.730   0.147  53.045  1.00  0.00     0.016 C 
HETATM    2  C2  UNL     1      24.554   0.632  52.317  1.00  0.00     0.026 C 
HETATM    3  C3  UNL     1      23.342   0.734  53.139  1.00  0.00     0.088 C 
HETATM    4  N1  UNL     1      22.355   0.498  52.399  1.00  0.00    -0.299 NA
HETATM    5  C4  UNL     1      20.962   0.528  52.902  1.00  0.00     0.117 C 
HETATM    6  C5  UNL     1      20.791   1.934  53.456  1.00  0.00     0.054 C 
HETATM    7  C6  UNL     1      20.494   2.895  52.421  1.00  0.00    -0.028 C 
HETATM    8  C7  UNL     1      21.336   3.647  51.761  1.00  0.00    -0.026 C 
HETATM    9  C8  UNL     1      22.669   3.275  52.303  1.00  0.00     0.062 C 
HETATM   10  C9  UNL     1      23.305   2.353  51.292  1.00  0.00    -0.061 C 
HETATM   11  C10 UNL     1      22.689   1.736  50.261  1.00  0.00     0.086 C 
HETATM   12  N2  UNL     1      21.270   1.871  49.996  1.00  0.00    -0.394 N 
HETATM   13  C11 UNL     1      20.513   0.726  50.360  1.00  0.00     0.087 A 
HETATM   14  C12 UNL     1      19.008   1.003  50.167  1.00  0.00     0.032 A 
HETATM   15  C13 UNL     1      18.735   0.553  51.611  1.00  0.00     0.024 A 
HETATM   16  C18 UNL     1      20.193   0.233  51.675  1.00  0.00     0.039 A 
HETATM   17  C19 UNL     1      24.737   1.981  51.589  1.00  0.00     0.045 C 
HETATM   18  H14 UNL     1      20.788   2.701  49.559  1.00  0.00     0.159 HD
ENDROOT
BRANCH  15  19
HETATM   19  C14 UNL     1      17.769  -0.619  51.566  1.00  0.00     0.277 C 
BRANCH  19  20
HETATM   20  N3  UNL     1      17.382  -1.151  52.806  1.00  0.00     0.088 N 
HETATM   21  C15 UNL     1      18.173  -2.032  53.566  1.00  0.00     0.274 A 
HETATM   22  C16 UNL     1      17.165  -3.163  53.458  1.00  0.00     0.060 A 
HETATM   23  C17 UNL     1      16.347  -2.142  52.706  1.00  0.00     0.274 A 
ENDBRANCH  19  20
ENDBRANCH  15  19
TORSDOF 2
ENDMDL
