MODEL 1
REMARK VINA RESULT:      -6.3      0.000      0.000
REMARK  8 active torsions:
REMARK  status: ('A' for Active; 'I' for Inactive)
REMARK    1  A    between atoms: C2_2  and  O1_3 
REMARK    2  A    between atoms: C2_2  and  C5_7 
REMARK    3  A    between atoms: O1_3  and  C3_4 
REMARK    4  A    between atoms: C3_4  and  O2_5 
REMARK    5  A    between atoms: C8_12  and  N3_13 
REMARK       I    between atoms: N4_16  and  C11_17 
REMARK       I    between atoms: C11_17  and  N5_19 
REMARK    6  A    between atoms: N5_19  and  C12_20 
REMARK    7  A    between atoms: C13_21  and  S1_22 
REMARK    8  A    between atoms: S1_22  and  C14_23 
ROOT
HETATM    1  N3  UNL     1      21.159   0.850  51.829  1.00  0.00    -0.362 N 
HETATM    2  C9  UNL     1      20.389   2.044  52.248  1.00  0.00     0.144 C 
HETATM    3  C10 UNL     1      21.343   3.198  52.032  1.00  0.00     0.147 C 
HETATM    4  N4  UNL     1      21.720   3.190  50.634  1.00  0.00    -0.331 N 
HETATM    5  C11 UNL     1      22.672   4.118  50.088  1.00  0.00     0.322 C 
HETATM    6  O3  UNL     1      22.971   4.074  48.864  1.00  0.00    -0.247 OA
HETATM    7  N5  UNL     1      23.241   5.060  50.987  1.00  0.00    -0.319 N 
HETATM    8  C17 UNL     1      21.114   2.211  49.755  1.00  0.00     0.147 C 
HETATM    9  C18 UNL     1      21.273   0.819  50.388  1.00  0.00     0.144 C 
HETATM   10  H14 UNL     1      22.981   5.080  51.997  1.00  0.00     0.170 HD
ENDROOT
BRANCH   1  11
HETATM   11  C8  UNL     1      21.627   0.037  52.882  1.00  0.00     0.141 A 
HETATM   12  C5  UNL     1      22.895  -0.074  53.351  1.00  0.00     0.057 A 
HETATM   13  C6  UNL     1      23.271  -0.867  54.399  1.00  0.00     0.136 A 
HETATM   14  N1  UNL     1      22.314  -1.590  55.011  1.00  0.00    -0.253 NA
HETATM   15  C7  UNL     1      21.058  -1.505  54.574  1.00  0.00     0.234 A 
HETATM   16  N2  UNL     1      20.748  -0.723  53.557  1.00  0.00    -0.224 NA
BRANCH  12  17
HETATM   17  C2  UNL     1      23.962   0.650  52.704  1.00  0.00     0.065 C 
HETATM   18  C1  UNL     1      25.197   0.205  52.836  1.00  0.00     0.072 C 
BRANCH  17  19
HETATM   19  O1  UNL     1      24.531   1.631  51.951  1.00  0.00    -0.329 OA
BRANCH  19  20
HETATM   20  C3  UNL     1      25.872   1.925  51.737  1.00  0.00     0.343 C 
BRANCH  20  21
HETATM   21  O2  UNL     1      25.934   3.206  51.186  1.00  0.00    -0.371 OA
HETATM   22  C4  UNL     1      26.501   3.136  49.928  1.00  0.00     0.204 C 
ENDBRANCH  20  21
ENDBRANCH  19  20
ENDBRANCH  17  19
ENDBRANCH  12  17
ENDBRANCH   1  11
BRANCH   7  23
HETATM   23  C12 UNL     1      24.192   6.011  50.526  1.00  0.00     0.100 C 
HETATM   24  C13 UNL     1      24.033   7.305  50.498  1.00  0.00     0.066 C 
BRANCH  24  25
HETATM   25  S1  UNL     1      25.210   8.526  49.924  1.00  0.00    -0.113 SA
BRANCH  25  26
HETATM   26  C14 UNL     1      26.751   7.721  49.475  1.00  0.00     0.045 C 
HETATM   27  C15 UNL     1      27.109   7.191  48.317  1.00  0.00    -0.024 C 
HETATM   28  C16 UNL     1      28.374   6.512  47.896  1.00  0.00     0.036 C 
ENDBRANCH  25  26
ENDBRANCH  24  25
ENDBRANCH   7  23
TORSDOF 8
ENDMDL
MODEL 2
REMARK VINA RESULT:      -6.3      2.595      3.831
REMARK  8 active torsions:
REMARK  status: ('A' for Active; 'I' for Inactive)
REMARK    1  A    between atoms: C2_2  and  O1_3 
REMARK    2  A    between atoms: C2_2  and  C5_7 
REMARK    3  A    between atoms: O1_3  and  C3_4 
REMARK    4  A    between atoms: C3_4  and  O2_5 
REMARK    5  A    between atoms: C8_12  and  N3_13 
REMARK       I    between atoms: N4_16  and  C11_17 
REMARK       I    between atoms: C11_17  and  N5_19 
REMARK    6  A    between atoms: N5_19  and  C12_20 
REMARK    7  A    between atoms: C13_21  and  S1_22 
REMARK    8  A    between atoms: S1_22  and  C14_23 
ROOT
HETATM    1  N3  UNL     1      23.652   1.717  52.223  1.00  0.00    -0.362 N 
HETATM    2  C9  UNL     1      22.974   2.877  52.847  1.00  0.00     0.144 C 
HETATM    3  C10 UNL     1      23.743   4.077  52.339  1.00  0.00     0.147 C 
HETATM    4  N4  UNL     1      23.676   4.051  50.892  1.00  0.00    -0.331 N 
HETATM    5  C11 UNL     1      24.356   5.015  50.073  1.00  0.00     0.322 C 
HETATM    6  O3  UNL     1      24.270   4.955  48.817  1.00  0.00    -0.247 OA
HETATM    7  N5  UNL     1      25.114   6.012  50.746  1.00  0.00    -0.319 N 
HETATM    8  C17 UNL     1      22.892   3.016  50.251  1.00  0.00     0.147 C 
HETATM    9  C18 UNL     1      23.322   1.653  50.816  1.00  0.00     0.144 C 
HETATM   10  H14 UNL     1      25.173   6.045  51.787  1.00  0.00     0.170 HD
ENDROOT
BRANCH   1  11
HETATM   11  C8  UNL     1      24.468   0.961  53.088  1.00  0.00     0.141 A 
HETATM   12  C5  UNL     1      24.128  -0.135  53.812  1.00  0.00     0.057 A 
HETATM   13  C6  UNL     1      24.985  -0.837  54.612  1.00  0.00     0.136 A 
HETATM   14  N1  UNL     1      26.259  -0.410  54.690  1.00  0.00    -0.253 NA
HETATM   15  C7  UNL     1      26.627   0.665  53.993  1.00  0.00     0.234 A 
HETATM   16  N2  UNL     1      25.759   1.306  53.234  1.00  0.00    -0.224 NA
BRANCH  12  17
HETATM   17  C2  UNL     1      22.765  -0.608  53.794  1.00  0.00     0.065 C 
HETATM   18  C1  UNL     1      22.297  -1.226  54.861  1.00  0.00     0.072 C 
BRANCH  17  19
HETATM   19  O1  UNL     1      21.524  -0.828  53.279  1.00  0.00    -0.329 OA
BRANCH  19  20
HETATM   20  C3  UNL     1      20.486   0.064  53.044  1.00  0.00     0.343 C 
BRANCH  20  21
HETATM   21  O2  UNL     1      19.297  -0.667  53.063  1.00  0.00    -0.371 OA
HETATM   22  C4  UNL     1      18.488  -0.251  52.023  1.00  0.00     0.204 C 
ENDBRANCH  20  21
ENDBRANCH  19  20
ENDBRANCH  17  19
ENDBRANCH  12  17
ENDBRANCH   1  11
BRANCH   7  23
HETATM   23  C12 UNL     1      25.817   7.002  50.007  1.00  0.00     0.100 C 
HETATM   24  C13 UNL     1      25.615   8.289  50.058  1.00  0.00     0.066 C 
BRANCH  24  25
HETATM   25  S1  UNL     1      26.483   9.558  49.142  1.00  0.00    -0.113 SA
BRANCH  25  26
HETATM   26  C14 UNL     1      28.200   9.618  49.665  1.00  0.00     0.045 C 
HETATM   27  C15 UNL     1      29.289   9.289  48.990  1.00  0.00    -0.024 C 
HETATM   28  C16 UNL     1      30.733   9.321  49.381  1.00  0.00     0.036 C 
ENDBRANCH  25  26
ENDBRANCH  24  25
ENDBRANCH   7  23
TORSDOF 8
ENDMDL
MODEL 3
REMARK VINA RESULT:      -6.2      3.965      6.448
REMARK  8 active torsions:
REMARK  status: ('A' for Active; 'I' for Inactive)
REMARK    1  A    between atoms: C2_2  and  O1_3 
REMARK    2  A    between atoms: C2_2  and  C5_7 
REMARK    3  A    between atoms: O1_3  and  C3_4 
REMARK    4  A    between atoms: C3_4  and  O2_5 
REMARK    5  A    between atoms: C8_12  and  N3_13 
REMARK       I    between atoms: N4_16  and  C11_17 
REMARK       I    between atoms: C11_17  and  N5_19 
REMARK    6  A    between atoms: N5_19  and  C12_20 
REMARK    7  A    between atoms: C13_21  and  S1_22 
REMARK    8  A    between atoms: S1_22  and  C14_23 
ROOT
HETATM    1  N3  UNL     1      23.098   1.383  52.539  1.00  0.00    -0.362 N 
HETATM    2  C9  UNL     1      22.780   0.917  51.169  1.00  0.00     0.144 C 
HETATM    3  C10 UNL     1      21.352   1.365  50.946  1.00  0.00     0.147 C 
HETATM    4  N4  UNL     1      21.320   2.803  51.112  1.00  0.00    -0.331 N 
HETATM    5  C11 UNL     1      20.102   3.560  51.032  1.00  0.00     0.322 C 
HETATM    6  O3  UNL     1      20.120   4.812  51.183  1.00  0.00    -0.247 OA
HETATM    7  N5  UNL     1      18.907   2.832  50.781  1.00  0.00    -0.319 N 
HETATM    8  C17 UNL     1      22.563   3.502  51.367  1.00  0.00     0.147 C 
HETATM    9  C18 UNL     1      23.279   2.817  52.542  1.00  0.00     0.144 C 
HETATM   10  H14 UNL     1      18.912   1.796  50.658  1.00  0.00     0.170 HD
ENDROOT
BRANCH   1  11
HETATM   11  C8  UNL     1      23.132   0.374  53.524  1.00  0.00     0.141 A 
HETATM   12  C5  UNL     1      24.220  -0.219  54.076  1.00  0.00     0.057 A 
HETATM   13  C6  UNL     1      24.175  -1.175  55.051  1.00  0.00     0.136 A 
HETATM   14  N1  UNL     1      22.964  -1.558  55.497  1.00  0.00    -0.253 NA
HETATM   15  C7  UNL     1      21.873  -0.997  54.975  1.00  0.00     0.234 A 
HETATM   16  N2  UNL     1      21.973  -0.076  54.035  1.00  0.00    -0.224 NA
BRANCH  12  17
HETATM   17  C2  UNL     1      25.539   0.128  53.604  1.00  0.00     0.065 C 
HETATM   18  C1  UNL     1      26.122  -0.661  52.722  1.00  0.00     0.072 C 
BRANCH  17  19
HETATM   19  O1  UNL     1      26.679   0.865  53.509  1.00  0.00    -0.329 OA
BRANCH  19  20
HETATM   20  C3  UNL     1      26.845   2.237  53.371  1.00  0.00     0.343 C 
BRANCH  20  21
HETATM   21  O2  UNL     1      27.871   2.621  54.236  1.00  0.00    -0.371 OA
HETATM   22  C4  UNL     1      29.025   1.937  53.908  1.00  0.00     0.204 C 
ENDBRANCH  20  21
ENDBRANCH  19  20
ENDBRANCH  17  19
ENDBRANCH  12  17
ENDBRANCH   1  11
BRANCH   7  23
HETATM   23  C12 UNL     1      17.659   3.507  50.688  1.00  0.00     0.100 C 
HETATM   24  C13 UNL     1      16.592   3.251  51.390  1.00  0.00     0.066 C 
BRANCH  24  25
HETATM   25  S1  UNL     1      15.009   4.082  51.295  1.00  0.00    -0.113 SA
BRANCH  25  26
HETATM   26  C14 UNL     1      14.116   3.866  52.839  1.00  0.00     0.045 C 
HETATM   27  C15 UNL     1      12.952   4.374  53.207  1.00  0.00    -0.024 C 
HETATM   28  C16 UNL     1      12.172   4.224  54.476  1.00  0.00     0.036 C 
ENDBRANCH  25  26
ENDBRANCH  24  25
ENDBRANCH   7  23
TORSDOF 8
ENDMDL
MODEL 4
REMARK VINA RESULT:      -6.2      1.836      2.457
REMARK  8 active torsions:
REMARK  status: ('A' for Active; 'I' for Inactive)
REMARK    1  A    between atoms: C2_2  and  O1_3 
REMARK    2  A    between atoms: C2_2  and  C5_7 
REMARK    3  A    between atoms: O1_3  and  C3_4 
REMARK    4  A    between atoms: C3_4  and  O2_5 
REMARK    5  A    between atoms: C8_12  and  N3_13 
REMARK       I    between atoms: N4_16  and  C11_17 
REMARK       I    between atoms: C11_17  and  N5_19 
REMARK    6  A    between atoms: N5_19  and  C12_20 
REMARK    7  A    between atoms: C13_21  and  S1_22 
REMARK    8  A    between atoms: S1_22  and  C14_23 
ROOT
HETATM    1  N3  UNL     1      23.051   1.810  51.653  1.00  0.00    -0.362 N 
HETATM    2  C9  UNL     1      22.140   2.744  52.356  1.00  0.00     0.144 C 
HETATM    3  C10 UNL     1      22.746   4.109  52.113  1.00  0.00     0.147 C 
HETATM    4  N4  UNL     1      22.812   4.303  50.679  1.00  0.00    -0.331 N 
HETATM    5  C11 UNL     1      23.396   5.474  50.086  1.00  0.00     0.322 C 
HETATM    6  O3  UNL     1      23.432   5.601  48.833  1.00  0.00    -0.247 OA
HETATM    7  N5  UNL     1      23.918   6.452  50.975  1.00  0.00    -0.319 N 
HETATM    8  C17 UNL     1      22.266   3.278  49.813  1.00  0.00     0.147 C 
HETATM    9  C18 UNL     1      22.861   1.921  50.223  1.00  0.00     0.144 C 
HETATM   10  H14 UNL     1      23.879   6.329  52.010  1.00  0.00     0.170 HD
ENDROOT
BRANCH   1  11
HETATM   11  C8  UNL     1      23.899   1.055  52.488  1.00  0.00     0.141 A 
HETATM   12  C5  UNL     1      25.232   1.211  52.685  1.00  0.00     0.057 A 
HETATM   13  C6  UNL     1      25.988   0.454  53.536  1.00  0.00     0.136 A 
HETATM   14  N1  UNL     1      25.365  -0.516  54.230  1.00  0.00    -0.253 NA
HETATM   15  C7  UNL     1      24.055  -0.698  54.060  1.00  0.00     0.234 A 
HETATM   16  N2  UNL     1      23.372   0.062  53.225  1.00  0.00    -0.224 NA
BRANCH  12  17
HETATM   17  C2  UNL     1      25.953   2.211  51.935  1.00  0.00     0.065 C 
HETATM   18  C1  UNL     1      27.247   2.351  52.150  1.00  0.00     0.072 C 
BRANCH  17  19
HETATM   19  O1  UNL     1      26.123   3.217  51.033  1.00  0.00    -0.329 OA
BRANCH  19  20
HETATM   20  C3  UNL     1      26.478   3.159  49.691  1.00  0.00     0.343 C 
BRANCH  20  21
HETATM   21  O2  UNL     1      26.454   4.465  49.198  1.00  0.00    -0.371 OA
HETATM   22  C4  UNL     1      27.686   4.770  48.652  1.00  0.00     0.204 C 
ENDBRANCH  20  21
ENDBRANCH  19  20
ENDBRANCH  17  19
ENDBRANCH  12  17
ENDBRANCH   1  11
BRANCH   7  23
HETATM   23  C12 UNL     1      24.514   7.640  50.468  1.00  0.00     0.100 C 
HETATM   24  C13 UNL     1      25.782   7.824  50.231  1.00  0.00     0.066 C 
BRANCH  24  25
HETATM   25  S1  UNL     1      26.560   9.305  49.594  1.00  0.00    -0.113 SA
BRANCH  25  26
HETATM   26  C14 UNL     1      28.326   9.033  49.413  1.00  0.00     0.045 C 
HETATM   27  C15 UNL     1      29.301   9.922  49.315  1.00  0.00    -0.024 C 
HETATM   28  C16 UNL     1      30.779   9.745  49.162  1.00  0.00     0.036 C 
ENDBRANCH  25  26
ENDBRANCH  24  25
ENDBRANCH   7  23
TORSDOF 8
ENDMDL
MODEL 5
REMARK VINA RESULT:      -5.9      4.637      7.500
REMARK  8 active torsions:
REMARK  status: ('A' for Active; 'I' for Inactive)
REMARK    1  A    between atoms: C2_2  and  O1_3 
REMARK    2  A    between atoms: C2_2  and  C5_7 
REMARK    3  A    between atoms: O1_3  and  C3_4 
REMARK    4  A    between atoms: C3_4  and  O2_5 
REMARK    5  A    between atoms: C8_12  and  N3_13 
REMARK       I    between atoms: N4_16  and  C11_17 
REMARK       I    between atoms: C11_17  and  N5_19 
REMARK    6  A    between atoms: N5_19  and  C12_20 
REMARK    7  A    between atoms: C13_21  and  S1_22 
REMARK    8  A    between atoms: S1_22  and  C14_23 
ROOT
HETATM    1  N3  UNL     1      21.809   1.182  52.250  1.00  0.00    -0.362 N 
HETATM    2  C9  UNL     1      21.220   0.595  51.023  1.00  0.00     0.144 C 
HETATM    3  C10 UNL     1      19.741   0.892  51.141  1.00  0.00     0.147 C 
HETATM    4  N4  UNL     1      19.596   2.329  51.246  1.00  0.00    -0.331 N 
HETATM    5  C11 UNL     1      18.321   2.962  51.438  1.00  0.00     0.322 C 
HETATM    6  O3  UNL     1      18.241   4.217  51.525  1.00  0.00    -0.247 OA
HETATM    7  N5  UNL     1      17.186   2.111  51.523  1.00  0.00    -0.319 N 
HETATM    8  C17 UNL     1      20.782   3.156  51.154  1.00  0.00     0.147 C 
HETATM    9  C18 UNL     1      21.830   2.624  52.145  1.00  0.00     0.144 C 
HETATM   10  H14 UNL     1      17.272   1.074  51.448  1.00  0.00     0.170 HD
ENDROOT
BRANCH   1  11
HETATM   11  C8  UNL     1      22.187   0.251  53.238  1.00  0.00     0.141 A 
HETATM   12  C5  UNL     1      23.440  -0.091  53.629  1.00  0.00     0.057 A 
HETATM   13  C6  UNL     1      23.732  -0.986  54.619  1.00  0.00     0.136 A 
HETATM   14  N1  UNL     1      22.700  -1.573  55.254  1.00  0.00    -0.253 NA
HETATM   15  C7  UNL     1      21.455  -1.262  54.895  1.00  0.00     0.234 A 
HETATM   16  N2  UNL     1      21.229  -0.389  53.931  1.00  0.00    -0.224 NA
BRANCH  12  17
HETATM   17  C2  UNL     1      24.580   0.481  52.952  1.00  0.00     0.065 C 
HETATM   18  C1  UNL     1      25.068   1.625  53.392  1.00  0.00     0.072 C 
BRANCH  17  19
HETATM   19  O1  UNL     1      25.571   0.561  52.023  1.00  0.00    -0.329 OA
BRANCH  19  20
HETATM   20  C3  UNL     1      26.950   0.532  52.187  1.00  0.00     0.343 C 
BRANCH  20  21
HETATM   21  O2  UNL     1      27.313  -0.795  52.422  1.00  0.00    -0.371 OA
HETATM   22  C4  UNL     1      28.342  -0.831  53.344  1.00  0.00     0.204 C 
ENDBRANCH  20  21
ENDBRANCH  19  20
ENDBRANCH  17  19
ENDBRANCH  12  17
ENDBRANCH   1  11
BRANCH   7  23
HETATM   23  C12 UNL     1      15.888   2.659  51.712  1.00  0.00     0.100 C 
HETATM   24  C13 UNL     1      14.962   2.189  52.500  1.00  0.00     0.066 C 
BRANCH  24  25
HETATM   25  S1  UNL     1      13.321   2.856  52.759  1.00  0.00    -0.113 SA
BRANCH  25  26
HETATM   26  C14 UNL     1      12.433   1.841  53.945  1.00  0.00     0.045 C 
HETATM   27  C15 UNL     1      11.812   2.205  55.055  1.00  0.00    -0.024 C 
HETATM   28  C16 UNL     1      11.063   1.400  56.070  1.00  0.00     0.036 C 
ENDBRANCH  25  26
ENDBRANCH  24  25
ENDBRANCH   7  23
TORSDOF 8
ENDMDL
MODEL 6
REMARK VINA RESULT:      -5.9      3.108      4.163
REMARK  8 active torsions:
REMARK  status: ('A' for Active; 'I' for Inactive)
REMARK    1  A    between atoms: C2_2  and  O1_3 
REMARK    2  A    between atoms: C2_2  and  C5_7 
REMARK    3  A    between atoms: O1_3  and  C3_4 
REMARK    4  A    between atoms: C3_4  and  O2_5 
REMARK    5  A    between atoms: C8_12  and  N3_13 
REMARK       I    between atoms: N4_16  and  C11_17 
REMARK       I    between atoms: C11_17  and  N5_19 
REMARK    6  A    between atoms: N5_19  and  C12_20 
REMARK    7  A    between atoms: C13_21  and  S1_22 
REMARK    8  A    between atoms: S1_22  and  C14_23 
ROOT
HETATM    1  N3  UNL     1      23.429   1.569  52.676  1.00  0.00    -0.362 N 
HETATM    2  C9  UNL     1      23.444   1.404  51.204  1.00  0.00     0.144 C 
HETATM    3  C10 UNL     1      22.446   2.426  50.705  1.00  0.00     0.147 C 
HETATM    4  N4  UNL     1      22.892   3.725  51.167  1.00  0.00    -0.331 N 
HETATM    5  C11 UNL     1      22.142   4.927  50.926  1.00  0.00     0.322 C 
HETATM    6  O3  UNL     1      22.567   6.036  51.347  1.00  0.00    -0.247 OA
HETATM    7  N5  UNL     1      20.923   4.791  50.207  1.00  0.00    -0.319 N 
HETATM    8  C17 UNL     1      24.140   3.814  51.896  1.00  0.00     0.147 C 
HETATM    9  C18 UNL     1      24.112   2.789  53.042  1.00  0.00     0.144 C 
HETATM   10  H14 UNL     1      20.587   3.864  49.867  1.00  0.00     0.170 HD
ENDROOT
BRANCH   1  11
HETATM   11  C8  UNL     1      22.755   0.555  53.387  1.00  0.00     0.141 A 
HETATM   12  C5  UNL     1      23.293  -0.446  54.128  1.00  0.00     0.057 A 
HETATM   13  C6  UNL     1      22.572  -1.382  54.815  1.00  0.00     0.136 A 
HETATM   14  N1  UNL     1      21.229  -1.305  54.754  1.00  0.00    -0.253 NA
HETATM   15  C7  UNL     1      20.666  -0.335  54.034  1.00  0.00     0.234 A 
HETATM   16  N2  UNL     1      21.410   0.544  53.389  1.00  0.00    -0.224 NA
BRANCH  12  17
HETATM   17  C2  UNL     1      24.727  -0.595  54.192  1.00  0.00     0.065 C 
HETATM   18  C1  UNL     1      25.289  -0.787  55.370  1.00  0.00     0.072 C 
BRANCH  17  19
HETATM   19  O1  UNL     1      26.000  -0.663  53.715  1.00  0.00    -0.329 OA
BRANCH  19  20
HETATM   20  C3  UNL     1      26.532  -1.459  52.708  1.00  0.00     0.343 C 
BRANCH  20  21
HETATM   21  O2  UNL     1      27.815  -1.834  53.109  1.00  0.00    -0.371 OA
HETATM   22  C4  UNL     1      28.531  -0.708  53.464  1.00  0.00     0.204 C 
ENDBRANCH  20  21
ENDBRANCH  19  20
ENDBRANCH  17  19
ENDBRANCH  12  17
ENDBRANCH   1  11
BRANCH   7  23
HETATM   23  C12 UNL     1      20.122   5.932  49.929  1.00  0.00     0.100 C 
HETATM   24  C13 UNL     1      20.228   6.711  48.889  1.00  0.00     0.066 C 
BRANCH  24  25
HETATM   25  S1  UNL     1      19.235   8.153  48.512  1.00  0.00    -0.113 SA
BRANCH  25  26
HETATM   26  C14 UNL     1      20.174   9.644  48.858  1.00  0.00     0.045 C 
HETATM   27  C15 UNL     1      19.739  10.880  49.041  1.00  0.00    -0.024 C 
HETATM   28  C16 UNL     1      20.479  12.148  49.330  1.00  0.00     0.036 C 
ENDBRANCH  25  26
ENDBRANCH  24  25
ENDBRANCH   7  23
TORSDOF 8
ENDMDL
MODEL 7
REMARK VINA RESULT:      -5.8      3.879      7.013
REMARK  8 active torsions:
REMARK  status: ('A' for Active; 'I' for Inactive)
REMARK    1  A    between atoms: C2_2  and  O1_3 
REMARK    2  A    between atoms: C2_2  and  C5_7 
REMARK    3  A    between atoms: O1_3  and  C3_4 
REMARK    4  A    between atoms: C3_4  and  O2_5 
REMARK    5  A    between atoms: C8_12  and  N3_13 
REMARK       I    between atoms: N4_16  and  C11_17 
REMARK       I    between atoms: C11_17  and  N5_19 
REMARK    6  A    between atoms: N5_19  and  C12_20 
REMARK    7  A    between atoms: C13_21  and  S1_22 
REMARK    8  A    between atoms: S1_22  and  C14_23 
ROOT
HETATM    1  N3  UNL     1      25.126   2.415  52.557  1.00  0.00    -0.362 N 
HETATM    2  C9  UNL     1      25.123   2.762  51.116  1.00  0.00     0.144 C 
HETATM    3  C10 UNL     1      23.703   2.493  50.671  1.00  0.00     0.147 C 
HETATM    4  N4  UNL     1      22.832   3.315  51.486  1.00  0.00    -0.331 N 
HETATM    5  C11 UNL     1      21.401   3.265  51.376  1.00  0.00     0.322 C 
HETATM    6  O3  UNL     1      20.681   3.999  52.106  1.00  0.00    -0.247 OA
HETATM    7  N5  UNL     1      20.860   2.361  50.421  1.00  0.00    -0.319 N 
HETATM    8  C17 UNL     1      23.429   4.221  52.446  1.00  0.00     0.147 C 
HETATM    9  C18 UNL     1      24.427   3.433  53.309  1.00  0.00     0.144 C 
HETATM   10  H14 UNL     1      21.472   1.762  49.825  1.00  0.00     0.170 HD
ENDROOT
BRANCH   1  11
HETATM   11  C8  UNL     1      25.761   1.199  52.881  1.00  0.00     0.141 A 
HETATM   12  C5  UNL     1      25.188   0.043  53.302  1.00  0.00     0.057 A 
HETATM   13  C6  UNL     1      25.868  -1.111  53.572  1.00  0.00     0.136 A 
HETATM   14  N1  UNL     1      27.204  -1.102  53.408  1.00  0.00    -0.253 NA
HETATM   15  C7  UNL     1      27.801   0.017  52.997  1.00  0.00     0.234 A 
HETATM   16  N2  UNL     1      27.095   1.105  52.749  1.00  0.00    -0.224 NA
BRANCH  12  17
HETATM   17  C2  UNL     1      23.764  -0.005  53.531  1.00  0.00     0.065 C 
HETATM   18  C1  UNL     1      23.294  -0.880  54.399  1.00  0.00     0.072 C 
BRANCH  17  19
HETATM   19  O1  UNL     1      22.459   0.348  53.373  1.00  0.00    -0.329 OA
BRANCH  19  20
HETATM   20  C3  UNL     1      21.464  -0.240  52.602  1.00  0.00     0.343 C 
BRANCH  20  21
HETATM   21  O2  UNL     1      20.254   0.359  52.957  1.00  0.00    -0.371 OA
HETATM   22  C4  UNL     1      19.357  -0.618  53.345  1.00  0.00     0.204 C 
ENDBRANCH  20  21
ENDBRANCH  19  20
ENDBRANCH  17  19
ENDBRANCH  12  17
ENDBRANCH   1  11
BRANCH   7  23
HETATM   23  C12 UNL     1      19.453   2.251  50.251  1.00  0.00     0.100 C 
HETATM   24  C13 UNL     1      18.797   1.165  49.953  1.00  0.00     0.066 C 
BRANCH  24  25
HETATM   25  S1  UNL     1      17.028   0.996  49.732  1.00  0.00    -0.113 SA
BRANCH  25  26
HETATM   26  C14 UNL     1      16.448  -0.475  50.583  1.00  0.00     0.045 C 
HETATM   27  C15 UNL     1      15.343  -1.174  50.383  1.00  0.00    -0.024 C 
HETATM   28  C16 UNL     1      14.819  -2.399  51.063  1.00  0.00     0.036 C 
ENDBRANCH  25  26
ENDBRANCH  24  25
ENDBRANCH   7  23
TORSDOF 8
ENDMDL
MODEL 8
REMARK VINA RESULT:      -5.8      2.623      4.180
REMARK  8 active torsions:
REMARK  status: ('A' for Active; 'I' for Inactive)
REMARK    1  A    between atoms: C2_2  and  O1_3 
REMARK    2  A    between atoms: C2_2  and  C5_7 
REMARK    3  A    between atoms: O1_3  and  C3_4 
REMARK    4  A    between atoms: C3_4  and  O2_5 
REMARK    5  A    between atoms: C8_12  and  N3_13 
REMARK       I    between atoms: N4_16  and  C11_17 
REMARK       I    between atoms: C11_17  and  N5_19 
REMARK    6  A    between atoms: N5_19  and  C12_20 
REMARK    7  A    between atoms: C13_21  and  S1_22 
REMARK    8  A    between atoms: S1_22  and  C14_23 
ROOT
HETATM    1  N3  UNL     1      23.403   3.464  51.293  1.00  0.00    -0.362 N 
HETATM    2  C9  UNL     1      23.046   4.461  52.329  1.00  0.00     0.144 C 
HETATM    3  C10 UNL     1      23.888   5.670  51.987  1.00  0.00     0.147 C 
HETATM    4  N4  UNL     1      23.550   6.064  50.635  1.00  0.00    -0.331 N 
HETATM    5  C11 UNL     1      24.210   7.147  49.960  1.00  0.00     0.322 C 
HETATM    6  O3  UNL     1      23.884   7.455  48.782  1.00  0.00    -0.247 OA
HETATM    7  N5  UNL     1      25.228   7.829  50.680  1.00  0.00    -0.319 N 
HETATM    8  C17 UNL     1      22.506   5.339  49.940  1.00  0.00     0.147 C 
HETATM    9  C18 UNL     1      22.812   3.835  50.027  1.00  0.00     0.144 C 
HETATM   10  H14 UNL     1      25.485   7.559  51.655  1.00  0.00     0.170 HD
ENDROOT
BRANCH   1  11
HETATM   11  C8  UNL     1      24.236   2.413  51.732  1.00  0.00     0.141 A 
HETATM   12  C5  UNL     1      23.874   1.268  52.362  1.00  0.00     0.057 A 
HETATM   13  C6  UNL     1      24.738   0.278  52.735  1.00  0.00     0.136 A 
HETATM   14  N1  UNL     1      26.044   0.449  52.457  1.00  0.00    -0.253 NA
HETATM   15  C7  UNL     1      26.435   1.564  51.839  1.00  0.00     0.234 A 
HETATM   16  N2  UNL     1      25.558   2.490  51.500  1.00  0.00    -0.224 NA
BRANCH  12  17
HETATM   17  C2  UNL     1      22.492   1.055  52.719  1.00  0.00     0.065 C 
HETATM   18  C1  UNL     1      22.051  -0.183  52.824  1.00  0.00     0.072 C 
BRANCH  17  19
HETATM   19  O1  UNL     1      21.218   1.402  53.050  1.00  0.00    -0.329 OA
BRANCH  19  20
HETATM   20  C3  UNL     1      20.167   1.812  52.240  1.00  0.00     0.343 C 
BRANCH  20  21
HETATM   21  O2  UNL     1      19.846   3.121  52.604  1.00  0.00    -0.371 OA
HETATM   22  C4  UNL     1      19.318   3.783  51.512  1.00  0.00     0.204 C 
ENDBRANCH  20  21
ENDBRANCH  19  20
ENDBRANCH  17  19
ENDBRANCH  12  17
ENDBRANCH   1  11
BRANCH   7  23
HETATM   23  C12 UNL     1      25.930   8.911  50.083  1.00  0.00     0.100 C 
HETATM   24  C13 UNL     1      27.055   8.832  49.430  1.00  0.00     0.066 C 
BRANCH  24  25
HETATM   25  S1  UNL     1      27.962  10.175  48.668  1.00  0.00    -0.113 SA
BRANCH  25  26
HETATM   26  C14 UNL     1      29.711   9.772  48.614  1.00  0.00     0.045 C 
HETATM   27  C15 UNL     1      30.357   8.780  49.203  1.00  0.00    -0.024 C 
HETATM   28  C16 UNL     1      31.806   8.405  49.189  1.00  0.00     0.036 C 
ENDBRANCH  25  26
ENDBRANCH  24  25
ENDBRANCH   7  23
TORSDOF 8
ENDMDL
MODEL 9
REMARK VINA RESULT:      -5.8      2.452      3.775
REMARK  8 active torsions:
REMARK  status: ('A' for Active; 'I' for Inactive)
REMARK    1  A    between atoms: C2_2  and  O1_3 
REMARK    2  A    between atoms: C2_2  and  C5_7 
REMARK    3  A    between atoms: O1_3  and  C3_4 
REMARK    4  A    between atoms: C3_4  and  O2_5 
REMARK    5  A    between atoms: C8_12  and  N3_13 
REMARK       I    between atoms: N4_16  and  C11_17 
REMARK       I    between atoms: C11_17  and  N5_19 
REMARK    6  A    between atoms: N5_19  and  C12_20 
REMARK    7  A    between atoms: C13_21  and  S1_22 
REMARK    8  A    between atoms: S1_22  and  C14_23 
ROOT
HETATM    1  N3  UNL     1      23.585   2.015  51.578  1.00  0.00    -0.362 N 
HETATM    2  C9  UNL     1      23.120   3.132  52.433  1.00  0.00     0.144 C 
HETATM    3  C10 UNL     1      23.924   4.323  51.960  1.00  0.00     0.147 C 
HETATM    4  N4  UNL     1      23.650   4.496  50.548  1.00  0.00    -0.331 N 
HETATM    5  C11 UNL     1      24.299   5.502  49.754  1.00  0.00     0.322 C 
HETATM    6  O3  UNL     1      24.030   5.617  48.528  1.00  0.00    -0.247 OA
HETATM    7  N5  UNL     1      25.238   6.338  50.418  1.00  0.00    -0.319 N 
HETATM    8  C17 UNL     1      22.685   3.620  49.915  1.00  0.00     0.147 C 
HETATM    9  C18 UNL     1      23.055   2.164  50.241  1.00  0.00     0.144 C 
HETATM   10  H14 UNL     1      25.448   6.228  51.434  1.00  0.00     0.170 HD
ENDROOT
BRANCH   1  11
HETATM   11  C8  UNL     1      24.438   1.088  52.212  1.00  0.00     0.141 A 
HETATM   12  C5  UNL     1      24.106   0.125  53.107  1.00  0.00     0.057 A 
HETATM   13  C6  UNL     1      24.987  -0.761  53.662  1.00  0.00     0.136 A 
HETATM   14  N1  UNL     1      26.279  -0.671  53.293  1.00  0.00    -0.253 NA
HETATM   15  C7  UNL     1      26.640   0.265  52.416  1.00  0.00     0.234 A 
HETATM   16  N2  UNL     1      25.748   1.096  51.910  1.00  0.00    -0.224 NA
BRANCH  12  17
HETATM   17  C2  UNL     1      22.742   0.014  53.564  1.00  0.00     0.065 C 
HETATM   18  C1  UNL     1      22.268  -1.183  53.853  1.00  0.00     0.072 C 
BRANCH  17  19
HETATM   19  O1  UNL     1      21.502   0.451  53.918  1.00  0.00    -0.329 OA
BRANCH  19  20
HETATM   20  C3  UNL     1      20.265   0.180  53.347  1.00  0.00     0.343 C 
BRANCH  20  21
HETATM   21  O2  UNL     1      20.016   1.177  52.403  1.00  0.00    -0.371 OA
HETATM   22  C4  UNL     1      19.885   0.602  51.154  1.00  0.00     0.204 C 
ENDBRANCH  20  21
ENDBRANCH  19  20
ENDBRANCH  17  19
ENDBRANCH  12  17
ENDBRANCH   1  11
BRANCH   7  23
HETATM   23  C12 UNL     1      25.924   7.358  49.704  1.00  0.00     0.100 C 
HETATM   24  C13 UNL     1      27.027   7.213  49.024  1.00  0.00     0.066 C 
BRANCH  24  25
HETATM   25  S1  UNL     1      27.912   8.477  48.116  1.00  0.00    -0.113 SA
BRANCH  25  26
HETATM   26  C14 UNL     1      27.577   8.310  46.360  1.00  0.00     0.045 C 
HETATM   27  C15 UNL     1      26.482   8.620  45.687  1.00  0.00    -0.024 C 
HETATM   28  C16 UNL     1      26.157   8.500  44.231  1.00  0.00     0.036 C 
ENDBRANCH  25  26
ENDBRANCH  24  25
ENDBRANCH   7  23
TORSDOF 8
ENDMDL
