MODEL 1
REMARK VINA RESULT:      -6.6      0.000      0.000
REMARK  9 active torsions:
REMARK  status: ('A' for Active; 'I' for Inactive)
REMARK    1  A    between atoms: C2_2  and  C3_4 
REMARK    2  A    between atoms: C3_4  and  C4_5 
REMARK    3  A    between atoms: C4_5  and  N1_6 
REMARK    4  A    between atoms: N1_6  and  C5_7 
REMARK    5  A    between atoms: C8_12  and  C9_13 
REMARK    6  A    between atoms: C9_13  and  C10_14 
REMARK    7  A    between atoms: C11_15  and  C12_16 
REMARK    8  A    between atoms: C13_18  and  C14_19 
REMARK    9  A    between atoms: C15_20  and  O1_21 
ROOT
HETATM    1  C5  UNL     1      27.377   1.559  52.417  1.00  0.00     0.132 A 
HETATM    2  N2  UNL     1      28.306   2.413  52.909  1.00  0.00    -0.224 NA
HETATM    3  C6  UNL     1      28.941   2.206  54.076  1.00  0.00     0.234 A 
HETATM    4  N3  UNL     1      28.675   1.113  54.825  1.00  0.00    -0.253 NA
HETATM    5  C7  UNL     1      27.753   0.196  54.410  1.00  0.00     0.129 A 
HETATM    6  C8  UNL     1      27.129   0.454  53.206  1.00  0.00     0.009 A 
ENDROOT
BRANCH   6   7
HETATM    7  C9  UNL     1      26.140  -0.544  52.779  1.00  0.00     0.071 C 
BRANCH   7   8
HETATM    8  C10 UNL     1      24.858  -0.406  53.520  1.00  0.00    -0.020 C 
HETATM    9  C11 UNL     1      23.669  -0.488  52.898  1.00  0.00     0.021 C 
BRANCH   9  10
HETATM   10  C12 UNL     1      22.348  -0.370  53.503  1.00  0.00     0.041 C 
HETATM   11 CL1  UNL     1      22.245  -0.798  55.178  1.00  0.00    -0.084 Cl
HETATM   12  C13 UNL     1      21.289   0.036  52.821  1.00  0.00     0.090 C 
BRANCH  12  13
HETATM   13  C14 UNL     1      21.382   0.389  51.432  1.00  0.00    -0.047 C 
HETATM   14  C15 UNL     1      21.456   0.667  50.261  1.00  0.00     0.056 C 
BRANCH  14  15
HETATM   15  O1  UNL     1      21.554   0.987  48.915  1.00  0.00    -0.314 OA
HETATM   16  H15 UNL     1      20.906   1.660  48.535  1.00  0.00     0.230 HD
ENDBRANCH  14  15
ENDBRANCH  12  13
ENDBRANCH   9  10
ENDBRANCH   7   8
ENDBRANCH   6   7
BRANCH   1  17
HETATM   17  N1  UNL     1      26.727   1.801  51.185  1.00  0.00    -0.374 N 
HETATM   18  H7  UNL     1      26.859   1.065  50.436  1.00  0.00     0.161 HD
BRANCH  17  19
HETATM   19  C4  UNL     1      25.925   2.962  50.915  1.00  0.00     0.128 C 
BRANCH  19  20
HETATM   20  C3  UNL     1      24.458   2.635  51.117  1.00  0.00     0.089 C 
BRANCH  20  21
HETATM   21  C2  UNL     1      23.942   3.425  52.294  1.00  0.00     0.086 C 
HETATM   22  C1  UNL     1      23.314   4.521  52.684  1.00  0.00     0.051 C 
HETATM   23  F1  UNL     1      24.195   2.811  53.500  1.00  0.00    -0.212 F 
ENDBRANCH  20  21
ENDBRANCH  19  20
ENDBRANCH  17  19
ENDBRANCH   1  17
TORSDOF 9
ENDMDL
MODEL 2
REMARK VINA RESULT:      -6.5      2.973      4.675
REMARK  9 active torsions:
REMARK  status: ('A' for Active; 'I' for Inactive)
REMARK    1  A    between atoms: C2_2  and  C3_4 
REMARK    2  A    between atoms: C3_4  and  C4_5 
REMARK    3  A    between atoms: C4_5  and  N1_6 
REMARK    4  A    between atoms: N1_6  and  C5_7 
REMARK    5  A    between atoms: C8_12  and  C9_13 
REMARK    6  A    between atoms: C9_13  and  C10_14 
REMARK    7  A    between atoms: C11_15  and  C12_16 
REMARK    8  A    between atoms: C13_18  and  C14_19 
REMARK    9  A    between atoms: C15_20  and  O1_21 
ROOT
HETATM    1  C5  UNL     1      26.521  -0.085  53.608  1.00  0.00     0.132 A 
HETATM    2  N2  UNL     1      27.234  -0.343  54.730  1.00  0.00    -0.224 NA
HETATM    3  C6  UNL     1      28.406   0.258  55.005  1.00  0.00     0.234 A 
HETATM    4  N3  UNL     1      28.934   1.166  54.154  1.00  0.00    -0.253 NA
HETATM    5  C7  UNL     1      28.287   1.491  52.998  1.00  0.00     0.129 A 
HETATM    6  C8  UNL     1      27.089   0.847  52.762  1.00  0.00     0.009 A 
ENDROOT
BRANCH   6   7
HETATM    7  C9  UNL     1      26.410   1.210  51.512  1.00  0.00     0.071 C 
BRANCH   7   8
HETATM    8  C10 UNL     1      26.742   2.596  51.084  1.00  0.00    -0.020 C 
HETATM    9  C11 UNL     1      26.006   3.247  50.165  1.00  0.00     0.021 C 
BRANCH   9  10
HETATM   10  C12 UNL     1      26.223   4.597  49.660  1.00  0.00     0.041 C 
HETATM   11 CL1  UNL     1      27.559   4.791  48.575  1.00  0.00    -0.084 Cl
HETATM   12  C13 UNL     1      25.452   5.616  50.006  1.00  0.00     0.090 C 
BRANCH  12  13
HETATM   13  C14 UNL     1      24.346   5.447  50.907  1.00  0.00    -0.047 C 
HETATM   14  C15 UNL     1      23.418   5.286  51.659  1.00  0.00     0.056 C 
BRANCH  14  15
HETATM   15  O1  UNL     1      22.343   5.106  52.517  1.00  0.00    -0.314 OA
HETATM   16  H15 UNL     1      22.522   5.072  53.509  1.00  0.00     0.230 HD
ENDBRANCH  14  15
ENDBRANCH  12  13
ENDBRANCH   9  10
ENDBRANCH   7   8
ENDBRANCH   6   7
BRANCH   1  17
HETATM   17  N1  UNL     1      25.291  -0.730  53.348  1.00  0.00    -0.374 N 
HETATM   18  H7  UNL     1      25.264  -1.354  52.493  1.00  0.00     0.161 HD
BRANCH  17  19
HETATM   19  C4  UNL     1      24.117  -0.580  54.162  1.00  0.00     0.128 C 
BRANCH  19  20
HETATM   20  C3  UNL     1      22.894  -0.413  53.281  1.00  0.00     0.089 C 
BRANCH  20  21
HETATM   21  C2  UNL     1      23.022   0.878  52.512  1.00  0.00     0.086 C 
HETATM   22  C1  UNL     1      22.854   1.475  51.344  1.00  0.00     0.051 C 
HETATM   23  F1  UNL     1      23.511   1.910  53.280  1.00  0.00    -0.212 F 
ENDBRANCH  20  21
ENDBRANCH  19  20
ENDBRANCH  17  19
ENDBRANCH   1  17
TORSDOF 9
ENDMDL
MODEL 3
REMARK VINA RESULT:      -6.4      2.722      4.631
REMARK  9 active torsions:
REMARK  status: ('A' for Active; 'I' for Inactive)
REMARK    1  A    between atoms: C2_2  and  C3_4 
REMARK    2  A    between atoms: C3_4  and  C4_5 
REMARK    3  A    between atoms: C4_5  and  N1_6 
REMARK    4  A    between atoms: N1_6  and  C5_7 
REMARK    5  A    between atoms: C8_12  and  C9_13 
REMARK    6  A    between atoms: C9_13  and  C10_14 
REMARK    7  A    between atoms: C11_15  and  C12_16 
REMARK    8  A    between atoms: C13_18  and  C14_19 
REMARK    9  A    between atoms: C15_20  and  O1_21 
ROOT
HETATM    1  C5  UNL     1      26.154   2.724  51.905  1.00  0.00     0.132 A 
HETATM    2  N2  UNL     1      26.928   2.952  50.817  1.00  0.00    -0.224 NA
HETATM    3  C6  UNL     1      26.420   3.250  49.609  1.00  0.00     0.234 A 
HETATM    4  N3  UNL     1      25.084   3.337  49.423  1.00  0.00    -0.253 NA
HETATM    5  C7  UNL     1      24.224   3.123  50.460  1.00  0.00     0.129 A 
HETATM    6  C8  UNL     1      24.796   2.821  51.680  1.00  0.00     0.009 A 
ENDROOT
BRANCH   6   7
HETATM    7  C9  UNL     1      23.853   2.594  52.782  1.00  0.00     0.071 C 
BRANCH   7   8
HETATM    8  C10 UNL     1      23.108   1.316  52.620  1.00  0.00    -0.020 C 
HETATM    9  C11 UNL     1      22.076   0.993  53.419  1.00  0.00     0.021 C 
BRANCH   9  10
HETATM   10  C12 UNL     1      21.268  -0.219  53.367  1.00  0.00     0.041 C 
HETATM   11 CL1  UNL     1      19.876  -0.154  52.341  1.00  0.00    -0.084 Cl
HETATM   12  C13 UNL     1      21.574  -1.305  54.060  1.00  0.00     0.090 C 
BRANCH  12  13
HETATM   13  C14 UNL     1      22.731  -1.352  54.909  1.00  0.00    -0.047 C 
HETATM   14  C15 UNL     1      23.712  -1.401  55.608  1.00  0.00     0.056 C 
BRANCH  14  15
HETATM   15  O1  UNL     1      24.836  -1.466  56.419  1.00  0.00    -0.314 OA
HETATM   16  H15 UNL     1      24.803  -2.056  57.236  1.00  0.00     0.230 HD
ENDBRANCH  14  15
ENDBRANCH  12  13
ENDBRANCH   9  10
ENDBRANCH   7   8
ENDBRANCH   6   7
BRANCH   1  17
HETATM   17  N1  UNL     1      26.718   2.415  53.164  1.00  0.00    -0.374 N 
HETATM   18  H7  UNL     1      26.475   3.073  53.956  1.00  0.00     0.161 HD
BRANCH  17  19
HETATM   19  C4  UNL     1      27.576   1.289  53.405  1.00  0.00     0.128 C 
BRANCH  19  20
HETATM   20  C3  UNL     1      26.750   0.092  53.835  1.00  0.00     0.089 C 
BRANCH  20  21
HETATM   21  C2  UNL     1      26.816  -0.957  52.753  1.00  0.00     0.086 C 
HETATM   22  C1  UNL     1      26.968  -2.243  52.486  1.00  0.00     0.051 C 
HETATM   23  F1  UNL     1      26.664  -0.432  51.490  1.00  0.00    -0.212 F 
ENDBRANCH  20  21
ENDBRANCH  19  20
ENDBRANCH  17  19
ENDBRANCH   1  17
TORSDOF 9
ENDMDL
MODEL 4
REMARK VINA RESULT:      -6.3      3.224      4.010
REMARK  9 active torsions:
REMARK  status: ('A' for Active; 'I' for Inactive)
REMARK    1  A    between atoms: C2_2  and  C3_4 
REMARK    2  A    between atoms: C3_4  and  C4_5 
REMARK    3  A    between atoms: C4_5  and  N1_6 
REMARK    4  A    between atoms: N1_6  and  C5_7 
REMARK    5  A    between atoms: C8_12  and  C9_13 
REMARK    6  A    between atoms: C9_13  and  C10_14 
REMARK    7  A    between atoms: C11_15  and  C12_16 
REMARK    8  A    between atoms: C13_18  and  C14_19 
REMARK    9  A    between atoms: C15_20  and  O1_21 
ROOT
HETATM    1  C5  UNL     1      26.329   2.358  51.891  1.00  0.00     0.132 A 
HETATM    2  N2  UNL     1      27.574   1.951  52.232  1.00  0.00    -0.224 NA
HETATM    3  C6  UNL     1      27.809   0.830  52.936  1.00  0.00     0.234 A 
HETATM    4  N3  UNL     1      26.789   0.042  53.342  1.00  0.00    -0.253 NA
HETATM    5  C7  UNL     1      25.498   0.371  53.046  1.00  0.00     0.129 A 
HETATM    6  C8  UNL     1      25.311   1.531  52.322  1.00  0.00     0.009 A 
ENDROOT
BRANCH   6   7
HETATM    7  C9  UNL     1      23.915   1.867  52.015  1.00  0.00     0.071 C 
BRANCH   7   8
HETATM    8  C10 UNL     1      23.003   0.715  52.249  1.00  0.00    -0.020 C 
HETATM    9  C11 UNL     1      22.013   0.770  53.157  1.00  0.00     0.021 C 
BRANCH   9  10
HETATM   10  C12 UNL     1      21.057  -0.282  53.482  1.00  0.00     0.041 C 
HETATM   11 CL1  UNL     1      19.535  -0.197  52.662  1.00  0.00    -0.084 Cl
HETATM   12  C13 UNL     1      21.330  -1.244  54.350  1.00  0.00     0.090 C 
BRANCH  12  13
HETATM   13  C14 UNL     1      22.595  -1.307  55.027  1.00  0.00    -0.047 C 
HETATM   14  C15 UNL     1      23.654  -1.343  55.602  1.00  0.00     0.056 C 
BRANCH  14  15
HETATM   15  O1  UNL     1      24.877  -1.382  56.254  1.00  0.00    -0.314 OA
HETATM   16  H15 UNL     1      25.259  -0.518  56.608  1.00  0.00     0.230 HD
ENDBRANCH  14  15
ENDBRANCH  12  13
ENDBRANCH   9  10
ENDBRANCH   7   8
ENDBRANCH   6   7
BRANCH   1  17
HETATM   17  N1  UNL     1      26.113   3.541  51.148  1.00  0.00    -0.374 N 
HETATM   18  H7  UNL     1      25.712   4.361  51.684  1.00  0.00     0.161 HD
BRANCH  17  19
HETATM   19  C4  UNL     1      26.402   3.673  49.747  1.00  0.00     0.128 C 
BRANCH  19  20
HETATM   20  C3  UNL     1      26.195   5.111  49.310  1.00  0.00     0.089 C 
BRANCH  20  21
HETATM   21  C2  UNL     1      27.427   5.577  48.577  1.00  0.00     0.086 C 
HETATM   22  C1  UNL     1      28.077   6.618  48.083  1.00  0.00     0.051 C 
HETATM   23  F1  UNL     1      28.278   4.545  48.253  1.00  0.00    -0.212 F 
ENDBRANCH  20  21
ENDBRANCH  19  20
ENDBRANCH  17  19
ENDBRANCH   1  17
TORSDOF 9
ENDMDL
MODEL 5
REMARK VINA RESULT:      -6.3      2.017      2.381
REMARK  9 active torsions:
REMARK  status: ('A' for Active; 'I' for Inactive)
REMARK    1  A    between atoms: C2_2  and  C3_4 
REMARK    2  A    between atoms: C3_4  and  C4_5 
REMARK    3  A    between atoms: C4_5  and  N1_6 
REMARK    4  A    between atoms: N1_6  and  C5_7 
REMARK    5  A    between atoms: C8_12  and  C9_13 
REMARK    6  A    between atoms: C9_13  and  C10_14 
REMARK    7  A    between atoms: C11_15  and  C12_16 
REMARK    8  A    between atoms: C13_18  and  C14_19 
REMARK    9  A    between atoms: C15_20  and  O1_21 
ROOT
HETATM    1  C5  UNL     1      27.466   1.603  52.561  1.00  0.00     0.132 A 
HETATM    2  N2  UNL     1      28.468   2.393  53.013  1.00  0.00    -0.224 NA
HETATM    3  C6  UNL     1      29.124   2.156  54.163  1.00  0.00     0.234 A 
HETATM    4  N3  UNL     1      28.803   1.095  54.936  1.00  0.00    -0.253 NA
HETATM    5  C7  UNL     1      27.806   0.241  54.562  1.00  0.00     0.129 A 
HETATM    6  C8  UNL     1      27.164   0.528  53.374  1.00  0.00     0.009 A 
ENDROOT
BRANCH   6   7
HETATM    7  C9  UNL     1      26.094  -0.401  52.992  1.00  0.00     0.071 C 
BRANCH   7   8
HETATM    8  C10 UNL     1      24.814  -0.087  53.682  1.00  0.00    -0.020 C 
HETATM    9  C11 UNL     1      23.623  -0.341  53.113  1.00  0.00     0.021 C 
BRANCH   9  10
HETATM   10  C12 UNL     1      22.304  -0.082  53.677  1.00  0.00     0.041 C 
HETATM   11 CL1  UNL     1      21.767  -1.203  54.882  1.00  0.00    -0.084 Cl
HETATM   12  C13 UNL     1      21.559   0.944  53.296  1.00  0.00     0.090 C 
BRANCH  12  13
HETATM   13  C14 UNL     1      22.012   1.870  52.296  1.00  0.00    -0.047 C 
HETATM   14  C15 UNL     1      22.379   2.639  51.443  1.00  0.00     0.056 C 
BRANCH  14  15
HETATM   15  O1  UNL     1      22.812   3.518  50.462  1.00  0.00    -0.314 OA
HETATM   16  H15 UNL     1      22.419   3.433  49.536  1.00  0.00     0.230 HD
ENDBRANCH  14  15
ENDBRANCH  12  13
ENDBRANCH   9  10
ENDBRANCH   7   8
ENDBRANCH   6   7
BRANCH   1  17
HETATM   17  N1  UNL     1      26.797   1.875  51.347  1.00  0.00    -0.374 N 
HETATM   18  H7  UNL     1      26.650   1.050  50.700  1.00  0.00     0.161 HD
BRANCH  17  19
HETATM   19  C4  UNL     1      26.325   3.177  50.964  1.00  0.00     0.128 C 
BRANCH  19  20
HETATM   20  C3  UNL     1      26.215   3.264  49.454  1.00  0.00     0.089 C 
BRANCH  20  21
HETATM   21  C2  UNL     1      26.805   4.575  48.999  1.00  0.00     0.086 C 
HETATM   22  C1  UNL     1      26.620   5.881  48.899  1.00  0.00     0.051 C 
HETATM   23  F1  UNL     1      28.058   4.434  48.448  1.00  0.00    -0.212 F 
ENDBRANCH  20  21
ENDBRANCH  19  20
ENDBRANCH  17  19
ENDBRANCH   1  17
TORSDOF 9
ENDMDL
MODEL 6
REMARK VINA RESULT:      -6.3      2.662      4.331
REMARK  9 active torsions:
REMARK  status: ('A' for Active; 'I' for Inactive)
REMARK    1  A    between atoms: C2_2  and  C3_4 
REMARK    2  A    between atoms: C3_4  and  C4_5 
REMARK    3  A    between atoms: C4_5  and  N1_6 
REMARK    4  A    between atoms: N1_6  and  C5_7 
REMARK    5  A    between atoms: C8_12  and  C9_13 
REMARK    6  A    between atoms: C9_13  and  C10_14 
REMARK    7  A    between atoms: C11_15  and  C12_16 
REMARK    8  A    between atoms: C13_18  and  C14_19 
REMARK    9  A    between atoms: C15_20  and  O1_21 
ROOT
HETATM    1  C5  UNL     1      27.021   0.127  54.504  1.00  0.00     0.132 A 
HETATM    2  N2  UNL     1      28.185  -0.553  54.373  1.00  0.00    -0.224 NA
HETATM    3  C6  UNL     1      29.260  -0.045  53.746  1.00  0.00     0.234 A 
HETATM    4  N3  UNL     1      29.226   1.195  53.207  1.00  0.00    -0.253 NA
HETATM    5  C7  UNL     1      28.096   1.955  53.290  1.00  0.00     0.129 A 
HETATM    6  C8  UNL     1      27.020   1.389  53.944  1.00  0.00     0.009 A 
ENDROOT
BRANCH   6   7
HETATM    7  C9  UNL     1      25.815   2.223  54.020  1.00  0.00     0.071 C 
BRANCH   7   8
HETATM    8  C10 UNL     1      25.070   2.240  52.733  1.00  0.00    -0.020 C 
HETATM    9  C11 UNL     1      23.746   2.472  52.685  1.00  0.00     0.021 C 
BRANCH   9  10
HETATM   10  C12 UNL     1      22.902   2.515  51.497  1.00  0.00     0.041 C 
HETATM   11 CL1  UNL     1      22.184   1.011  51.028  1.00  0.00    -0.084 Cl
HETATM   12  C13 UNL     1      22.694   3.630  50.815  1.00  0.00     0.090 C 
BRANCH  12  13
HETATM   13  C14 UNL     1      23.294   4.874  51.211  1.00  0.00    -0.047 C 
HETATM   14  C15 UNL     1      23.814   5.912  51.535  1.00  0.00     0.056 C 
BRANCH  14  15
HETATM   15  O1  UNL     1      24.412   7.102  51.920  1.00  0.00    -0.314 OA
HETATM   16  H15 UNL     1      24.966   7.602  51.240  1.00  0.00     0.230 HD
ENDBRANCH  14  15
ENDBRANCH  12  13
ENDBRANCH   9  10
ENDBRANCH   7   8
ENDBRANCH   6   7
BRANCH   1  17
HETATM   17  N1  UNL     1      25.907  -0.432  55.172  1.00  0.00    -0.374 N 
HETATM   18  H7  UNL     1      25.943  -0.419  56.229  1.00  0.00     0.161 HD
BRANCH  17  19
HETATM   19  C4  UNL     1      24.770  -0.999  54.501  1.00  0.00     0.128 C 
BRANCH  19  20
HETATM   20  C3  UNL     1      23.639  -1.208  55.488  1.00  0.00     0.089 C 
BRANCH  20  21
HETATM   21  C2  UNL     1      22.326  -1.039  54.766  1.00  0.00     0.086 C 
HETATM   22  C1  UNL     1      21.247  -1.647  54.302  1.00  0.00     0.051 C 
HETATM   23  F1  UNL     1      22.079   0.267  54.408  1.00  0.00    -0.212 F 
ENDBRANCH  20  21
ENDBRANCH  19  20
ENDBRANCH  17  19
ENDBRANCH   1  17
TORSDOF 9
ENDMDL
MODEL 7
REMARK VINA RESULT:      -6.2      2.879      4.308
REMARK  9 active torsions:
REMARK  status: ('A' for Active; 'I' for Inactive)
REMARK    1  A    between atoms: C2_2  and  C3_4 
REMARK    2  A    between atoms: C3_4  and  C4_5 
REMARK    3  A    between atoms: C4_5  and  N1_6 
REMARK    4  A    between atoms: N1_6  and  C5_7 
REMARK    5  A    between atoms: C8_12  and  C9_13 
REMARK    6  A    between atoms: C9_13  and  C10_14 
REMARK    7  A    between atoms: C11_15  and  C12_16 
REMARK    8  A    between atoms: C13_18  and  C14_19 
REMARK    9  A    between atoms: C15_20  and  O1_21 
ROOT
HETATM    1  C5  UNL     1      27.335  -0.634  53.251  1.00  0.00     0.132 A 
HETATM    2  N2  UNL     1      28.197  -1.673  53.359  1.00  0.00    -0.224 NA
HETATM    3  C6  UNL     1      29.523  -1.508  53.510  1.00  0.00     0.234 A 
HETATM    4  N3  UNL     1      30.065  -0.271  53.562  1.00  0.00    -0.253 NA
HETATM    5  C7  UNL     1      29.275   0.837  53.462  1.00  0.00     0.129 A 
HETATM    6  C8  UNL     1      27.922   0.614  53.308  1.00  0.00     0.009 A 
ENDROOT
BRANCH   6   7
HETATM    7  C9  UNL     1      27.090   1.819  53.202  1.00  0.00     0.071 C 
BRANCH   7   8
HETATM    8  C10 UNL     1      26.898   2.237  51.787  1.00  0.00    -0.020 C 
HETATM    9  C11 UNL     1      25.775   2.853  51.378  1.00  0.00     0.021 C 
BRANCH   9  10
HETATM   10  C12 UNL     1      25.464   3.310  50.029  1.00  0.00     0.041 C 
HETATM   11 CL1  UNL     1      26.732   4.154  49.206  1.00  0.00    -0.084 Cl
HETATM   12  C13 UNL     1      24.286   3.097  49.463  1.00  0.00     0.090 C 
BRANCH  12  13
HETATM   13  C14 UNL     1      23.238   2.396  50.152  1.00  0.00    -0.047 C 
HETATM   14  C15 UNL     1      22.347   1.811  50.714  1.00  0.00     0.056 C 
BRANCH  14  15
HETATM   15  O1  UNL     1      21.321   1.146  51.368  1.00  0.00    -0.314 OA
HETATM   16  H15 UNL     1      20.385   1.232  51.002  1.00  0.00     0.230 HD
ENDBRANCH  14  15
ENDBRANCH  12  13
ENDBRANCH   9  10
ENDBRANCH   7   8
ENDBRANCH   6   7
BRANCH   1  17
HETATM   17  N1  UNL     1      25.945  -0.838  53.096  1.00  0.00    -0.374 N 
HETATM   18  H7  UNL     1      25.615  -1.077  52.118  1.00  0.00     0.161 HD
BRANCH  17  19
HETATM   19  C4  UNL     1      24.994  -0.738  54.167  1.00  0.00     0.128 C 
BRANCH  19  20
HETATM   20  C3  UNL     1      23.652  -0.282  53.628  1.00  0.00     0.089 C 
BRANCH  20  21
HETATM   21  C2  UNL     1      22.557  -0.924  54.442  1.00  0.00     0.086 C 
HETATM   22  C1  UNL     1      21.280  -1.262  54.481  1.00  0.00     0.051 C 
HETATM   23  F1  UNL     1      22.996  -1.369  55.668  1.00  0.00    -0.212 F 
ENDBRANCH  20  21
ENDBRANCH  19  20
ENDBRANCH  17  19
ENDBRANCH   1  17
TORSDOF 9
ENDMDL
MODEL 8
REMARK VINA RESULT:      -6.2      3.071      4.769
REMARK  9 active torsions:
REMARK  status: ('A' for Active; 'I' for Inactive)
REMARK    1  A    between atoms: C2_2  and  C3_4 
REMARK    2  A    between atoms: C3_4  and  C4_5 
REMARK    3  A    between atoms: C4_5  and  N1_6 
REMARK    4  A    between atoms: N1_6  and  C5_7 
REMARK    5  A    between atoms: C8_12  and  C9_13 
REMARK    6  A    between atoms: C9_13  and  C10_14 
REMARK    7  A    between atoms: C11_15  and  C12_16 
REMARK    8  A    between atoms: C13_18  and  C14_19 
REMARK    9  A    between atoms: C15_20  and  O1_21 
ROOT
HETATM    1  C5  UNL     1      24.860  -0.165  54.050  1.00  0.00     0.132 A 
HETATM    2  N2  UNL     1      26.025  -0.623  54.567  1.00  0.00    -0.224 NA
HETATM    3  C6  UNL     1      27.128   0.140  54.671  1.00  0.00     0.234 A 
HETATM    4  N3  UNL     1      27.121   1.426  54.256  1.00  0.00    -0.253 NA
HETATM    5  C7  UNL     1      25.992   1.976  53.721  1.00  0.00     0.129 A 
HETATM    6  C8  UNL     1      24.888   1.152  53.636  1.00  0.00     0.009 A 
ENDROOT
BRANCH   6   7
HETATM    7  C9  UNL     1      23.685   1.762  53.057  1.00  0.00     0.071 C 
BRANCH   7   8
HETATM    8  C10 UNL     1      23.687   1.690  51.571  1.00  0.00    -0.020 C 
HETATM    9  C11 UNL     1      22.817   2.396  50.828  1.00  0.00     0.021 C 
BRANCH   9  10
HETATM   10  C12 UNL     1      22.713   2.414  49.374  1.00  0.00     0.041 C 
HETATM   11 CL1  UNL     1      21.646   1.241  48.680  1.00  0.00    -0.084 Cl
HETATM   12  C13 UNL     1      23.390   3.271  48.626  1.00  0.00     0.090 C 
BRANCH  12  13
HETATM   13  C14 UNL     1      24.273   4.241  49.209  1.00  0.00    -0.047 C 
HETATM   14  C15 UNL     1      25.028   5.053  49.684  1.00  0.00     0.056 C 
BRANCH  14  15
HETATM   15  O1  UNL     1      25.898   5.979  50.239  1.00  0.00    -0.314 OA
HETATM   16  H15 UNL     1      26.877   5.743  50.293  1.00  0.00     0.230 HD
ENDBRANCH  14  15
ENDBRANCH  12  13
ENDBRANCH   9  10
ENDBRANCH   7   8
ENDBRANCH   6   7
BRANCH   1  17
HETATM   17  N1  UNL     1      23.717  -0.990  53.955  1.00  0.00    -0.374 N 
HETATM   18  H7  UNL     1      23.542  -1.438  53.012  1.00  0.00     0.161 HD
BRANCH  17  19
HETATM   19  C4  UNL     1      22.813  -1.238  55.044  1.00  0.00     0.128 C 
BRANCH  19  20
HETATM   20  C3  UNL     1      21.446  -1.614  54.507  1.00  0.00     0.089 C 
BRANCH  20  21
HETATM   21  C2  UNL     1      20.841  -0.409  53.831  1.00  0.00     0.086 C 
HETATM   22  C1  UNL     1      20.362   0.086  52.703  1.00  0.00     0.051 C 
HETATM   23  F1  UNL     1      20.697   0.663  54.682  1.00  0.00    -0.212 F 
ENDBRANCH  20  21
ENDBRANCH  19  20
ENDBRANCH  17  19
ENDBRANCH   1  17
TORSDOF 9
ENDMDL
MODEL 9
REMARK VINA RESULT:      -5.9      4.980      7.751
REMARK  9 active torsions:
REMARK  status: ('A' for Active; 'I' for Inactive)
REMARK    1  A    between atoms: C2_2  and  C3_4 
REMARK    2  A    between atoms: C3_4  and  C4_5 
REMARK    3  A    between atoms: C4_5  and  N1_6 
REMARK    4  A    between atoms: N1_6  and  C5_7 
REMARK    5  A    between atoms: C8_12  and  C9_13 
REMARK    6  A    between atoms: C9_13  and  C10_14 
REMARK    7  A    between atoms: C11_15  and  C12_16 
REMARK    8  A    between atoms: C13_18  and  C14_19 
REMARK    9  A    between atoms: C15_20  and  O1_21 
ROOT
HETATM    1  C5  UNL     1      25.626   2.489  51.719  1.00  0.00     0.132 A 
HETATM    2  N2  UNL     1      24.619   2.588  52.618  1.00  0.00    -0.224 NA
HETATM    3  C6  UNL     1      23.585   3.435  52.467  1.00  0.00     0.234 A 
HETATM    4  N3  UNL     1      23.505   4.243  51.387  1.00  0.00    -0.253 NA
HETATM    5  C7  UNL     1      24.474   4.214  50.426  1.00  0.00     0.129 A 
HETATM    6  C8  UNL     1      25.513   3.328  50.628  1.00  0.00     0.009 A 
ENDROOT
BRANCH   6   7
HETATM    7  C9  UNL     1      26.544   3.313  49.583  1.00  0.00     0.071 C 
BRANCH   7   8
HETATM    8  C10 UNL     1      26.798   4.674  49.037  1.00  0.00    -0.020 C 
HETATM    9  C11 UNL     1      28.000   5.026  48.548  1.00  0.00     0.021 C 
BRANCH   9  10
HETATM   10  C12 UNL     1      28.379   6.318  47.988  1.00  0.00     0.041 C 
HETATM   11 CL1  UNL     1      27.076   7.415  47.675  1.00  0.00    -0.084 Cl
HETATM   12  C13 UNL     1      29.637   6.638  47.732  1.00  0.00     0.090 C 
BRANCH  12  13
HETATM   13  C14 UNL     1      30.713   5.723  47.994  1.00  0.00    -0.047 C 
HETATM   14  C15 UNL     1      31.603   4.944  48.227  1.00  0.00     0.056 C 
BRANCH  14  15
HETATM   15  O1  UNL     1      32.634   4.058  48.500  1.00  0.00    -0.314 OA
HETATM   16  H15 UNL     1      32.773   3.765  49.456  1.00  0.00     0.230 HD
ENDBRANCH  14  15
ENDBRANCH  12  13
ENDBRANCH   9  10
ENDBRANCH   7   8
ENDBRANCH   6   7
BRANCH   1  17
HETATM   17  N1  UNL     1      26.698   1.587  51.903  1.00  0.00    -0.374 N 
HETATM   18  H7  UNL     1      26.704   0.736  51.273  1.00  0.00     0.161 HD
BRANCH  17  19
HETATM   19  C4  UNL     1      27.741   1.767  52.873  1.00  0.00     0.128 C 
BRANCH  19  20
HETATM   20  C3  UNL     1      27.678   0.663  53.912  1.00  0.00     0.089 C 
BRANCH  20  21
HETATM   21  C2  UNL     1      28.668  -0.412  53.539  1.00  0.00     0.086 C 
HETATM   22  C1  UNL     1      29.942  -0.765  53.519  1.00  0.00     0.051 C 
HETATM   23  F1  UNL     1      28.069  -1.518  52.980  1.00  0.00    -0.212 F 
ENDBRANCH  20  21
ENDBRANCH  19  20
ENDBRANCH  17  19
ENDBRANCH   1  17
TORSDOF 9
ENDMDL
