MODEL 1
REMARK VINA RESULT:      -8.3      0.000      0.000
REMARK  6 active torsions:
REMARK  status: ('A' for Active; 'I' for Inactive)
REMARK    1  A    between atoms: C7_7  and  N1_8 
REMARK    2  A    between atoms: N1_8  and  C8_9 
REMARK    3  A    between atoms: C9_10  and  C10_11 
REMARK    4  A    between atoms: C10_11  and  C11_12 
REMARK    5  A    between atoms: C11_12  and  O1_13 
REMARK    6  A    between atoms: C22_28  and  O4_29 
ROOT
HETATM    1  C1  UNL     1      29.790   2.010  54.502  1.00  0.00     0.018 C 
HETATM    2  C2  UNL     1      28.799   1.415  54.095  1.00  0.00    -0.075 C 
HETATM    3  C3  UNL     1      27.619   0.732  53.623  1.00  0.00     0.052 A 
HETATM    4  C4  UNL     1      27.690  -0.552  53.128  1.00  0.00     0.023 A 
HETATM    5  C5  UNL     1      26.557  -1.235  52.667  1.00  0.00     0.004 A 
HETATM    6  C6  UNL     1      25.336  -0.583  52.720  1.00  0.00     0.032 A 
HETATM    7  C7  UNL     1      25.282   0.708  53.221  1.00  0.00     0.067 A 
HETATM    8  C22 UNL     1      26.390   1.388  53.676  1.00  0.00     0.111 A 
ENDROOT
BRANCH   8   9
HETATM    9  O4  UNL     1      26.271   2.694  54.172  1.00  0.00    -0.357 OA
HETATM   10  H25 UNL     1      27.032   3.172  54.618  1.00  0.00     0.217 HD
ENDBRANCH   8   9
BRANCH   7  11
HETATM   11  N1  UNL     1      24.048   1.372  53.272  1.00  0.00    -0.357 N 
HETATM   12  H5  UNL     1      23.781   2.044  54.033  1.00  0.00     0.166 HD
BRANCH  11  13
HETATM   13  C8  UNL     1      22.916   1.369  52.447  1.00  0.00     0.018 C 
HETATM   14  C9  UNL     1      21.815   0.753  52.842  1.00  0.00    -0.032 C 
HETATM   15  C13 UNL     1      20.509   0.511  52.263  1.00  0.00     0.028 C 
HETATM   16  C14 UNL     1      19.995   0.831  51.124  1.00  0.00     0.118 C 
HETATM   17  N2  UNL     1      19.320   1.110  49.939  1.00  0.00    -0.254 NA
HETATM   18  C15 UNL     1      19.834   1.733  48.967  1.00  0.00     0.234 C 
HETATM   19  N3  UNL     1      20.618   2.441  48.029  1.00  0.00    -0.230 NA
HETATM   20  C16 UNL     1      20.200   3.241  47.139  1.00  0.00     0.258 C 
HETATM   21  O2  UNL     1      21.590   3.230  46.980  1.00  0.00    -0.316 OA
HETATM   22  C17 UNL     1      22.373   4.360  47.332  1.00  0.00     0.141 C 
HETATM   23  C18 UNL     1      22.971   5.065  48.327  1.00  0.00     0.024 C 
HETATM   24  C19 UNL     1      22.806   4.520  49.685  1.00  0.00     0.196 C 
HETATM   25  O3  UNL     1      24.016   4.200  50.292  1.00  0.00    -0.387 OA
HETATM   26  C20 UNL     1      23.799   3.525  51.506  1.00  0.00     0.174 C 
HETATM   27  C21 UNL     1      23.244   2.178  51.215  1.00  0.00     0.083 C 
BRANCH  14  28
HETATM   28  C10 UNL     1      21.957   0.128  54.182  1.00  0.00     0.067 C 
BRANCH  28  29
HETATM   29  C11 UNL     1      21.717  -1.364  54.113  1.00  0.00     0.171 C 
BRANCH  29  30
HETATM   30  O1  UNL     1      22.146  -2.046  55.227  1.00  0.00    -0.396 OA
HETATM   31  C12 UNL     1      23.368  -1.500  55.624  1.00  0.00     0.201 C 
ENDBRANCH  29  30
ENDBRANCH  28  29
ENDBRANCH  14  28
ENDBRANCH  11  13
ENDBRANCH   7  11
TORSDOF 6
ENDMDL
MODEL 2
REMARK VINA RESULT:      -7.7      2.773      7.112
REMARK  6 active torsions:
REMARK  status: ('A' for Active; 'I' for Inactive)
REMARK    1  A    between atoms: C7_7  and  N1_8 
REMARK    2  A    between atoms: N1_8  and  C8_9 
REMARK    3  A    between atoms: C9_10  and  C10_11 
REMARK    4  A    between atoms: C10_11  and  C11_12 
REMARK    5  A    between atoms: C11_12  and  O1_13 
REMARK    6  A    between atoms: C22_28  and  O4_29 
ROOT
HETATM    1  C1  UNL     1      27.883   8.990  49.628  1.00  0.00     0.018 C 
HETATM    2  C2  UNL     1      26.840   8.373  49.816  1.00  0.00    -0.075 C 
HETATM    3  C3  UNL     1      25.623   7.628  50.029  1.00  0.00     0.052 A 
HETATM    4  C4  UNL     1      24.478   8.248  50.478  1.00  0.00     0.023 A 
HETATM    5  C5  UNL     1      23.285   7.545  50.688  1.00  0.00     0.004 A 
HETATM    6  C6  UNL     1      23.276   6.184  50.429  1.00  0.00     0.032 A 
HETATM    7  C7  UNL     1      24.436   5.576  49.978  1.00  0.00     0.067 A 
HETATM    8  C22 UNL     1      25.615   6.258  49.768  1.00  0.00     0.111 A 
ENDROOT
BRANCH   8   9
HETATM    9  O4  UNL     1      26.756   5.585  49.310  1.00  0.00    -0.357 OA
HETATM   10  H25 UNL     1      26.896   5.362  48.341  1.00  0.00     0.217 HD
ENDBRANCH   8   9
BRANCH   7  11
HETATM   11  N1  UNL     1      24.432   4.198  49.718  1.00  0.00    -0.357 N 
HETATM   12  H5  UNL     1      24.764   3.775  48.817  1.00  0.00     0.166 HD
BRANCH  11  13
HETATM   13  C8  UNL     1      24.040   3.078  50.463  1.00  0.00     0.018 C 
HETATM   14  C9  UNL     1      22.894   2.475  50.194  1.00  0.00    -0.032 C 
HETATM   15  C13 UNL     1      22.164   1.357  50.756  1.00  0.00     0.028 C 
HETATM   16  C14 UNL     1      22.415   0.571  51.746  1.00  0.00     0.118 C 
HETATM   17  N2  UNL     1      22.562  -0.345  52.785  1.00  0.00    -0.254 NA
HETATM   18  C15 UNL     1      23.543  -0.353  53.582  1.00  0.00     0.234 C 
HETATM   19  N3  UNL     1      24.722  -0.161  54.335  1.00  0.00    -0.230 NA
HETATM   20  C16 UNL     1      25.375  -1.047  54.964  1.00  0.00     0.258 C 
HETATM   21  O2  UNL     1      26.085   0.138  55.184  1.00  0.00    -0.316 OA
HETATM   22  C17 UNL     1      27.354   0.349  54.584  1.00  0.00     0.141 C 
HETATM   23  C18 UNL     1      28.039   0.707  53.467  1.00  0.00     0.024 C 
HETATM   24  C19 UNL     1      27.217   1.047  52.293  1.00  0.00     0.196 C 
HETATM   25  O3  UNL     1      27.419   2.348  51.848  1.00  0.00    -0.387 OA
HETATM   26  C20 UNL     1      26.491   2.679  50.844  1.00  0.00     0.174 C 
HETATM   27  C21 UNL     1      25.140   2.777  51.453  1.00  0.00     0.083 C 
BRANCH  14  28
HETATM   28  C10 UNL     1      22.160   3.116  49.073  1.00  0.00     0.067 C 
BRANCH  28  29
HETATM   29  C11 UNL     1      22.069   2.188  47.882  1.00  0.00     0.171 C 
BRANCH  29  30
HETATM   30  O1  UNL     1      22.321   2.804  46.680  1.00  0.00    -0.396 OA
HETATM   31  C12 UNL     1      21.893   4.129  46.774  1.00  0.00     0.201 C 
ENDBRANCH  29  30
ENDBRANCH  28  29
ENDBRANCH  14  28
ENDBRANCH  11  13
ENDBRANCH   7  11
TORSDOF 6
ENDMDL
MODEL 3
REMARK VINA RESULT:      -7.6      2.655      5.260
REMARK  6 active torsions:
REMARK  status: ('A' for Active; 'I' for Inactive)
REMARK    1  A    between atoms: C7_7  and  N1_8 
REMARK    2  A    between atoms: N1_8  and  C8_9 
REMARK    3  A    between atoms: C9_10  and  C10_11 
REMARK    4  A    between atoms: C10_11  and  C11_12 
REMARK    5  A    between atoms: C11_12  and  O1_13 
REMARK    6  A    between atoms: C22_28  and  O4_29 
ROOT
HETATM    1  C1  UNL     1      25.216   8.441  48.171  1.00  0.00     0.018 C 
HETATM    2  C2  UNL     1      25.445   7.332  48.641  1.00  0.00    -0.075 C 
HETATM    3  C3  UNL     1      25.698   6.031  49.210  1.00  0.00     0.052 A 
HETATM    4  C4  UNL     1      26.632   5.181  48.658  1.00  0.00     0.023 A 
HETATM    5  C5  UNL     1      26.896   3.916  49.196  1.00  0.00     0.004 A 
HETATM    6  C6  UNL     1      26.189   3.524  50.321  1.00  0.00     0.032 A 
HETATM    7  C7  UNL     1      25.254   4.391  50.865  1.00  0.00     0.067 A 
HETATM    8  C22 UNL     1      24.986   5.637  50.343  1.00  0.00     0.111 A 
ENDROOT
BRANCH   8   9
HETATM    9  O4  UNL     1      24.027   6.469  50.939  1.00  0.00    -0.357 OA
HETATM   10  H25 UNL     1      23.084   6.529  50.603  1.00  0.00     0.217 HD
ENDBRANCH   8   9
BRANCH   7  11
HETATM   11  N1  UNL     1      24.533   3.996  52.001  1.00  0.00    -0.357 N 
HETATM   12  H5  UNL     1      24.485   4.561  52.884  1.00  0.00     0.166 HD
BRANCH  11  13
HETATM   13  C8  UNL     1      23.745   2.878  52.303  1.00  0.00     0.018 C 
HETATM   14  C9  UNL     1      24.223   1.927  53.088  1.00  0.00    -0.032 C 
HETATM   15  C13 UNL     1      23.734   0.652  53.571  1.00  0.00     0.028 C 
HETATM   16  C14 UNL     1      22.632   0.015  53.368  1.00  0.00     0.118 C 
HETATM   17  N2  UNL     1      21.493  -0.776  53.236  1.00  0.00    -0.254 NA
HETATM   18  C15 UNL     1      20.499  -0.463  52.521  1.00  0.00     0.234 C 
HETATM   19  N3  UNL     1      19.523   0.098  51.669  1.00  0.00    -0.230 NA
HETATM   20  C16 UNL     1      18.269  -0.080  51.728  1.00  0.00     0.258 C 
HETATM   21  O2  UNL     1      18.453   0.789  50.647  1.00  0.00    -0.316 OA
HETATM   22  C17 UNL     1      18.053   2.148  50.727  1.00  0.00     0.141 C 
HETATM   23  C18 UNL     1      18.352   3.398  51.167  1.00  0.00     0.024 C 
HETATM   24  C19 UNL     1      19.624   3.532  51.897  1.00  0.00     0.196 C 
HETATM   25  O3  UNL     1      20.509   4.416  51.287  1.00  0.00    -0.387 OA
HETATM   26  C20 UNL     1      21.765   4.376  51.919  1.00  0.00     0.174 C 
HETATM   27  C21 UNL     1      22.405   3.067  51.633  1.00  0.00     0.083 C 
BRANCH  14  28
HETATM   28  C10 UNL     1      25.602   2.214  53.559  1.00  0.00     0.067 C 
BRANCH  28  29
HETATM   29  C11 UNL     1      26.348   0.934  53.864  1.00  0.00     0.171 C 
BRANCH  29  30
HETATM   30  O1  UNL     1      27.158   1.016  54.972  1.00  0.00    -0.396 OA
HETATM   31  C12 UNL     1      28.304   0.258  54.727  1.00  0.00     0.201 C 
ENDBRANCH  29  30
ENDBRANCH  28  29
ENDBRANCH  14  28
ENDBRANCH  11  13
ENDBRANCH   7  11
TORSDOF 6
ENDMDL
MODEL 4
REMARK VINA RESULT:      -7.2      2.674      6.640
REMARK  6 active torsions:
REMARK  status: ('A' for Active; 'I' for Inactive)
REMARK    1  A    between atoms: C7_7  and  N1_8 
REMARK    2  A    between atoms: N1_8  and  C8_9 
REMARK    3  A    between atoms: C9_10  and  C10_11 
REMARK    4  A    between atoms: C10_11  and  C11_12 
REMARK    5  A    between atoms: C11_12  and  O1_13 
REMARK    6  A    between atoms: C22_28  and  O4_29 
ROOT
HETATM    1  C1  UNL     1      26.756   8.876  48.401  1.00  0.00     0.018 C 
HETATM    2  C2  UNL     1      26.648   7.700  48.727  1.00  0.00    -0.075 C 
HETATM    3  C3  UNL     1      26.504   6.320  49.126  1.00  0.00     0.052 A 
HETATM    4  C4  UNL     1      27.300   5.336  48.583  1.00  0.00     0.023 A 
HETATM    5  C5  UNL     1      27.179   3.992  48.957  1.00  0.00     0.004 A 
HETATM    6  C6  UNL     1      26.226   3.661  49.908  1.00  0.00     0.032 A 
HETATM    7  C7  UNL     1      25.435   4.665  50.444  1.00  0.00     0.067 A 
HETATM    8  C22 UNL     1      25.545   5.989  50.082  1.00  0.00     0.111 A 
ENDROOT
BRANCH   8   9
HETATM    9  O4  UNL     1      24.714   6.958  50.662  1.00  0.00    -0.357 OA
HETATM   10  H25 UNL     1      24.172   6.778  51.487  1.00  0.00     0.217 HD
ENDBRANCH   8   9
BRANCH   7  11
HETATM   11  N1  UNL     1      24.466   4.334  51.403  1.00  0.00    -0.357 N 
HETATM   12  H5  UNL     1      24.306   4.886  52.281  1.00  0.00     0.166 HD
BRANCH  11  13
HETATM   13  C8  UNL     1      23.519   3.307  51.502  1.00  0.00     0.018 C 
HETATM   14  C9  UNL     1      22.539   3.226  50.617  1.00  0.00    -0.032 C 
HETATM   15  C13 UNL     1      21.394   2.359  50.429  1.00  0.00     0.028 C 
HETATM   16  C14 UNL     1      20.949   1.355  51.104  1.00  0.00     0.118 C 
HETATM   17  N2  UNL     1      20.362   0.262  51.736  1.00  0.00    -0.254 NA
HETATM   18  C15 UNL     1      20.806  -0.257  52.799  1.00  0.00     0.234 C 
HETATM   19  N3  UNL     1      21.485  -0.658  53.971  1.00  0.00    -0.230 NA
HETATM   20  C16 UNL     1      21.531  -1.826  54.462  1.00  0.00     0.258 C 
HETATM   21  O2  UNL     1      22.299  -1.046  55.333  1.00  0.00    -0.316 OA
HETATM   22  C17 UNL     1      23.709  -1.193  55.391  1.00  0.00     0.141 C 
HETATM   23  C18 UNL     1      24.908  -0.893  54.829  1.00  0.00     0.024 C 
HETATM   24  C19 UNL     1      24.856  -0.054  53.620  1.00  0.00     0.196 C 
HETATM   25  O3  UNL     1      25.542   1.148  53.763  1.00  0.00    -0.387 OA
HETATM   26  C20 UNL     1      25.316   1.984  52.655  1.00  0.00     0.174 C 
HETATM   27  C21 UNL     1      23.903   2.440  52.677  1.00  0.00     0.083 C 
BRANCH  14  28
HETATM   28  C10 UNL     1      22.606   4.297  49.590  1.00  0.00     0.067 C 
BRANCH  28  29
HETATM   29  C11 UNL     1      21.536   5.340  49.824  1.00  0.00     0.171 C 
BRANCH  29  30
HETATM   30  O1  UNL     1      22.034   6.591  50.103  1.00  0.00    -0.396 OA
HETATM   31  C12 UNL     1      20.962   7.413  50.456  1.00  0.00     0.201 C 
ENDBRANCH  29  30
ENDBRANCH  28  29
ENDBRANCH  14  28
ENDBRANCH  11  13
ENDBRANCH   7  11
TORSDOF 6
ENDMDL
MODEL 5
REMARK VINA RESULT:      -7.1      7.637      9.587
REMARK  6 active torsions:
REMARK  status: ('A' for Active; 'I' for Inactive)
REMARK    1  A    between atoms: C7_7  and  N1_8 
REMARK    2  A    between atoms: N1_8  and  C8_9 
REMARK    3  A    between atoms: C9_10  and  C10_11 
REMARK    4  A    between atoms: C10_11  and  C11_12 
REMARK    5  A    between atoms: C11_12  and  O1_13 
REMARK    6  A    between atoms: C22_28  and  O4_29 
ROOT
HETATM    1  C1  UNL     1      34.719   3.303  47.793  1.00  0.00     0.018 C 
HETATM    2  C2  UNL     1      33.922   4.178  47.473  1.00  0.00    -0.075 C 
HETATM    3  C3  UNL     1      32.973   5.204  47.115  1.00  0.00     0.052 A 
HETATM    4  C4  UNL     1      33.088   5.899  45.931  1.00  0.00     0.023 A 
HETATM    5  C5  UNL     1      32.176   6.896  45.562  1.00  0.00     0.004 A 
HETATM    6  C6  UNL     1      31.131   7.177  46.428  1.00  0.00     0.032 A 
HETATM    7  C7  UNL     1      31.030   6.469  47.614  1.00  0.00     0.067 A 
HETATM    8  C22 UNL     1      31.922   5.487  47.986  1.00  0.00     0.111 A 
ENDROOT
BRANCH   8   9
HETATM    9  O4  UNL     1      31.765   4.805  49.202  1.00  0.00    -0.357 OA
HETATM   10  H25 UNL     1      32.452   4.162  49.550  1.00  0.00     0.217 HD
ENDBRANCH   8   9
BRANCH   7  11
HETATM   11  N1  UNL     1      29.976   6.754  48.495  1.00  0.00    -0.357 N 
HETATM   12  H5  UNL     1      30.008   6.550  49.524  1.00  0.00     0.166 HD
BRANCH  11  13
HETATM   13  C8  UNL     1      28.708   7.325  48.328  1.00  0.00     0.018 C 
HETATM   14  C9  UNL     1      27.630   6.559  48.367  1.00  0.00    -0.032 C 
HETATM   15  C13 UNL     1      26.208   6.778  48.201  1.00  0.00     0.028 C 
HETATM   16  C14 UNL     1      25.521   7.837  47.942  1.00  0.00     0.118 C 
HETATM   17  N2  UNL     1      24.661   8.898  47.668  1.00  0.00    -0.254 NA
HETATM   18  C15 UNL     1      25.049  10.083  47.464  1.00  0.00     0.234 C 
HETATM   19  N3  UNL     1      25.718  11.312  47.274  1.00  0.00    -0.230 NA
HETATM   20  C16 UNL     1      25.259  12.471  47.505  1.00  0.00     0.258 C 
HETATM   21  O2  UNL     1      26.558  12.692  47.034  1.00  0.00    -0.316 OA
HETATM   22  C17 UNL     1      27.581  13.152  47.903  1.00  0.00     0.141 C 
HETATM   23  C18 UNL     1      28.494  12.831  48.856  1.00  0.00     0.024 C 
HETATM   24  C19 UNL     1      28.539  11.411  49.246  1.00  0.00     0.196 C 
HETATM   25  O3  UNL     1      29.779  10.824  49.016  1.00  0.00    -0.387 OA
HETATM   26  C20 UNL     1      29.720   9.436  49.237  1.00  0.00     0.174 C 
HETATM   27  C21 UNL     1      28.892   8.815  48.172  1.00  0.00     0.083 C 
BRANCH  14  28
HETATM   28  C10 UNL     1      27.953   5.128  48.602  1.00  0.00     0.067 C 
BRANCH  28  29
HETATM   29  C11 UNL     1      26.761   4.388  49.166  1.00  0.00     0.171 C 
BRANCH  29  30
HETATM   30  O1  UNL     1      27.085   3.485  50.151  1.00  0.00    -0.396 OA
HETATM   31  C12 UNL     1      25.897   2.993  50.694  1.00  0.00     0.201 C 
ENDBRANCH  29  30
ENDBRANCH  28  29
ENDBRANCH  14  28
ENDBRANCH  11  13
ENDBRANCH   7  11
TORSDOF 6
ENDMDL
MODEL 6
REMARK VINA RESULT:      -7.0      2.457      7.181
REMARK  6 active torsions:
REMARK  status: ('A' for Active; 'I' for Inactive)
REMARK    1  A    between atoms: C7_7  and  N1_8 
REMARK    2  A    between atoms: N1_8  and  C8_9 
REMARK    3  A    between atoms: C9_10  and  C10_11 
REMARK    4  A    between atoms: C10_11  and  C11_12 
REMARK    5  A    between atoms: C11_12  and  O1_13 
REMARK    6  A    between atoms: C22_28  and  O4_29 
ROOT
HETATM    1  C1  UNL     1      16.766   4.264  49.300  1.00  0.00     0.018 C 
HETATM    2  C2  UNL     1      17.858   3.717  49.397  1.00  0.00    -0.075 C 
HETATM    3  C3  UNL     1      19.145   3.079  49.533  1.00  0.00     0.052 A 
HETATM    4  C4  UNL     1      19.737   2.435  48.469  1.00  0.00     0.023 A 
HETATM    5  C5  UNL     1      20.986   1.812  48.578  1.00  0.00     0.004 A 
HETATM    6  C6  UNL     1      21.634   1.858  49.803  1.00  0.00     0.032 A 
HETATM    7  C7  UNL     1      21.025   2.510  50.863  1.00  0.00     0.067 A 
HETATM    8  C22 UNL     1      19.796   3.125  50.766  1.00  0.00     0.111 A 
ENDROOT
BRANCH   8   9
HETATM    9  O4  UNL     1      19.231   3.769  51.876  1.00  0.00    -0.357 OA
HETATM   10  H25 UNL     1      19.066   3.296  52.746  1.00  0.00     0.217 HD
ENDBRANCH   8   9
BRANCH   7  11
HETATM   11  N1  UNL     1      21.675   2.554  52.104  1.00  0.00    -0.357 N 
HETATM   12  H5  UNL     1      21.634   3.379  52.752  1.00  0.00     0.166 HD
BRANCH  11  13
HETATM   13  C8  UNL     1      22.481   1.647  52.804  1.00  0.00     0.018 C 
HETATM   14  C9  UNL     1      21.957   0.528  53.276  1.00  0.00    -0.032 C 
HETATM   15  C13 UNL     1      22.451  -0.588  54.056  1.00  0.00     0.028 C 
HETATM   16  C14 UNL     1      23.608  -0.844  54.563  1.00  0.00     0.118 C 
HETATM   17  N2  UNL     1      24.801  -1.244  55.160  1.00  0.00    -0.254 NA
HETATM   18  C15 UNL     1      25.864  -0.561  55.132  1.00  0.00     0.234 C 
HETATM   19  N3  UNL     1      26.914   0.369  54.964  1.00  0.00    -0.230 NA
HETATM   20  C16 UNL     1      28.155   0.115  54.927  1.00  0.00     0.258 C 
HETATM   21  O2  UNL     1      28.072   1.502  54.760  1.00  0.00    -0.316 OA
HETATM   22  C17 UNL     1      28.371   2.105  53.510  1.00  0.00     0.141 C 
HETATM   23  C18 UNL     1      27.937   2.407  52.260  1.00  0.00     0.024 C 
HETATM   24  C19 UNL     1      26.568   1.969  51.935  1.00  0.00     0.196 C 
HETATM   25  O3  UNL     1      25.725   3.024  51.603  1.00  0.00    -0.387 OA
HETATM   26  C20 UNL     1      24.398   2.577  51.474  1.00  0.00     0.174 C 
HETATM   27  C21 UNL     1      23.887   2.196  52.815  1.00  0.00     0.083 C 
BRANCH  14  28
HETATM   28  C10 UNL     1      20.510   0.398  52.966  1.00  0.00     0.067 C 
BRANCH  28  29
HETATM   29  C11 UNL     1      19.913  -0.808  53.656  1.00  0.00     0.171 C 
BRANCH  29  30
HETATM   30  O1  UNL     1      18.622  -1.082  53.274  1.00  0.00    -0.396 OA
HETATM   31  C12 UNL     1      18.257  -2.310  53.830  1.00  0.00     0.201 C 
ENDBRANCH  29  30
ENDBRANCH  28  29
ENDBRANCH  14  28
ENDBRANCH  11  13
ENDBRANCH   7  11
TORSDOF 6
ENDMDL
MODEL 7
REMARK VINA RESULT:      -6.8      4.068      6.613
REMARK  6 active torsions:
REMARK  status: ('A' for Active; 'I' for Inactive)
REMARK    1  A    between atoms: C7_7  and  N1_8 
REMARK    2  A    between atoms: N1_8  and  C8_9 
REMARK    3  A    between atoms: C9_10  and  C10_11 
REMARK    4  A    between atoms: C10_11  and  C11_12 
REMARK    5  A    between atoms: C11_12  and  O1_13 
REMARK    6  A    between atoms: C22_28  and  O4_29 
ROOT
HETATM    1  C1  UNL     1      26.021   0.329  52.749  1.00  0.00     0.018 C 
HETATM    2  C2  UNL     1      24.825   0.142  52.938  1.00  0.00    -0.075 C 
HETATM    3  C3  UNL     1      23.412  -0.066  53.142  1.00  0.00     0.052 A 
HETATM    4  C4  UNL     1      22.945  -0.755  54.239  1.00  0.00     0.023 A 
HETATM    5  C5  UNL     1      21.578  -0.966  54.459  1.00  0.00     0.004 A 
HETATM    6  C6  UNL     1      20.682  -0.455  53.534  1.00  0.00     0.032 A 
HETATM    7  C7  UNL     1      21.168   0.237  52.436  1.00  0.00     0.067 A 
HETATM    8  C22 UNL     1      22.511   0.449  52.211  1.00  0.00     0.111 A 
ENDROOT
BRANCH   8   9
HETATM    9  O4  UNL     1      22.941   1.157  51.079  1.00  0.00    -0.357 OA
HETATM   10  H25 UNL     1      23.662   0.814  50.471  1.00  0.00     0.217 HD
ENDBRANCH   8   9
BRANCH   7  11
HETATM   11  N1  UNL     1      20.265   0.752  51.495  1.00  0.00    -0.357 N 
HETATM   12  H5  UNL     1      20.333   0.570  50.464  1.00  0.00     0.166 HD
BRANCH  11  13
HETATM   13  C8  UNL     1      19.129   1.566  51.594  1.00  0.00     0.018 C 
HETATM   14  C9  UNL     1      19.199   2.840  51.244  1.00  0.00    -0.032 C 
HETATM   15  C13 UNL     1      18.277   3.958  51.248  1.00  0.00     0.028 C 
HETATM   16  C14 UNL     1      17.047   4.063  51.620  1.00  0.00     0.118 C 
HETATM   17  N2  UNL     1      15.727   4.316  51.981  1.00  0.00    -0.254 NA
HETATM   18  C15 UNL     1      14.955   3.448  52.479  1.00  0.00     0.234 C 
HETATM   19  N3  UNL     1      14.295   2.319  53.012  1.00  0.00    -0.230 NA
HETATM   20  C16 UNL     1      13.052   2.072  52.963  1.00  0.00     0.258 C 
HETATM   21  O2  UNL     1      13.603   0.984  53.650  1.00  0.00    -0.316 OA
HETATM   22  C17 UNL     1      13.669  -0.300  53.049  1.00  0.00     0.141 C 
HETATM   23  C18 UNL     1      14.327  -1.121  52.191  1.00  0.00     0.024 C 
HETATM   24  C19 UNL     1      15.506  -0.541  51.526  1.00  0.00     0.196 C 
HETATM   25  O3  UNL     1      16.681  -1.232  51.804  1.00  0.00    -0.387 OA
HETATM   26  C20 UNL     1      17.795  -0.541  51.295  1.00  0.00     0.174 C 
HETATM   27  C21 UNL     1      17.988   0.705  52.079  1.00  0.00     0.083 C 
BRANCH  14  28
HETATM   28  C10 UNL     1      20.550   3.230  50.767  1.00  0.00     0.067 C 
BRANCH  28  29
HETATM   29  C11 UNL     1      21.166   4.271  51.674  1.00  0.00     0.171 C 
BRANCH  29  30
HETATM   30  O1  UNL     1      22.240   3.809  52.398  1.00  0.00    -0.396 OA
HETATM   31  C12 UNL     1      23.186   4.833  52.469  1.00  0.00     0.201 C 
ENDBRANCH  29  30
ENDBRANCH  28  29
ENDBRANCH  14  28
ENDBRANCH  11  13
ENDBRANCH   7  11
TORSDOF 6
ENDMDL
MODEL 8
REMARK VINA RESULT:      -6.8      1.940      4.585
REMARK  6 active torsions:
REMARK  status: ('A' for Active; 'I' for Inactive)
REMARK    1  A    between atoms: C7_7  and  N1_8 
REMARK    2  A    between atoms: N1_8  and  C8_9 
REMARK    3  A    between atoms: C9_10  and  C10_11 
REMARK    4  A    between atoms: C10_11  and  C11_12 
REMARK    5  A    between atoms: C11_12  and  O1_13 
REMARK    6  A    between atoms: C22_28  and  O4_29 
ROOT
HETATM    1  C1  UNL     1      29.873   1.680  54.756  1.00  0.00     0.018 C 
HETATM    2  C2  UNL     1      28.855   1.209  54.264  1.00  0.00    -0.075 C 
HETATM    3  C3  UNL     1      27.646   0.675  53.685  1.00  0.00     0.052 A 
HETATM    4  C4  UNL     1      27.561  -0.648  53.310  1.00  0.00     0.023 A 
HETATM    5  C5  UNL     1      26.396  -1.188  52.750  1.00  0.00     0.004 A 
HETATM    6  C6  UNL     1      25.305  -0.351  52.578  1.00  0.00     0.032 A 
HETATM    7  C7  UNL     1      25.408   0.977  52.961  1.00  0.00     0.067 A 
HETATM    8  C22 UNL     1      26.549   1.518  53.512  1.00  0.00     0.111 A 
ENDROOT
BRANCH   8   9
HETATM    9  O4  UNL     1      26.591   2.870  53.879  1.00  0.00    -0.357 OA
HETATM   10  H25 UNL     1      26.024   3.567  53.431  1.00  0.00     0.217 HD
ENDBRANCH   8   9
BRANCH   7  11
HETATM   11  N1  UNL     1      24.308   1.828  52.784  1.00  0.00    -0.357 N 
HETATM   12  H5  UNL     1      23.927   2.449  53.539  1.00  0.00     0.166 HD
BRANCH  11  13
HETATM   13  C8  UNL     1      23.466   2.102  51.699  1.00  0.00     0.018 C 
HETATM   14  C9  UNL     1      23.977   2.545  50.562  1.00  0.00    -0.032 C 
HETATM   15  C13 UNL     1      23.436   2.961  49.285  1.00  0.00     0.028 C 
HETATM   16  C14 UNL     1      22.227   3.040  48.842  1.00  0.00     0.118 C 
HETATM   17  N2  UNL     1      20.979   3.172  48.240  1.00  0.00    -0.254 NA
HETATM   18  C15 UNL     1      19.887   2.914  48.821  1.00  0.00     0.234 C 
HETATM   19  N3  UNL     1      18.815   2.565  49.672  1.00  0.00    -0.230 NA
HETATM   20  C16 UNL     1      17.685   2.108  49.323  1.00  0.00     0.258 C 
HETATM   21  O2  UNL     1      17.622   2.179  50.719  1.00  0.00    -0.316 OA
HETATM   22  C17 UNL     1      17.621   1.000  51.509  1.00  0.00     0.141 C 
HETATM   23  C18 UNL     1      18.356   0.005  52.069  1.00  0.00     0.024 C 
HETATM   24  C19 UNL     1      19.807   0.061  51.817  1.00  0.00     0.196 C 
HETATM   25  O3  UNL     1      20.557   0.165  52.984  1.00  0.00    -0.387 OA
HETATM   26  C20 UNL     1      21.912   0.392  52.684  1.00  0.00     0.174 C 
HETATM   27  C21 UNL     1      22.056   1.755  52.113  1.00  0.00     0.083 C 
BRANCH  14  28
HETATM   28  C10 UNL     1      25.455   2.685  50.616  1.00  0.00     0.067 C 
BRANCH  28  29
HETATM   29  C11 UNL     1      25.881   4.089  50.253  1.00  0.00     0.171 C 
BRANCH  29  30
HETATM   30  O1  UNL     1      26.903   4.138  49.335  1.00  0.00    -0.396 OA
HETATM   31  C12 UNL     1      26.875   5.392  48.722  1.00  0.00     0.201 C 
ENDBRANCH  29  30
ENDBRANCH  28  29
ENDBRANCH  14  28
ENDBRANCH  11  13
ENDBRANCH   7  11
TORSDOF 6
ENDMDL
MODEL 9
REMARK VINA RESULT:      -6.8      8.576     12.180
REMARK  6 active torsions:
REMARK  status: ('A' for Active; 'I' for Inactive)
REMARK    1  A    between atoms: C7_7  and  N1_8 
REMARK    2  A    between atoms: N1_8  and  C8_9 
REMARK    3  A    between atoms: C9_10  and  C10_11 
REMARK    4  A    between atoms: C10_11  and  C11_12 
REMARK    5  A    between atoms: C11_12  and  O1_13 
REMARK    6  A    between atoms: C22_28  and  O4_29 
ROOT
HETATM    1  C1  UNL     1      23.057   7.754  50.676  1.00  0.00     0.018 C 
HETATM    2  C2  UNL     1      23.951   7.855  49.844  1.00  0.00    -0.075 C 
HETATM    3  C3  UNL     1      25.019   7.976  48.880  1.00  0.00     0.052 A 
HETATM    4  C4  UNL     1      24.757   8.020  47.529  1.00  0.00     0.023 A 
HETATM    5  C5  UNL     1      25.777   8.140  46.577  1.00  0.00     0.004 A 
HETATM    6  C6  UNL     1      27.085   8.218  47.028  1.00  0.00     0.032 A 
HETATM    7  C7  UNL     1      27.331   8.173  48.391  1.00  0.00     0.067 A 
HETATM    8  C22 UNL     1      26.334   8.054  49.336  1.00  0.00     0.111 A 
ENDROOT
BRANCH   8   9
HETATM    9  O4  UNL     1      26.648   8.014  50.702  1.00  0.00    -0.357 OA
HETATM   10  H25 UNL     1      26.018   8.348  51.408  1.00  0.00     0.217 HD
ENDBRANCH   8   9
BRANCH   7  11
HETATM   11  N1  UNL     1      28.653   8.247  48.852  1.00  0.00    -0.357 N 
HETATM   12  H5  UNL     1      28.915   8.255  49.868  1.00  0.00     0.166 HD
BRANCH  11  13
HETATM   13  C8  UNL     1      29.895   8.325  48.209  1.00  0.00     0.018 C 
HETATM   14  C9  UNL     1      30.594   9.447  48.257  1.00  0.00    -0.032 C 
HETATM   15  C13 UNL     1      31.852   9.899  47.700  1.00  0.00     0.028 C 
HETATM   16  C14 UNL     1      32.719   9.320  46.940  1.00  0.00     0.118 C 
HETATM   17  N2  UNL     1      33.731   8.818  46.126  1.00  0.00    -0.254 NA
HETATM   18  C15 UNL     1      33.719   7.659  45.624  1.00  0.00     0.234 C 
HETATM   19  N3  UNL     1      33.480   6.338  45.184  1.00  0.00    -0.230 NA
HETATM   20  C16 UNL     1      34.352   5.466  44.889  1.00  0.00     0.258 C 
HETATM   21  O2  UNL     1      33.126   4.823  44.686  1.00  0.00    -0.316 OA
HETATM   22  C17 UNL     1      32.692   3.790  45.557  1.00  0.00     0.141 C 
HETATM   23  C18 UNL     1      32.119   3.471  46.746  1.00  0.00     0.024 C 
HETATM   24  C19 UNL     1      31.739   4.610  47.600  1.00  0.00     0.196 C 
HETATM   25  O3  UNL     1      30.377   4.647  47.880  1.00  0.00    -0.387 OA
HETATM   26  C20 UNL     1      30.040   5.840  48.545  1.00  0.00     0.174 C 
HETATM   27  C21 UNL     1      30.181   6.974  47.598  1.00  0.00     0.083 C 
BRANCH  14  28
HETATM   28  C10 UNL     1      29.913  10.512  49.038  1.00  0.00     0.067 C 
BRANCH  28  29
HETATM   29  C11 UNL     1      30.768  11.757  49.118  1.00  0.00     0.171 C 
BRANCH  29  30
HETATM   30  O1  UNL     1      30.043  12.924  49.160  1.00  0.00    -0.396 OA
HETATM   31  C12 UNL     1      29.532  13.163  47.883  1.00  0.00     0.201 C 
ENDBRANCH  29  30
ENDBRANCH  28  29
ENDBRANCH  14  28
ENDBRANCH  11  13
ENDBRANCH   7  11
TORSDOF 6
ENDMDL
