MODEL 1
REMARK VINA RESULT:      -8.0      0.000      0.000
REMARK  4 active torsions:
REMARK  status: ('A' for Active; 'I' for Inactive)
REMARK    1  A    between atoms: C7_8  and  N1_9 
REMARK    2  A    between atoms: N1_9  and  C8_10 
REMARK    3  A    between atoms: C8_10  and  C9_11 
REMARK    4  A    between atoms: C10_12  and  C11_14 
ROOT
HETATM    1  C1  UNL     1      23.917  -1.472  55.211  1.00  0.00     0.025 C 
HETATM    2  C2  UNL     1      23.743  -0.642  54.222  1.00  0.00    -0.020 C 
HETATM    3  C3  UNL     1      22.439  -0.206  53.645  1.00  0.00     0.025 C 
HETATM    4  C4  UNL     1      22.323   0.759  52.728  1.00  0.00    -0.021 C 
HETATM    5  C5  UNL     1      23.053   1.860  52.866  1.00  0.00     0.067 C 
HETATM    6  C6  UNL     1      24.427   2.418  53.043  1.00  0.00     0.211 C 
HETATM    7  O1  UNL     1      24.316   3.642  53.290  1.00  0.00    -0.288 OA
HETATM    8  C7  UNL     1      25.759   1.826  52.981  1.00  0.00     0.319 C 
HETATM    9  C14 UNL     1      25.716   0.339  52.600  1.00  0.00     0.135 C 
HETATM   10  C15 UNL     1      25.134  -0.263  53.867  1.00  0.00     0.050 C 
HETATM   11  N2  UNL     1      26.085  -0.408  54.724  1.00  0.00    -0.246 NA
HETATM   12  C16 UNL     1      26.838   0.838  54.958  1.00  0.00     0.230 C 
HETATM   13  N3  UNL     1      26.439   1.858  54.290  1.00  0.00    -0.233 NA
ENDROOT
BRANCH   8  14
HETATM   14  N1  UNL     1      26.699   2.415  52.077  1.00  0.00     0.124 N 
HETATM   15  H5  UNL     1      27.691   2.269  52.294  1.00  0.00     0.320 HD
BRANCH  14  16
HETATM   16  C8  UNL     1      26.434   2.114  50.691  1.00  0.00     0.298 C 
BRANCH  16  17
HETATM   17  C9  UNL     1      26.655   3.322  49.886  1.00  0.00     0.146 A 
HETATM   18  C10 UNL     1      26.333   4.375  49.145  1.00  0.00     0.054 A 
HETATM   19 CL1  UNL     1      24.819   3.612  49.546  1.00  0.00    -0.171 Cl
BRANCH  18  20
HETATM   20  C11 UNL     1      27.356   5.266  48.607  1.00  0.00     0.130 C 
HETATM   21  F1  UNL     1      28.517   4.689  48.266  1.00  0.00    -0.205 F 
HETATM   22  C12 UNL     1      27.057   6.517  48.488  1.00  0.00     0.013 C 
HETATM   23  C13 UNL     1      25.817   7.249  48.810  1.00  0.00     0.039 C 
ENDBRANCH  18  20
ENDBRANCH  16  17
ENDBRANCH  14  16
ENDBRANCH   8  14
TORSDOF 4
ENDMDL
MODEL 2
REMARK VINA RESULT:      -7.2      2.009      2.549
REMARK  4 active torsions:
REMARK  status: ('A' for Active; 'I' for Inactive)
REMARK    1  A    between atoms: C7_8  and  N1_9 
REMARK    2  A    between atoms: N1_9  and  C8_10 
REMARK    3  A    between atoms: C8_10  and  C9_11 
REMARK    4  A    between atoms: C10_12  and  C11_14 
ROOT
HETATM    1  C1  UNL     1      24.086  -0.627  54.249  1.00  0.00     0.025 C 
HETATM    2  C2  UNL     1      23.186  -0.174  53.422  1.00  0.00    -0.020 C 
HETATM    3  C3  UNL     1      21.762  -0.604  53.333  1.00  0.00     0.025 C 
HETATM    4  C4  UNL     1      20.855   0.003  52.562  1.00  0.00    -0.021 C 
HETATM    5  C5  UNL     1      20.844   1.329  52.514  1.00  0.00     0.067 C 
HETATM    6  C6  UNL     1      21.646   2.564  52.260  1.00  0.00     0.211 C 
HETATM    7  O1  UNL     1      20.950   3.550  52.599  1.00  0.00    -0.288 OA
HETATM    8  C7  UNL     1      22.985   2.791  51.729  1.00  0.00     0.319 C 
HETATM    9  C14 UNL     1      23.668   1.484  51.300  1.00  0.00     0.135 C 
HETATM   10  C15 UNL     1      23.940   0.847  52.651  1.00  0.00     0.050 C 
HETATM   11  N2  UNL     1      25.015   1.365  53.137  1.00  0.00    -0.246 NA
HETATM   12  C16 UNL     1      24.970   2.838  53.181  1.00  0.00     0.230 C 
HETATM   13  N3  UNL     1      23.889   3.371  52.741  1.00  0.00    -0.233 NA
ENDROOT
BRANCH   8  14
HETATM   14  N1  UNL     1      23.106   3.663  50.601  1.00  0.00     0.124 N 
HETATM   15  H5  UNL     1      23.305   4.648  50.808  1.00  0.00     0.320 HD
BRANCH  14  16
HETATM   16  C8  UNL     1      24.000   3.169  49.583  1.00  0.00     0.298 C 
BRANCH  16  17
HETATM   17  C9  UNL     1      25.037   4.175  49.324  1.00  0.00     0.146 A 
HETATM   18  C10 UNL     1      26.264   4.670  49.221  1.00  0.00     0.054 A 
HETATM   19 CL1  UNL     1      26.475   3.011  49.712  1.00  0.00    -0.171 Cl
BRANCH  18  20
HETATM   20  C11 UNL     1      26.494   6.058  48.833  1.00  0.00     0.130 C 
HETATM   21  F1  UNL     1      25.456   6.892  48.996  1.00  0.00    -0.205 F 
HETATM   22  C12 UNL     1      27.666   6.370  48.389  1.00  0.00     0.013 C 
HETATM   23  C13 UNL     1      28.874   5.546  48.190  1.00  0.00     0.039 C 
ENDBRANCH  18  20
ENDBRANCH  16  17
ENDBRANCH  14  16
ENDBRANCH   8  14
TORSDOF 4
ENDMDL
MODEL 3
REMARK VINA RESULT:      -7.0      3.040      6.574
REMARK  4 active torsions:
REMARK  status: ('A' for Active; 'I' for Inactive)
REMARK    1  A    between atoms: C7_8  and  N1_9 
REMARK    2  A    between atoms: N1_9  and  C8_10 
REMARK    3  A    between atoms: C8_10  and  C9_11 
REMARK    4  A    between atoms: C10_12  and  C11_14 
ROOT
HETATM    1  C1  UNL     1      24.526   7.150  49.711  1.00  0.00     0.025 C 
HETATM    2  C2  UNL     1      25.163   6.046  49.437  1.00  0.00    -0.020 C 
HETATM    3  C3  UNL     1      26.471   5.924  48.733  1.00  0.00     0.025 C 
HETATM    4  C4  UNL     1      27.140   4.774  48.613  1.00  0.00    -0.021 C 
HETATM    5  C5  UNL     1      27.208   3.965  49.664  1.00  0.00     0.067 C 
HETATM    6  C6  UNL     1      26.436   3.218  50.701  1.00  0.00     0.211 C 
HETATM    7  O1  UNL     1      27.254   2.766  51.537  1.00  0.00    -0.288 OA
HETATM    8  C7  UNL     1      25.015   2.952  50.887  1.00  0.00     0.319 C 
HETATM    9  C14 UNL     1      24.164   3.517  49.739  1.00  0.00     0.135 C 
HETATM   10  C15 UNL     1      24.271   5.007  50.011  1.00  0.00     0.050 C 
HETATM   11  N2  UNL     1      23.419   5.316  50.928  1.00  0.00    -0.246 NA
HETATM   12  C16 UNL     1      23.555   4.487  52.139  1.00  0.00     0.230 C 
HETATM   13  N3  UNL     1      24.485   3.602  52.101  1.00  0.00    -0.233 NA
ENDROOT
BRANCH   8  14
HETATM   14  N1  UNL     1      24.612   1.585  51.010  1.00  0.00     0.124 N 
HETATM   15  H5  UNL     1      25.140   0.903  50.452  1.00  0.00     0.320 HD
BRANCH  14  16
HETATM   16  C8  UNL     1      24.496   1.137  52.376  1.00  0.00     0.298 C 
BRANCH  16  17
HETATM   17  C9  UNL     1      25.619   0.245  52.688  1.00  0.00     0.146 A 
HETATM   18  C10 UNL     1      26.668  -0.214  53.359  1.00  0.00     0.054 A 
HETATM   19 CL1  UNL     1      26.147   1.202  54.230  1.00  0.00    -0.171 Cl
BRANCH  18  20
HETATM   20  C11 UNL     1      27.389  -1.404  52.918  1.00  0.00     0.130 C 
HETATM   21  F1  UNL     1      26.656  -2.337  52.293  1.00  0.00    -0.205 F 
HETATM   22  C12 UNL     1      28.659  -1.452  53.147  1.00  0.00     0.013 C 
HETATM   23  C13 UNL     1      29.561  -0.485  53.801  1.00  0.00     0.039 C 
ENDBRANCH  18  20
ENDBRANCH  16  17
ENDBRANCH  14  16
ENDBRANCH   8  14
TORSDOF 4
ENDMDL
MODEL 4
REMARK VINA RESULT:      -6.9      3.344      5.613
REMARK  4 active torsions:
REMARK  status: ('A' for Active; 'I' for Inactive)
REMARK    1  A    between atoms: C7_8  and  N1_9 
REMARK    2  A    between atoms: N1_9  and  C8_10 
REMARK    3  A    between atoms: C8_10  and  C9_11 
REMARK    4  A    between atoms: C10_12  and  C11_14 
ROOT
HETATM    1  C1  UNL     1      21.339   2.033  48.226  1.00  0.00     0.025 C 
HETATM    2  C2  UNL     1      22.281   2.738  48.784  1.00  0.00    -0.020 C 
HETATM    3  C3  UNL     1      22.828   4.037  48.299  1.00  0.00     0.025 C 
HETATM    4  C4  UNL     1      23.692   4.781  48.996  1.00  0.00    -0.021 C 
HETATM    5  C5  UNL     1      23.498   4.926  50.301  1.00  0.00     0.067 C 
HETATM    6  C6  UNL     1      23.297   4.229  51.606  1.00  0.00     0.211 C 
HETATM    7  O1  UNL     1      22.985   5.093  52.459  1.00  0.00    -0.288 OA
HETATM    8  C7  UNL     1      23.396   2.834  52.016  1.00  0.00     0.319 C 
HETATM    9  C14 UNL     1      23.855   1.923  50.868  1.00  0.00     0.135 C 
HETATM   10  C15 UNL     1      22.621   1.932  49.985  1.00  0.00     0.050 C 
HETATM   11  N2  UNL     1      21.776   1.080  50.455  1.00  0.00    -0.246 NA
HETATM   12  C16 UNL     1      21.478   1.298  51.882  1.00  0.00     0.230 C 
HETATM   13  N3  UNL     1      22.089   2.285  52.430  1.00  0.00    -0.233 NA
ENDROOT
BRANCH   8  14
HETATM   14  N1  UNL     1      24.271   2.529  53.107  1.00  0.00     0.124 N 
HETATM   15  H5  UNL     1      23.938   2.787  54.043  1.00  0.00     0.320 HD
BRANCH  14  16
HETATM   16  C8  UNL     1      24.753   1.169  53.099  1.00  0.00     0.298 C 
BRANCH  16  17
HETATM   17  C9  UNL     1      26.217   1.177  53.198  1.00  0.00     0.146 A 
HETATM   18  C10 UNL     1      27.464   0.811  52.932  1.00  0.00     0.054 A 
HETATM   19 CL1  UNL     1      26.461  -0.198  51.925  1.00  0.00    -0.171 Cl
BRANCH  18  20
HETATM   20  C11 UNL     1      28.600   1.437  53.601  1.00  0.00     0.130 C 
HETATM   21  F1  UNL     1      28.479   2.747  53.860  1.00  0.00    -0.205 F 
HETATM   22  C12 UNL     1      29.606   0.685  53.901  1.00  0.00     0.013 C 
HETATM   23  C13 UNL     1      29.835  -0.756  53.684  1.00  0.00     0.039 C 
ENDBRANCH  18  20
ENDBRANCH  16  17
ENDBRANCH  14  16
ENDBRANCH   8  14
TORSDOF 4
ENDMDL
MODEL 5
REMARK VINA RESULT:      -6.9      2.194      3.261
REMARK  4 active torsions:
REMARK  status: ('A' for Active; 'I' for Inactive)
REMARK    1  A    between atoms: C7_8  and  N1_9 
REMARK    2  A    between atoms: N1_9  and  C8_10 
REMARK    3  A    between atoms: C8_10  and  C9_11 
REMARK    4  A    between atoms: C10_12  and  C11_14 
ROOT
HETATM    1  C1  UNL     1      22.420  -0.299  53.070  1.00  0.00     0.025 C 
HETATM    2  C2  UNL     1      23.550   0.345  53.155  1.00  0.00    -0.020 C 
HETATM    3  C3  UNL     1      24.855  -0.205  53.620  1.00  0.00     0.025 C 
HETATM    4  C4  UNL     1      26.007   0.467  53.544  1.00  0.00    -0.021 C 
HETATM    5  C5  UNL     1      26.269   1.161  52.443  1.00  0.00     0.067 C 
HETATM    6  C6  UNL     1      25.784   2.211  51.499  1.00  0.00     0.211 C 
HETATM    7  O1  UNL     1      26.553   2.223  50.509  1.00  0.00    -0.288 OA
HETATM    8  C7  UNL     1      24.664   3.143  51.536  1.00  0.00     0.319 C 
HETATM    9  C14 UNL     1      23.869   3.044  52.846  1.00  0.00     0.135 C 
HETATM   10  C15 UNL     1      23.188   1.699  52.666  1.00  0.00     0.050 C 
HETATM   11  N2  UNL     1      22.144   1.867  51.929  1.00  0.00    -0.246 NA
HETATM   12  C16 UNL     1      22.445   2.548  50.657  1.00  0.00     0.230 C 
HETATM   13  N3  UNL     1      23.676   2.862  50.476  1.00  0.00    -0.233 NA
ENDROOT
BRANCH   8  14
HETATM   14  N1  UNL     1      24.961   4.535  51.385  1.00  0.00     0.124 N 
HETATM   15  H5  UNL     1      25.907   4.830  51.653  1.00  0.00     0.320 HD
BRANCH  14  16
HETATM   16  C8  UNL     1      24.615   5.064  50.089  1.00  0.00     0.298 C 
BRANCH  16  17
HETATM   17  C9  UNL     1      25.844   5.423  49.372  1.00  0.00     0.146 A 
HETATM   18  C10 UNL     1      26.641   6.143  48.592  1.00  0.00     0.054 A 
HETATM   19 CL1  UNL     1      25.126   7.006  48.629  1.00  0.00    -0.171 Cl
BRANCH  18  20
HETATM   20  C11 UNL     1      28.011   5.726  48.313  1.00  0.00     0.130 C 
HETATM   21  F1  UNL     1      28.239   4.405  48.343  1.00  0.00    -0.205 F 
HETATM   22  C12 UNL     1      28.874   6.648  48.045  1.00  0.00     0.013 C 
HETATM   23  C13 UNL     1      28.729   8.114  47.966  1.00  0.00     0.039 C 
ENDBRANCH  18  20
ENDBRANCH  16  17
ENDBRANCH  14  16
ENDBRANCH   8  14
TORSDOF 4
ENDMDL
MODEL 6
REMARK VINA RESULT:      -6.9      4.323      5.864
REMARK  4 active torsions:
REMARK  status: ('A' for Active; 'I' for Inactive)
REMARK    1  A    between atoms: C7_8  and  N1_9 
REMARK    2  A    between atoms: N1_9  and  C8_10 
REMARK    3  A    between atoms: C8_10  and  C9_11 
REMARK    4  A    between atoms: C10_12  and  C11_14 
ROOT
HETATM    1  C1  UNL     1      17.671  -1.495  53.046  1.00  0.00     0.025 C 
HETATM    2  C2  UNL     1      18.058  -0.573  52.211  1.00  0.00    -0.020 C 
HETATM    3  C3  UNL     1      17.210   0.132  51.207  1.00  0.00     0.025 C 
HETATM    4  C4  UNL     1      17.635   1.171  50.482  1.00  0.00    -0.021 C 
HETATM    5  C5  UNL     1      18.361   2.109  51.077  1.00  0.00     0.067 C 
HETATM    6  C6  UNL     1      19.573   2.398  51.900  1.00  0.00     0.211 C 
HETATM    7  O1  UNL     1      19.519   3.600  52.255  1.00  0.00    -0.288 OA
HETATM    8  C7  UNL     1      20.708   1.586  52.322  1.00  0.00     0.319 C 
HETATM    9  C14 UNL     1      20.651   0.164  51.745  1.00  0.00     0.135 C 
HETATM   10  C15 UNL     1      19.498  -0.421  52.540  1.00  0.00     0.050 C 
HETATM   11  N2  UNL     1      19.945  -0.799  53.688  1.00  0.00    -0.246 NA
HETATM   12  C16 UNL     1      20.667   0.271  54.401  1.00  0.00     0.230 C 
HETATM   13  N3  UNL     1      20.737   1.395  53.786  1.00  0.00    -0.233 NA
ENDROOT
BRANCH   8  14
HETATM   14  N1  UNL     1      22.017   2.067  52.000  1.00  0.00     0.124 N 
HETATM   15  H5  UNL     1      22.461   2.677  52.696  1.00  0.00     0.320 HD
BRANCH  14  16
HETATM   16  C8  UNL     1      22.927   1.029  51.583  1.00  0.00     0.298 C 
BRANCH  16  17
HETATM   17  C9  UNL     1      24.125   1.072  52.430  1.00  0.00     0.146 A 
HETATM   18  C10 UNL     1      25.012   0.643  53.320  1.00  0.00     0.054 A 
HETATM   19 CL1  UNL     1      23.830  -0.631  53.194  1.00  0.00    -0.171 Cl
BRANCH  18  20
HETATM   20  C11 UNL     1      26.162   1.457  53.701  1.00  0.00     0.130 C 
HETATM   21  F1  UNL     1      25.884   2.681  54.173  1.00  0.00    -0.205 F 
HETATM   22  C12 UNL     1      27.335   0.934  53.571  1.00  0.00     0.013 C 
HETATM   23  C13 UNL     1      27.751  -0.397  53.087  1.00  0.00     0.039 C 
ENDBRANCH  18  20
ENDBRANCH  16  17
ENDBRANCH  14  16
ENDBRANCH   8  14
TORSDOF 4
ENDMDL
MODEL 7
REMARK VINA RESULT:      -6.8      3.647      7.084
REMARK  4 active torsions:
REMARK  status: ('A' for Active; 'I' for Inactive)
REMARK    1  A    between atoms: C7_8  and  N1_9 
REMARK    2  A    between atoms: N1_9  and  C8_10 
REMARK    3  A    between atoms: C8_10  and  C9_11 
REMARK    4  A    between atoms: C10_12  and  C11_14 
ROOT
HETATM    1  C1  UNL     1      24.627   7.082  50.592  1.00  0.00     0.025 C 
HETATM    2  C2  UNL     1      25.020   5.922  50.148  1.00  0.00    -0.020 C 
HETATM    3  C3  UNL     1      26.197   5.655  49.274  1.00  0.00     0.025 C 
HETATM    4  C4  UNL     1      26.631   4.427  48.974  1.00  0.00    -0.021 C 
HETATM    5  C5  UNL     1      26.670   3.513  49.937  1.00  0.00     0.067 C 
HETATM    6  C6  UNL     1      25.899   2.804  51.001  1.00  0.00     0.211 C 
HETATM    7  O1  UNL     1      26.711   2.136  51.683  1.00  0.00    -0.288 OA
HETATM    8  C7  UNL     1      24.483   2.764  51.346  1.00  0.00     0.319 C 
HETATM    9  C14 UNL     1      23.624   3.579  50.369  1.00  0.00     0.135 C 
HETATM   10  C15 UNL     1      24.027   4.993  50.746  1.00  0.00     0.050 C 
HETATM   11  N2  UNL     1      23.353   5.345  51.787  1.00  0.00    -0.246 NA
HETATM   12  C16 UNL     1      23.474   4.384  52.898  1.00  0.00     0.230 C 
HETATM   13  N3  UNL     1      24.219   3.364  52.668  1.00  0.00    -0.233 NA
ENDROOT
BRANCH   8  14
HETATM   14  N1  UNL     1      23.858   1.478  51.408  1.00  0.00     0.124 N 
HETATM   15  H5  UNL     1      23.904   0.993  52.311  1.00  0.00     0.320 HD
BRANCH  14  16
HETATM   16  C8  UNL     1      22.509   1.466  50.897  1.00  0.00     0.298 C 
BRANCH  16  17
HETATM   17  C9  UNL     1      21.608   0.942  51.930  1.00  0.00     0.146 A 
HETATM   18  C10 UNL     1      20.615   0.956  52.812  1.00  0.00     0.054 A 
HETATM   19 CL1  UNL     1      20.632   2.551  52.108  1.00  0.00    -0.171 Cl
BRANCH  18  20
HETATM   20  C11 UNL     1      20.297  -0.218  53.617  1.00  0.00     0.130 C 
HETATM   21  F1  UNL     1      21.191  -0.542  54.562  1.00  0.00    -0.205 F 
HETATM   22  C12 UNL     1      19.187  -0.830  53.370  1.00  0.00     0.013 C 
HETATM   23  C13 UNL     1      18.130  -0.552  52.378  1.00  0.00     0.039 C 
ENDBRANCH  18  20
ENDBRANCH  16  17
ENDBRANCH  14  16
ENDBRANCH   8  14
TORSDOF 4
ENDMDL
MODEL 8
REMARK VINA RESULT:      -6.8      3.761      5.639
REMARK  4 active torsions:
REMARK  status: ('A' for Active; 'I' for Inactive)
REMARK    1  A    between atoms: C7_8  and  N1_9 
REMARK    2  A    between atoms: N1_9  and  C8_10 
REMARK    3  A    between atoms: C8_10  and  C9_11 
REMARK    4  A    between atoms: C10_12  and  C11_14 
ROOT
HETATM    1  C1  UNL     1      18.513   0.034  51.331  1.00  0.00     0.025 C 
HETATM    2  C2  UNL     1      19.387  -0.006  52.297  1.00  0.00    -0.020 C 
HETATM    3  C3  UNL     1      19.374  -0.924  53.471  1.00  0.00     0.025 C 
HETATM    4  C4  UNL     1      20.377  -1.013  54.349  1.00  0.00    -0.021 C 
HETATM    5  C5  UNL     1      21.624  -1.014  53.893  1.00  0.00     0.067 C 
HETATM    6  C6  UNL     1      22.635  -0.299  53.058  1.00  0.00     0.211 C 
HETATM    7  O1  UNL     1      23.635  -1.047  52.942  1.00  0.00    -0.288 OA
HETATM    8  C7  UNL     1      22.651   1.008  52.413  1.00  0.00     0.319 C 
HETATM    9  C14 UNL     1      21.381   1.819  52.714  1.00  0.00     0.135 C 
HETATM   10  C15 UNL     1      20.353   1.051  51.904  1.00  0.00     0.050 C 
HETATM   11  N2  UNL     1      20.429   1.438  50.677  1.00  0.00    -0.246 NA
HETATM   12  C16 UNL     1      21.795   1.345  50.131  1.00  0.00     0.230 C 
HETATM   13  N3  UNL     1      22.684   0.898  50.942  1.00  0.00    -0.233 NA
ENDROOT
BRANCH   8  14
HETATM   14  N1  UNL     1      23.737   1.885  52.730  1.00  0.00     0.124 N 
HETATM   15  H5  UNL     1      23.959   1.992  53.726  1.00  0.00     0.320 HD
BRANCH  14  16
HETATM   16  C8  UNL     1      24.933   1.621  51.970  1.00  0.00     0.298 C 
BRANCH  16  17
HETATM   17  C9  UNL     1      26.018   1.261  52.891  1.00  0.00     0.146 A 
HETATM   18  C10 UNL     1      27.229   1.305  53.434  1.00  0.00     0.054 A 
HETATM   19 CL1  UNL     1      27.254   2.486  52.152  1.00  0.00    -0.171 Cl
BRANCH  18  20
HETATM   20  C11 UNL     1      27.594   0.437  54.549  1.00  0.00     0.130 C 
HETATM   21  F1  UNL     1      26.672   0.302  55.513  1.00  0.00    -0.205 F 
HETATM   22  C12 UNL     1      28.750  -0.137  54.507  1.00  0.00     0.013 C 
HETATM   23  C13 UNL     1      29.823  -0.076  53.495  1.00  0.00     0.039 C 
ENDBRANCH  18  20
ENDBRANCH  16  17
ENDBRANCH  14  16
ENDBRANCH   8  14
TORSDOF 4
ENDMDL
MODEL 9
REMARK VINA RESULT:      -6.8      3.560      4.676
REMARK  4 active torsions:
REMARK  status: ('A' for Active; 'I' for Inactive)
REMARK    1  A    between atoms: C7_8  and  N1_9 
REMARK    2  A    between atoms: N1_9  and  C8_10 
REMARK    3  A    between atoms: C8_10  and  C9_11 
REMARK    4  A    between atoms: C10_12  and  C11_14 
ROOT
HETATM    1  C1  UNL     1      21.141  -1.639  54.236  1.00  0.00     0.025 C 
HETATM    2  C2  UNL     1      21.793  -0.607  53.780  1.00  0.00    -0.020 C 
HETATM    3  C3  UNL     1      23.273  -0.431  53.752  1.00  0.00     0.025 C 
HETATM    4  C4  UNL     1      23.884   0.587  53.138  1.00  0.00    -0.021 C 
HETATM    5  C5  UNL     1      23.443   0.968  51.945  1.00  0.00     0.067 C 
HETATM    6  C6  UNL     1      22.261   1.410  51.148  1.00  0.00     0.211 C 
HETATM    7  O1  UNL     1      22.598   1.431  49.940  1.00  0.00    -0.288 OA
HETATM    8  C7  UNL     1      20.900   1.788  51.509  1.00  0.00     0.319 C 
HETATM    9  C14 UNL     1      20.678   1.775  53.029  1.00  0.00     0.135 C 
HETATM   10  C15 UNL     1      20.703   0.283  53.308  1.00  0.00     0.050 C 
HETATM   11  N2  UNL     1      19.541  -0.202  53.034  1.00  0.00    -0.246 NA
HETATM   12  C16 UNL     1      19.088   0.133  51.672  1.00  0.00     0.230 C 
HETATM   13  N3  UNL     1      19.902   0.840  50.977  1.00  0.00    -0.233 NA
ENDROOT
BRANCH   8  14
HETATM   14  N1  UNL     1      20.437   3.072  51.076  1.00  0.00     0.124 N 
HETATM   15  H5  UNL     1      19.421   3.179  50.978  1.00  0.00     0.320 HD
BRANCH  14  16
HETATM   16  C8  UNL     1      20.991   4.170  51.829  1.00  0.00     0.298 C 
BRANCH  16  17
HETATM   17  C9  UNL     1      22.198   4.657  51.152  1.00  0.00     0.146 A 
HETATM   18  C10 UNL     1      23.470   5.015  51.023  1.00  0.00     0.054 A 
HETATM   19 CL1  UNL     1      23.291   4.534  52.689  1.00  0.00    -0.171 Cl
BRANCH  18  20
HETATM   20  C11 UNL     1      24.000   5.493  49.750  1.00  0.00     0.130 C 
HETATM   21  F1  UNL     1      23.453   6.621  49.274  1.00  0.00    -0.205 F 
HETATM   22  C12 UNL     1      24.951   4.812  49.205  1.00  0.00     0.013 C 
HETATM   23  C13 UNL     1      25.635   3.581  49.647  1.00  0.00     0.039 C 
ENDBRANCH  18  20
ENDBRANCH  16  17
ENDBRANCH  14  16
ENDBRANCH   8  14
TORSDOF 4
ENDMDL
