MODEL 1
REMARK VINA RESULT:      -8.2      0.000      0.000
REMARK  4 active torsions:
REMARK  status: ('A' for Active; 'I' for Inactive)
REMARK    1  A    between atoms: O1_2  and  C2_3 
REMARK    2  A    between atoms: C6_9  and  N3_10 
REMARK    3  A    between atoms: N3_10  and  N4_11 
REMARK    4  A    between atoms: N4_11  and  C7_12 
ROOT
HETATM    1  C2  UNL     1      27.466   0.037  54.034  1.00  0.00     0.076 A 
HETATM    2  C3  UNL     1      26.190  -0.466  53.887  1.00  0.00     0.070 A 
HETATM    3  C4  UNL     1      25.138   0.339  53.526  1.00  0.00     0.074 A 
HETATM    4  N1  UNL     1      23.924  -0.178  53.395  1.00  0.00    -0.241 NA
HETATM    5  C5  UNL     1      22.839   0.568  53.040  1.00  0.00     0.236 A 
HETATM    6  N2  UNL     1      23.021   1.883  52.816  1.00  0.00    -0.222 NA
HETATM    7  C6  UNL     1      24.227   2.461  52.934  1.00  0.00     0.156 A 
HETATM    8  C14 UNL     1      25.312   1.690  53.294  1.00  0.00     0.041 A 
HETATM    9  C15 UNL     1      26.582   2.190  53.440  1.00  0.00     0.027 A 
HETATM   10  C16 UNL     1      27.658   1.399  53.803  1.00  0.00    -0.028 A 
HETATM   11  C17 UNL     1      28.980   2.070  53.925  1.00  0.00     0.051 C 
ENDROOT
BRANCH   7  12
HETATM   12  N3  UNL     1      24.513   3.839  52.718  1.00  0.00    -0.283 N 
HETATM   13  H6  UNL     1      24.936   4.387  53.485  1.00  0.00     0.188 HD
BRANCH  12  14
HETATM   14  N4  UNL     1      24.189   4.348  51.456  1.00  0.00    -0.299 N 
HETATM   15  H7  UNL     1      23.177   4.484  51.246  1.00  0.00     0.187 HD
BRANCH  14  16
HETATM   16  C7  UNL     1      25.182   4.659  50.515  1.00  0.00     0.048 A 
HETATM   17  C8  UNL     1      26.065   3.694  50.076  1.00  0.00     0.031 A 
HETATM   18  C9  UNL     1      27.072   3.948  49.142  1.00  0.00     0.003 A 
HETATM   19  C10 UNL     1      27.113   5.253  48.684  1.00  0.00     0.007 A 
HETATM   20  C11 UNL     1      26.259   6.249  49.087  1.00  0.00    -0.060 A 
HETATM   21  C12 UNL     1      26.339   7.639  48.570  1.00  0.00     0.048 C 
HETATM   22  C13 UNL     1      25.283   5.939  50.014  1.00  0.00     0.037 A 
ENDBRANCH  14  16
ENDBRANCH  12  14
ENDBRANCH   7  12
BRANCH   1  23
HETATM   23  O1  UNL     1      28.624  -0.624  54.387  1.00  0.00    -0.355 OA
HETATM   24  C1  UNL     1      29.247  -1.489  53.454  1.00  0.00     0.210 C 
ENDBRANCH   1  23
TORSDOF 4
ENDMDL
MODEL 2
REMARK VINA RESULT:      -8.2      4.477      6.597
REMARK  4 active torsions:
REMARK  status: ('A' for Active; 'I' for Inactive)
REMARK    1  A    between atoms: O1_2  and  C2_3 
REMARK    2  A    between atoms: C6_9  and  N3_10 
REMARK    3  A    between atoms: N3_10  and  N4_11 
REMARK    4  A    between atoms: N4_11  and  C7_12 
ROOT
HETATM    1  C2  UNL     1      19.954  -0.500  52.866  1.00  0.00     0.076 A 
HETATM    2  C3  UNL     1      20.499  -1.080  53.994  1.00  0.00     0.070 A 
HETATM    3  C4  UNL     1      21.844  -1.005  54.260  1.00  0.00     0.074 A 
HETATM    4  N1  UNL     1      22.333  -1.575  55.352  1.00  0.00    -0.241 NA
HETATM    5  C5  UNL     1      23.659  -1.537  55.674  1.00  0.00     0.236 A 
HETATM    6  N2  UNL     1      24.494  -0.891  54.839  1.00  0.00    -0.222 NA
HETATM    7  C6  UNL     1      24.055  -0.295  53.718  1.00  0.00     0.156 A 
HETATM    8  C14 UNL     1      22.711  -0.345  53.411  1.00  0.00     0.041 A 
HETATM    9  C15 UNL     1      22.168   0.232  52.290  1.00  0.00     0.027 A 
HETATM   10  C16 UNL     1      20.816   0.171  51.999  1.00  0.00    -0.028 A 
HETATM   11  C17 UNL     1      20.362   0.840  50.751  1.00  0.00     0.051 C 
ENDROOT
BRANCH   7  12
HETATM   12  N3  UNL     1      24.861   0.409  52.779  1.00  0.00    -0.283 N 
HETATM   13  H6  UNL     1      24.638   1.396  52.572  1.00  0.00     0.188 HD
BRANCH  12  14
HETATM   14  N4  UNL     1      25.910  -0.312  52.201  1.00  0.00    -0.299 N 
HETATM   15  H7  UNL     1      25.694  -0.852  51.336  1.00  0.00     0.187 HD
BRANCH  14  16
HETATM   16  C7  UNL     1      27.196  -0.311  52.762  1.00  0.00     0.048 A 
HETATM   17  C8  UNL     1      27.927  -1.478  52.852  1.00  0.00     0.031 A 
HETATM   18  C9  UNL     1      29.210  -1.536  53.401  1.00  0.00     0.003 A 
HETATM   19  C10 UNL     1      29.697  -0.320  53.848  1.00  0.00     0.007 A 
HETATM   20  C11 UNL     1      29.013   0.868  53.781  1.00  0.00    -0.060 A 
HETATM   21  C12 UNL     1      29.573   2.152  54.274  1.00  0.00     0.048 C 
HETATM   22  C13 UNL     1      27.747   0.863  53.228  1.00  0.00     0.037 A 
ENDBRANCH  14  16
ENDBRANCH  12  14
ENDBRANCH   7  12
BRANCH   1  23
HETATM   23  O1  UNL     1      18.639  -0.480  52.451  1.00  0.00    -0.355 OA
HETATM   24  C1  UNL     1      17.660  -1.183  53.194  1.00  0.00     0.210 C 
ENDBRANCH   1  23
TORSDOF 4
ENDMDL
MODEL 3
REMARK VINA RESULT:      -8.1      3.125      5.930
REMARK  4 active torsions:
REMARK  status: ('A' for Active; 'I' for Inactive)
REMARK    1  A    between atoms: O1_2  and  C2_3 
REMARK    2  A    between atoms: C6_9  and  N3_10 
REMARK    3  A    between atoms: N3_10  and  N4_11 
REMARK    4  A    between atoms: N4_11  and  C7_12 
ROOT
HETATM    1  C2  UNL     1      21.387   0.119  52.820  1.00  0.00     0.076 A 
HETATM    2  C3  UNL     1      21.257   1.153  51.916  1.00  0.00     0.070 A 
HETATM    3  C4  UNL     1      22.237   2.104  51.769  1.00  0.00     0.074 A 
HETATM    4  N1  UNL     1      22.078   3.086  50.892  1.00  0.00    -0.241 NA
HETATM    5  C5  UNL     1      23.013   4.060  50.699  1.00  0.00     0.236 A 
HETATM    6  N2  UNL     1      24.138   4.013  51.437  1.00  0.00    -0.222 NA
HETATM    7  C6  UNL     1      24.352   3.043  52.341  1.00  0.00     0.156 A 
HETATM    8  C14 UNL     1      23.395   2.066  52.521  1.00  0.00     0.041 A 
HETATM    9  C15 UNL     1      23.524   1.037  53.419  1.00  0.00     0.027 A 
HETATM   10  C16 UNL     1      22.551   0.066  53.586  1.00  0.00    -0.028 A 
HETATM   11  C17 UNL     1      22.819  -0.994  54.594  1.00  0.00     0.051 C 
ENDROOT
BRANCH   7  12
HETATM   12  N3  UNL     1      25.508   2.913  53.163  1.00  0.00    -0.283 N 
HETATM   13  H6  UNL     1      25.415   3.062  54.181  1.00  0.00     0.188 HD
BRANCH  12  14
HETATM   14  N4  UNL     1      26.699   2.586  52.508  1.00  0.00    -0.299 N 
HETATM   15  H7  UNL     1      27.035   3.250  51.777  1.00  0.00     0.187 HD
BRANCH  14  16
HETATM   16  C7  UNL     1      27.411   1.418  52.819  1.00  0.00     0.048 A 
HETATM   17  C8  UNL     1      28.640   1.486  53.441  1.00  0.00     0.031 A 
HETATM   18  C9  UNL     1      29.392   0.357  53.774  1.00  0.00     0.003 A 
HETATM   19  C10 UNL     1      28.802  -0.846  53.429  1.00  0.00     0.007 A 
HETATM   20  C11 UNL     1      27.582  -0.969  52.811  1.00  0.00    -0.060 A 
HETATM   21  C12 UNL     1      26.985  -2.282  52.457  1.00  0.00     0.048 C 
HETATM   22  C13 UNL     1      26.885   0.184  52.506  1.00  0.00     0.037 A 
ENDBRANCH  14  16
ENDBRANCH  12  14
ENDBRANCH   7  12
BRANCH   1  23
HETATM   23  O1  UNL     1      20.509  -0.910  53.091  1.00  0.00    -0.355 OA
HETATM   24  C1  UNL     1      19.147  -0.619  53.347  1.00  0.00     0.210 C 
ENDBRANCH   1  23
TORSDOF 4
ENDMDL
MODEL 4
REMARK VINA RESULT:      -7.8      2.220      3.775
REMARK  4 active torsions:
REMARK  status: ('A' for Active; 'I' for Inactive)
REMARK    1  A    between atoms: O1_2  and  C2_3 
REMARK    2  A    between atoms: C6_9  and  N3_10 
REMARK    3  A    between atoms: N3_10  and  N4_11 
REMARK    4  A    between atoms: N4_11  and  C7_12 
ROOT
HETATM    1  C2  UNL     1      23.535  -0.336  53.184  1.00  0.00     0.076 A 
HETATM    2  C3  UNL     1      24.857  -0.380  53.576  1.00  0.00     0.070 A 
HETATM    3  C4  UNL     1      25.776   0.527  53.108  1.00  0.00     0.074 A 
HETATM    4  N1  UNL     1      27.038   0.453  53.504  1.00  0.00    -0.241 NA
HETATM    5  C5  UNL     1      27.998   1.323  53.076  1.00  0.00     0.236 A 
HETATM    6  N2  UNL     1      27.634   2.292  52.214  1.00  0.00    -0.222 NA
HETATM    7  C6  UNL     1      26.370   2.414  51.778  1.00  0.00     0.156 A 
HETATM    8  C14 UNL     1      25.415   1.525  52.223  1.00  0.00     0.041 A 
HETATM    9  C15 UNL     1      24.099   1.569  51.834  1.00  0.00     0.027 A 
HETATM   10  C16 UNL     1      23.155   0.667  52.291  1.00  0.00    -0.028 A 
HETATM   11  C17 UNL     1      21.765   0.830  51.790  1.00  0.00     0.051 C 
ENDROOT
BRANCH   7  12
HETATM   12  N3  UNL     1      25.896   3.403  50.871  1.00  0.00    -0.283 N 
HETATM   13  H6  UNL     1      25.125   4.024  51.167  1.00  0.00     0.188 HD
BRANCH  12  14
HETATM   14  N4  UNL     1      26.527   3.453  49.623  1.00  0.00    -0.299 N 
HETATM   15  H7  UNL     1      26.719   2.542  49.153  1.00  0.00     0.187 HD
BRANCH  14  16
HETATM   16  C7  UNL     1      26.887   4.673  49.032  1.00  0.00     0.048 A 
HETATM   17  C8  UNL     1      28.186   4.907  48.635  1.00  0.00     0.031 A 
HETATM   18  C9  UNL     1      28.601   6.103  48.042  1.00  0.00     0.003 A 
HETATM   19  C10 UNL     1      27.597   7.040  47.880  1.00  0.00     0.007 A 
HETATM   20  C11 UNL     1      26.289   6.857  48.257  1.00  0.00    -0.060 A 
HETATM   21  C12 UNL     1      25.241   7.892  48.066  1.00  0.00     0.048 C 
HETATM   22  C13 UNL     1      25.939   5.654  48.839  1.00  0.00     0.037 A 
ENDBRANCH  14  16
ENDBRANCH  12  14
ENDBRANCH   7  12
BRANCH   1  23
HETATM   23  O1  UNL     1      22.493  -1.160  53.554  1.00  0.00    -0.355 OA
HETATM   24  C1  UNL     1      22.014  -1.127  54.886  1.00  0.00     0.210 C 
ENDBRANCH   1  23
TORSDOF 4
ENDMDL
MODEL 5
REMARK VINA RESULT:      -7.8      3.220      5.221
REMARK  4 active torsions:
REMARK  status: ('A' for Active; 'I' for Inactive)
REMARK    1  A    between atoms: O1_2  and  C2_3 
REMARK    2  A    between atoms: C6_9  and  N3_10 
REMARK    3  A    between atoms: N3_10  and  N4_11 
REMARK    4  A    between atoms: N4_11  and  C7_12 
ROOT
HETATM    1  C2  UNL     1      20.393  -0.552  53.403  1.00  0.00     0.076 A 
HETATM    2  C3  UNL     1      21.068  -1.032  54.507  1.00  0.00     0.070 A 
HETATM    3  C4  UNL     1      22.437  -0.980  54.589  1.00  0.00     0.074 A 
HETATM    4  N1  UNL     1      23.053  -1.452  55.664  1.00  0.00    -0.241 NA
HETATM    5  C5  UNL     1      24.410  -1.429  55.806  1.00  0.00     0.236 A 
HETATM    6  N2  UNL     1      25.142  -0.905  54.806  1.00  0.00    -0.222 NA
HETATM    7  C6  UNL     1      24.573  -0.413  53.693  1.00  0.00     0.156 A 
HETATM    8  C14 UNL     1      23.200  -0.444  53.569  1.00  0.00     0.041 A 
HETATM    9  C15 UNL     1      22.528   0.033  52.471  1.00  0.00     0.027 A 
HETATM   10  C16 UNL     1      21.149  -0.007  52.364  1.00  0.00    -0.028 A 
HETATM   11  C17 UNL     1      20.550   0.546  51.121  1.00  0.00     0.051 C 
ENDROOT
BRANCH   7  12
HETATM   12  N3  UNL     1      25.265   0.159  52.588  1.00  0.00    -0.283 N 
HETATM   13  H6  UNL     1      25.557  -0.454  51.810  1.00  0.00     0.188 HD
BRANCH  12  14
HETATM   14  N4  UNL     1      25.499   1.537  52.651  1.00  0.00    -0.299 N 
HETATM   15  H7  UNL     1      25.716   1.938  53.588  1.00  0.00     0.187 HD
BRANCH  14  16
HETATM   16  C7  UNL     1      25.442   2.343  51.504  1.00  0.00     0.048 A 
HETATM   17  C8  UNL     1      26.598   2.805  50.910  1.00  0.00     0.031 A 
HETATM   18  C9  UNL     1      26.601   3.610  49.768  1.00  0.00     0.003 A 
HETATM   19  C10 UNL     1      25.343   3.909  49.274  1.00  0.00     0.007 A 
HETATM   20  C11 UNL     1      24.164   3.474  49.826  1.00  0.00    -0.060 A 
HETATM   21  C12 UNL     1      22.834   3.819  49.264  1.00  0.00     0.048 C 
HETATM   22  C13 UNL     1      24.224   2.681  50.955  1.00  0.00     0.037 A 
ENDBRANCH  14  16
ENDBRANCH  12  14
ENDBRANCH   7  12
BRANCH   1  23
HETATM   23  O1  UNL     1      19.035  -0.526  53.161  1.00  0.00    -0.355 OA
HETATM   24  C1  UNL     1      18.258  -1.683  53.410  1.00  0.00     0.210 C 
ENDBRANCH   1  23
TORSDOF 4
ENDMDL
MODEL 6
REMARK VINA RESULT:      -7.8      3.126      6.495
REMARK  4 active torsions:
REMARK  status: ('A' for Active; 'I' for Inactive)
REMARK    1  A    between atoms: O1_2  and  C2_3 
REMARK    2  A    between atoms: C6_9  and  N3_10 
REMARK    3  A    between atoms: N3_10  and  N4_11 
REMARK    4  A    between atoms: N4_11  and  C7_12 
ROOT
HETATM    1  C2  UNL     1      27.166   0.650  53.376  1.00  0.00     0.076 A 
HETATM    2  C3  UNL     1      26.677  -0.125  54.408  1.00  0.00     0.070 A 
HETATM    3  C4  UNL     1      25.343  -0.439  54.499  1.00  0.00     0.074 A 
HETATM    4  N1  UNL     1      24.908  -1.185  55.505  1.00  0.00    -0.241 NA
HETATM    5  C5  UNL     1      23.597  -1.532  55.652  1.00  0.00     0.236 A 
HETATM    6  N2  UNL     1      22.719  -1.093  54.731  1.00  0.00    -0.222 NA
HETATM    7  C6  UNL     1      23.102  -0.334  53.691  1.00  0.00     0.156 A 
HETATM    8  C14 UNL     1      24.433   0.006  53.560  1.00  0.00     0.041 A 
HETATM    9  C15 UNL     1      24.920   0.776  52.533  1.00  0.00     0.027 A 
HETATM   10  C16 UNL     1      26.259   1.107  52.419  1.00  0.00    -0.028 A 
HETATM   11  C17 UNL     1      26.651   1.947  51.257  1.00  0.00     0.051 C 
ENDROOT
BRANCH   7  12
HETATM   12  N3  UNL     1      22.248   0.173  52.672  1.00  0.00    -0.283 N 
HETATM   13  H6  UNL     1      22.541   0.084  51.685  1.00  0.00     0.188 HD
BRANCH  12  14
HETATM   14  N4  UNL     1      21.056   0.766  53.102  1.00  0.00    -0.299 N 
HETATM   15  H7  UNL     1      21.139   1.628  53.682  1.00  0.00     0.187 HD
BRANCH  14  16
HETATM   16  C7  UNL     1      19.806   0.225  52.768  1.00  0.00     0.048 A 
HETATM   17  C8  UNL     1      19.001   0.836  51.829  1.00  0.00     0.031 A 
HETATM   18  C9  UNL     1      17.748   0.342  51.459  1.00  0.00     0.003 A 
HETATM   19  C10 UNL     1      17.375  -0.820  52.111  1.00  0.00     0.007 A 
HETATM   20  C11 UNL     1      18.138  -1.468  53.050  1.00  0.00    -0.060 A 
HETATM   21  C12 UNL     1      17.699  -2.715  53.727  1.00  0.00     0.048 C 
HETATM   22  C13 UNL     1      19.368  -0.931  53.376  1.00  0.00     0.037 A 
ENDBRANCH  14  16
ENDBRANCH  12  14
ENDBRANCH   7  12
BRANCH   1  23
HETATM   23  O1  UNL     1      28.462   1.056  53.136  1.00  0.00    -0.355 OA
HETATM   24  C1  UNL     1      29.538   0.340  53.715  1.00  0.00     0.210 C 
ENDBRANCH   1  23
TORSDOF 4
ENDMDL
MODEL 7
REMARK VINA RESULT:      -7.7      0.736      1.453
REMARK  4 active torsions:
REMARK  status: ('A' for Active; 'I' for Inactive)
REMARK    1  A    between atoms: O1_2  and  C2_3 
REMARK    2  A    between atoms: C6_9  and  N3_10 
REMARK    3  A    between atoms: N3_10  and  N4_11 
REMARK    4  A    between atoms: N4_11  and  C7_12 
ROOT
HETATM    1  C2  UNL     1      27.214  -0.033  53.884  1.00  0.00     0.076 A 
HETATM    2  C3  UNL     1      25.995  -0.676  53.809  1.00  0.00     0.070 A 
HETATM    3  C4  UNL     1      24.850  -0.004  53.460  1.00  0.00     0.074 A 
HETATM    4  N1  UNL     1      23.696  -0.653  53.399  1.00  0.00    -0.241 NA
HETATM    5  C5  UNL     1      22.524  -0.043  53.059  1.00  0.00     0.236 A 
HETATM    6  N2  UNL     1      22.554   1.273  52.778  1.00  0.00    -0.222 NA
HETATM    7  C6  UNL     1      23.693   1.982  52.824  1.00  0.00     0.156 A 
HETATM    8  C14 UNL     1      24.868   1.347  53.169  1.00  0.00     0.041 A 
HETATM    9  C15 UNL     1      26.081   1.985  53.243  1.00  0.00     0.027 A 
HETATM   10  C16 UNL     1      27.249   1.330  53.593  1.00  0.00    -0.028 A 
HETATM   11  C17 UNL     1      28.493   2.143  53.634  1.00  0.00     0.051 C 
ENDROOT
BRANCH   7  12
HETATM   12  N3  UNL     1      23.821   3.371  52.542  1.00  0.00    -0.283 N 
HETATM   13  H6  UNL     1      23.980   4.026  53.325  1.00  0.00     0.188 HD
BRANCH  12  14
HETATM   14  N4  UNL     1      23.716   3.743  51.198  1.00  0.00    -0.299 N 
HETATM   15  H7  UNL     1      22.994   3.253  50.626  1.00  0.00     0.187 HD
BRANCH  14  16
HETATM   16  C7  UNL     1      24.545   4.728  50.643  1.00  0.00     0.048 A 
HETATM   17  C8  UNL     1      24.274   6.067  50.834  1.00  0.00     0.031 A 
HETATM   18  C9  UNL     1      25.064   7.091  50.304  1.00  0.00     0.003 A 
HETATM   19  C10 UNL     1      26.151   6.652  49.569  1.00  0.00     0.007 A 
HETATM   20  C11 UNL     1      26.466   5.334  49.350  1.00  0.00    -0.060 A 
HETATM   21  C12 UNL     1      27.644   4.907  48.553  1.00  0.00     0.048 C 
HETATM   22  C13 UNL     1      25.647   4.367  49.898  1.00  0.00     0.037 A 
ENDBRANCH  14  16
ENDBRANCH  12  14
ENDBRANCH   7  12
BRANCH   1  23
HETATM   23  O1  UNL     1      28.448  -0.552  54.215  1.00  0.00    -0.355 OA
HETATM   24  C1  UNL     1      29.051  -1.516  53.371  1.00  0.00     0.210 C 
ENDBRANCH   1  23
TORSDOF 4
ENDMDL
MODEL 8
REMARK VINA RESULT:      -7.7      3.282      7.432
REMARK  4 active torsions:
REMARK  status: ('A' for Active; 'I' for Inactive)
REMARK    1  A    between atoms: O1_2  and  C2_3 
REMARK    2  A    between atoms: C6_9  and  N3_10 
REMARK    3  A    between atoms: N3_10  and  N4_11 
REMARK    4  A    between atoms: N4_11  and  C7_12 
ROOT
HETATM    1  C2  UNL     1      28.724   7.223  47.458  1.00  0.00     0.076 A 
HETATM    2  C3  UNL     1      27.384   7.511  47.614  1.00  0.00     0.070 A 
HETATM    3  C4  UNL     1      26.527   6.630  48.227  1.00  0.00     0.074 A 
HETATM    4  N1  UNL     1      25.245   6.939  48.359  1.00  0.00    -0.241 NA
HETATM    5  C5  UNL     1      24.344   6.108  48.958  1.00  0.00     0.236 A 
HETATM    6  N2  UNL     1      24.787   4.928  49.429  1.00  0.00    -0.222 NA
HETATM    7  C6  UNL     1      26.075   4.561  49.323  1.00  0.00     0.156 A 
HETATM    8  C14 UNL     1      26.971   5.416  48.715  1.00  0.00     0.041 A 
HETATM    9  C15 UNL     1      28.304   5.130  48.559  1.00  0.00     0.027 A 
HETATM   10  C16 UNL     1      29.187   6.000  47.945  1.00  0.00    -0.028 A 
HETATM   11  C17 UNL     1      30.605   5.565  47.843  1.00  0.00     0.051 C 
ENDROOT
BRANCH   7  12
HETATM   12  N3  UNL     1      26.632   3.338  49.790  1.00  0.00    -0.283 N 
HETATM   13  H6  UNL     1      26.960   2.643  49.099  1.00  0.00     0.188 HD
BRANCH  12  14
HETATM   14  N4  UNL     1      26.691   3.174  51.178  1.00  0.00    -0.299 N 
HETATM   15  H7  UNL     1      27.230   3.886  51.716  1.00  0.00     0.187 HD
BRANCH  14  16
HETATM   16  C7  UNL     1      26.054   2.100  51.817  1.00  0.00     0.048 A 
HETATM   17  C8  UNL     1      24.800   2.252  52.371  1.00  0.00     0.031 A 
HETATM   18  C9  UNL     1      24.120   1.219  53.019  1.00  0.00     0.003 A 
HETATM   19  C10 UNL     1      24.808   0.018  53.061  1.00  0.00     0.007 A 
HETATM   20  C11 UNL     1      26.055  -0.186  52.526  1.00  0.00    -0.060 A 
HETATM   21  C12 UNL     1      26.759  -1.492  52.594  1.00  0.00     0.048 C 
HETATM   22  C13 UNL     1      26.679   0.875  51.897  1.00  0.00     0.037 A 
ENDBRANCH  14  16
ENDBRANCH  12  14
ENDBRANCH   7  12
BRANCH   1  23
HETATM   23  O1  UNL     1      29.712   7.986  46.872  1.00  0.00    -0.355 OA
HETATM   24  C1  UNL     1      30.055   9.238  47.437  1.00  0.00     0.210 C 
ENDBRANCH   1  23
TORSDOF 4
ENDMDL
MODEL 9
REMARK VINA RESULT:      -7.5      1.869      5.621
REMARK  4 active torsions:
REMARK  status: ('A' for Active; 'I' for Inactive)
REMARK    1  A    between atoms: O1_2  and  C2_3 
REMARK    2  A    between atoms: C6_9  and  N3_10 
REMARK    3  A    between atoms: N3_10  and  N4_11 
REMARK    4  A    between atoms: N4_11  and  C7_12 
ROOT
HETATM    1  C2  UNL     1      27.363   0.456  53.576  1.00  0.00     0.076 A 
HETATM    2  C3  UNL     1      27.641   1.292  52.515  1.00  0.00     0.070 A 
HETATM    3  C4  UNL     1      26.669   2.078  51.946  1.00  0.00     0.074 A 
HETATM    4  N1  UNL     1      26.972   2.870  50.927  1.00  0.00    -0.241 NA
HETATM    5  C5  UNL     1      26.053   3.674  50.320  1.00  0.00     0.236 A 
HETATM    6  N2  UNL     1      24.789   3.653  50.783  1.00  0.00    -0.222 NA
HETATM    7  C6  UNL     1      24.425   2.871  51.812  1.00  0.00     0.156 A 
HETATM    8  C14 UNL     1      25.369   2.065  52.413  1.00  0.00     0.041 A 
HETATM    9  C15 UNL     1      25.093   1.233  53.469  1.00  0.00     0.027 A 
HETATM   10  C16 UNL     1      26.054   0.431  54.059  1.00  0.00    -0.028 A 
HETATM   11  C17 UNL     1      25.619  -0.422  55.196  1.00  0.00     0.051 C 
ENDROOT
BRANCH   7  12
HETATM   12  N3  UNL     1      23.117   2.784  52.368  1.00  0.00    -0.283 N 
HETATM   13  H6  UNL     1      22.920   3.272  53.257  1.00  0.00     0.188 HD
BRANCH  12  14
HETATM   14  N4  UNL     1      22.188   2.027  51.648  1.00  0.00    -0.299 N 
HETATM   15  H7  UNL     1      22.085   2.243  50.633  1.00  0.00     0.187 HD
BRANCH  14  16
HETATM   16  C7  UNL     1      21.426   1.023  52.263  1.00  0.00     0.048 A 
HETATM   17  C8  UNL     1      20.100   0.841  51.931  1.00  0.00     0.031 A 
HETATM   18  C9  UNL     1      19.293  -0.142  52.512  1.00  0.00     0.003 A 
HETATM   19  C10 UNL     1      19.936  -0.927  53.453  1.00  0.00     0.007 A 
HETATM   20  C11 UNL     1      21.252  -0.788  53.819  1.00  0.00    -0.060 A 
HETATM   21  C12 UNL     1      21.903  -1.653  54.835  1.00  0.00     0.048 C 
HETATM   22  C13 UNL     1      21.999   0.202  53.210  1.00  0.00     0.037 A 
ENDBRANCH  14  16
ENDBRANCH  12  14
ENDBRANCH   7  12
BRANCH   1  23
HETATM   23  O1  UNL     1      28.211  -0.392  54.258  1.00  0.00    -0.355 OA
HETATM   24  C1  UNL     1      29.580  -0.447  53.901  1.00  0.00     0.210 C 
ENDBRANCH   1  23
TORSDOF 4
ENDMDL
