MODEL 1
REMARK VINA RESULT:      -8.6      0.000      0.000
REMARK  2 active torsions:
REMARK  status: ('A' for Active; 'I' for Inactive)
REMARK       I    between atoms: C1_2  and  N1_3 
REMARK       I    between atoms: C1_2  and  N2_10 
REMARK    1  A    between atoms: N1_3  and  C2_4 
REMARK    2  A    between atoms: C16_20  and  O2_21 
ROOT
HETATM    1  O1  UNL     1      24.004  -0.633  53.524  1.00  0.00    -0.247 OA
HETATM    2  C1  UNL     1      24.402   0.508  53.261  1.00  0.00     0.323 C 
HETATM    3  N1  UNL     1      25.778   0.655  52.984  1.00  0.00    -0.309 N 
HETATM    4  N2  UNL     1      23.295   1.461  53.302  1.00  0.00    -0.332 N 
HETATM    5  C8  UNL     1      22.277   0.553  53.583  1.00  0.00     0.127 C 
HETATM    6  C9  UNL     1      21.593  -0.257  52.536  1.00  0.00     0.020 C 
HETATM    7  C10 UNL     1      20.829   0.452  51.475  1.00  0.00     0.007 C 
HETATM    8  C11 UNL     1      21.465   1.078  50.358  1.00  0.00     0.030 C 
HETATM    9  C12 UNL     1      21.463   1.060  48.981  1.00  0.00     0.020 C 
HETATM   10  C13 UNL     1      22.430   2.033  48.405  1.00  0.00     0.009 C 
HETATM   11 CL1  UNL     1      22.710   2.420  46.715  1.00  0.00    -0.089 Cl
HETATM   12  C14 UNL     1      23.238   2.764  49.214  1.00  0.00     0.001 C 
HETATM   13  C15 UNL     1      23.936   3.350  50.352  1.00  0.00     0.128 C 
HETATM   14  C16 UNL     1      23.983   3.171  51.659  1.00  0.00     0.064 C 
HETATM   15  C17 UNL     1      23.878   2.773  53.083  1.00  0.00     0.160 C 
HETATM   16  H1  UNL     1      26.032   1.635  52.753  1.00  0.00     0.170 HD
ENDROOT
BRANCH   3  17
HETATM   17  C2  UNL     1      26.789  -0.321  52.968  1.00  0.00     0.036 A 
HETATM   18  C3  UNL     1      26.718  -1.627  52.545  1.00  0.00     0.029 A 
HETATM   19  C4  UNL     1      27.742  -2.517  52.561  1.00  0.00     0.002 A 
HETATM   20  C5  UNL     1      28.944  -2.078  53.037  1.00  0.00     0.000 A 
HETATM   21  C6  UNL     1      29.107  -0.805  53.477  1.00  0.00     0.002 A 
HETATM   22  C7  UNL     1      28.036   0.055  53.438  1.00  0.00     0.029 A 
ENDBRANCH   3  17
BRANCH  14  23
HETATM   23  O2  UNL     1      24.877   4.259  51.475  1.00  0.00    -0.393 OA
HETATM   24  H17 UNL     1      24.769   5.039  52.110  1.00  0.00     0.210 HD
ENDBRANCH  14  23
TORSDOF 2
ENDMDL
MODEL 2
REMARK VINA RESULT:      -7.7      2.680      3.698
REMARK  2 active torsions:
REMARK  status: ('A' for Active; 'I' for Inactive)
REMARK       I    between atoms: C1_2  and  N1_3 
REMARK       I    between atoms: C1_2  and  N2_10 
REMARK    1  A    between atoms: N1_3  and  C2_4 
REMARK    2  A    between atoms: C16_20  and  O2_21 
ROOT
HETATM    1  O1  UNL     1      22.444   1.675  51.268  1.00  0.00    -0.247 OA
HETATM    2  C1  UNL     1      22.910   2.653  51.865  1.00  0.00     0.323 C 
HETATM    3  N1  UNL     1      24.165   2.481  52.488  1.00  0.00    -0.309 N 
HETATM    4  N2  UNL     1      22.004   3.795  51.768  1.00  0.00    -0.332 N 
HETATM    5  C8  UNL     1      21.035   3.196  50.965  1.00  0.00     0.127 C 
HETATM    6  C9  UNL     1      21.145   3.106  49.482  1.00  0.00     0.020 C 
HETATM    7  C10 UNL     1      21.188   4.367  48.694  1.00  0.00     0.007 C 
HETATM    8  C11 UNL     1      22.370   5.163  48.581  1.00  0.00     0.030 C 
HETATM    9  C12 UNL     1      23.214   5.690  47.629  1.00  0.00     0.020 C 
HETATM   10  C13 UNL     1      24.323   6.477  48.234  1.00  0.00     0.009 C 
HETATM   11 CL1  UNL     1      25.578   7.395  47.419  1.00  0.00    -0.089 Cl
HETATM   12  C14 UNL     1      24.457   6.554  49.582  1.00  0.00     0.001 C 
HETATM   13  C15 UNL     1      24.305   6.408  51.025  1.00  0.00     0.128 C 
HETATM   14  C16 UNL     1      23.541   5.725  51.857  1.00  0.00     0.064 C 
HETATM   15  C17 UNL     1      22.587   4.849  52.578  1.00  0.00     0.160 C 
HETATM   16  H1  UNL     1      24.499   3.349  52.949  1.00  0.00     0.170 HD
ENDROOT
BRANCH   3  17
HETATM   17  C2  UNL     1      24.981   1.338  52.539  1.00  0.00     0.036 A 
HETATM   18  C3  UNL     1      26.093   1.040  51.788  1.00  0.00     0.029 A 
HETATM   19  C4  UNL     1      26.834  -0.092  51.894  1.00  0.00     0.002 A 
HETATM   20  C5  UNL     1      26.443  -1.011  52.824  1.00  0.00     0.000 A 
HETATM   21  C6  UNL     1      25.356  -0.802  53.610  1.00  0.00     0.002 A 
HETATM   22  C7  UNL     1      24.641   0.362  53.461  1.00  0.00     0.029 A 
ENDBRANCH   3  17
BRANCH  14  23
HETATM   23  O2  UNL     1      24.350   6.477  52.747  1.00  0.00    -0.393 OA
HETATM   24  H17 UNL     1      24.448   6.108  53.683  1.00  0.00     0.210 HD
ENDBRANCH  14  23
TORSDOF 2
ENDMDL
MODEL 3
REMARK VINA RESULT:      -7.5      7.839     10.376
REMARK  2 active torsions:
REMARK  status: ('A' for Active; 'I' for Inactive)
REMARK       I    between atoms: C1_2  and  N1_3 
REMARK       I    between atoms: C1_2  and  N2_10 
REMARK    1  A    between atoms: N1_3  and  C2_4 
REMARK    2  A    between atoms: C16_20  and  O2_21 
ROOT
HETATM    1  O1  UNL     1      28.093   7.740  46.881  1.00  0.00    -0.247 OA
HETATM    2  C1  UNL     1      28.746   7.594  47.921  1.00  0.00     0.323 C 
HETATM    3  N1  UNL     1      28.169   6.790  48.928  1.00  0.00    -0.309 N 
HETATM    4  N2  UNL     1      30.011   8.321  47.842  1.00  0.00    -0.332 N 
HETATM    5  C8  UNL     1      29.867   8.804  46.543  1.00  0.00     0.127 C 
HETATM    6  C9  UNL     1      30.206   8.003  45.333  1.00  0.00     0.020 C 
HETATM    7  C10 UNL     1      31.614   7.566  45.140  1.00  0.00     0.007 C 
HETATM    8  C11 UNL     1      32.176   6.456  45.844  1.00  0.00     0.030 C 
HETATM    9  C12 UNL     1      32.799   5.250  45.611  1.00  0.00     0.020 C 
HETATM   10  C13 UNL     1      33.152   4.546  46.874  1.00  0.00     0.009 C 
HETATM   11 CL1  UNL     1      34.026   3.036  47.071  1.00  0.00    -0.089 Cl
HETATM   12  C14 UNL     1      32.798   5.067  48.076  1.00  0.00     0.001 C 
HETATM   13  C15 UNL     1      32.259   5.891  49.152  1.00  0.00     0.128 C 
HETATM   14  C16 UNL     1      31.510   6.972  49.265  1.00  0.00     0.064 C 
HETATM   15  C17 UNL     1      30.650   8.172  49.137  1.00  0.00     0.160 C 
HETATM   16  H1  UNL     1      28.784   6.697  49.760  1.00  0.00     0.170 HD
ENDROOT
BRANCH   3  17
HETATM   17  C2  UNL     1      26.934   6.120  48.929  1.00  0.00     0.036 A 
HETATM   18  C3  UNL     1      25.676   6.635  48.718  1.00  0.00     0.029 A 
HETATM   19  C4  UNL     1      24.521   5.923  48.736  1.00  0.00     0.002 A 
HETATM   20  C5  UNL     1      24.616   4.584  48.983  1.00  0.00     0.000 A 
HETATM   21  C6  UNL     1      25.816   3.990  49.204  1.00  0.00     0.002 A 
HETATM   22  C7  UNL     1      26.955   4.758  49.175  1.00  0.00     0.029 A 
ENDBRANCH   3  17
BRANCH  14  23
HETATM   23  O2  UNL     1      31.802   6.668  50.621  1.00  0.00    -0.393 OA
HETATM   24  H17 UNL     1      32.777   6.701  50.887  1.00  0.00     0.210 HD
ENDBRANCH  14  23
TORSDOF 2
ENDMDL
MODEL 4
REMARK VINA RESULT:      -7.5      9.086     11.383
REMARK  2 active torsions:
REMARK  status: ('A' for Active; 'I' for Inactive)
REMARK       I    between atoms: C1_2  and  N1_3 
REMARK       I    between atoms: C1_2  and  N2_10 
REMARK    1  A    between atoms: N1_3  and  C2_4 
REMARK    2  A    between atoms: C16_20  and  O2_21 
ROOT
HETATM    1  O1  UNL     1      30.935   7.157  49.054  1.00  0.00    -0.247 OA
HETATM    2  C1  UNL     1      31.065   6.043  48.533  1.00  0.00     0.323 C 
HETATM    3  N1  UNL     1      29.886   5.397  48.104  1.00  0.00    -0.309 N 
HETATM    4  N2  UNL     1      32.474   5.658  48.488  1.00  0.00    -0.332 N 
HETATM    5  C8  UNL     1      33.003   6.824  49.039  1.00  0.00     0.127 C 
HETATM    6  C9  UNL     1      33.272   8.054  48.242  1.00  0.00     0.020 C 
HETATM    7  C10 UNL     1      34.266   7.983  47.138  1.00  0.00     0.007 C 
HETATM    8  C11 UNL     1      33.961   7.411  45.865  1.00  0.00     0.030 C 
HETATM    9  C12 UNL     1      33.954   7.730  44.525  1.00  0.00     0.020 C 
HETATM   10  C13 UNL     1      33.500   6.594  43.678  1.00  0.00     0.009 C 
HETATM   11 CL1  UNL     1      33.413   6.508  41.926  1.00  0.00    -0.089 Cl
HETATM   12  C14 UNL     1      33.084   5.434  44.247  1.00  0.00     0.001 C 
HETATM   13  C15 UNL     1      32.706   4.375  45.175  1.00  0.00     0.128 C 
HETATM   14  C16 UNL     1      32.587   4.225  46.481  1.00  0.00     0.064 C 
HETATM   15  C17 UNL     1      32.512   4.307  47.959  1.00  0.00     0.160 C 
HETATM   16  H1  UNL     1      30.077   4.478  47.660  1.00  0.00     0.170 HD
ENDROOT
BRANCH   3  17
HETATM   17  C2  UNL     1      28.553   5.836  48.187  1.00  0.00     0.036 A 
HETATM   18  C3  UNL     1      28.009   7.021  47.751  1.00  0.00     0.029 A 
HETATM   19  C4  UNL     1      26.706   7.379  47.868  1.00  0.00     0.002 A 
HETATM   20  C5  UNL     1      25.864   6.487  48.469  1.00  0.00     0.000 A 
HETATM   21  C6  UNL     1      26.313   5.293  48.931  1.00  0.00     0.002 A 
HETATM   22  C7  UNL     1      27.644   4.982  48.786  1.00  0.00     0.029 A 
ENDBRANCH   3  17
BRANCH  14  23
HETATM   23  O2  UNL     1      32.247   2.933  46.001  1.00  0.00    -0.393 OA
HETATM   24  H17 UNL     1      32.435   2.160  46.626  1.00  0.00     0.210 HD
ENDBRANCH  14  23
TORSDOF 2
ENDMDL
MODEL 5
REMARK VINA RESULT:      -7.3      2.292      3.034
REMARK  2 active torsions:
REMARK  status: ('A' for Active; 'I' for Inactive)
REMARK       I    between atoms: C1_2  and  N1_3 
REMARK       I    between atoms: C1_2  and  N2_10 
REMARK    1  A    between atoms: N1_3  and  C2_4 
REMARK    2  A    between atoms: C16_20  and  O2_21 
ROOT
HETATM    1  O1  UNL     1      24.180   1.098  52.390  1.00  0.00    -0.247 OA
HETATM    2  C1  UNL     1      24.246   2.249  52.837  1.00  0.00     0.323 C 
HETATM    3  N1  UNL     1      25.436   2.607  53.507  1.00  0.00    -0.309 N 
HETATM    4  N2  UNL     1      23.018   2.986  52.544  1.00  0.00    -0.332 N 
HETATM    5  C8  UNL     1      22.369   1.986  51.822  1.00  0.00     0.127 C 
HETATM    6  C9  UNL     1      22.613   1.736  50.374  1.00  0.00     0.020 C 
HETATM    7  C10 UNL     1      22.288   2.813  49.401  1.00  0.00     0.007 C 
HETATM    8  C11 UNL     1      23.139   3.942  49.192  1.00  0.00     0.030 C 
HETATM    9  C12 UNL     1      23.825   4.590  48.190  1.00  0.00     0.020 C 
HETATM   10  C13 UNL     1      24.557   5.785  48.690  1.00  0.00     0.009 C 
HETATM   11 CL1  UNL     1      25.488   6.956  47.770  1.00  0.00    -0.089 Cl
HETATM   12  C14 UNL     1      24.558   6.089  50.012  1.00  0.00     0.001 C 
HETATM   13  C15 UNL     1      24.357   6.101  51.456  1.00  0.00     0.128 C 
HETATM   14  C16 UNL     1      23.807   5.318  52.367  1.00  0.00     0.064 C 
HETATM   15  C17 UNL     1      23.152   4.277  53.193  1.00  0.00     0.160 C 
HETATM   16  H1  UNL     1      25.424   3.592  53.836  1.00  0.00     0.170 HD
ENDROOT
BRANCH   3  17
HETATM   17  C2  UNL     1      26.581   1.831  53.754  1.00  0.00     0.036 A 
HETATM   18  C3  UNL     1      26.698   0.681  54.498  1.00  0.00     0.029 A 
HETATM   19  C4  UNL     1      27.845  -0.017  54.694  1.00  0.00     0.002 A 
HETATM   20  C5  UNL     1      28.978   0.463  54.101  1.00  0.00     0.000 A 
HETATM   21  C6  UNL     1      28.957   1.592  53.349  1.00  0.00     0.002 A 
HETATM   22  C7  UNL     1      27.768   2.260  53.184  1.00  0.00     0.029 A 
ENDBRANCH   3  17
BRANCH  14  23
HETATM   23  O2  UNL     1      24.248   6.419  53.148  1.00  0.00    -0.393 OA
HETATM   24  H17 UNL     1      24.262   7.318  52.686  1.00  0.00     0.210 HD
ENDBRANCH  14  23
TORSDOF 2
ENDMDL
MODEL 6
REMARK VINA RESULT:      -7.3      8.403     11.156
REMARK  2 active torsions:
REMARK  status: ('A' for Active; 'I' for Inactive)
REMARK       I    between atoms: C1_2  and  N1_3 
REMARK       I    between atoms: C1_2  and  N2_10 
REMARK    1  A    between atoms: N1_3  and  C2_4 
REMARK    2  A    between atoms: C16_20  and  O2_21 
ROOT
HETATM    1  O1  UNL     1      29.544   9.214  47.320  1.00  0.00    -0.247 OA
HETATM    2  C1  UNL     1      29.902   8.545  48.296  1.00  0.00     0.323 C 
HETATM    3  N1  UNL     1      28.882   7.935  49.060  1.00  0.00    -0.309 N 
HETATM    4  N2  UNL     1      31.358   8.551  48.419  1.00  0.00    -0.332 N 
HETATM    5  C8  UNL     1      31.637   9.308  47.283  1.00  0.00     0.127 C 
HETATM    6  C9  UNL     1      31.715   8.726  45.914  1.00  0.00     0.020 C 
HETATM    7  C10 UNL     1      32.758   7.704  45.634  1.00  0.00     0.007 C 
HETATM    8  C11 UNL     1      32.625   6.340  46.039  1.00  0.00     0.030 C 
HETATM    9  C12 UNL     1      32.626   5.066  45.516  1.00  0.00     0.020 C 
HETATM   10  C13 UNL     1      32.429   4.027  46.563  1.00  0.00     0.009 C 
HETATM   11 CL1  UNL     1      32.444   2.281  46.381  1.00  0.00    -0.089 Cl
HETATM   12  C14 UNL     1      32.205   4.383  47.853  1.00  0.00     0.001 C 
HETATM   13  C15 UNL     1      31.982   5.112  49.096  1.00  0.00     0.128 C 
HETATM   14  C16 UNL     1      31.829   6.368  49.471  1.00  0.00     0.064 C 
HETATM   15  C17 UNL     1      31.667   7.832  49.641  1.00  0.00     0.160 C 
HETATM   16  H1  UNL     1      29.260   7.375  49.848  1.00  0.00     0.170 HD
ENDROOT
BRANCH   3  17
HETATM   17  C2  UNL     1      27.490   7.981  48.876  1.00  0.00     0.036 A 
HETATM   18  C3  UNL     1      26.731   7.389  47.894  1.00  0.00     0.029 A 
HETATM   19  C4  UNL     1      25.382   7.479  47.780  1.00  0.00     0.002 A 
HETATM   20  C5  UNL     1      24.723   8.218  48.719  1.00  0.00     0.000 A 
HETATM   21  C6  UNL     1      25.390   8.839  49.725  1.00  0.00     0.002 A 
HETATM   22  C7  UNL     1      26.757   8.715  49.793  1.00  0.00     0.029 A 
ENDBRANCH   3  17
BRANCH  14  23
HETATM   23  O2  UNL     1      31.755   5.677  50.709  1.00  0.00    -0.393 OA
HETATM   24  H17 UNL     1      30.938   5.861  51.276  1.00  0.00     0.210 HD
ENDBRANCH  14  23
TORSDOF 2
ENDMDL
MODEL 7
REMARK VINA RESULT:      -7.1      1.660      2.037
REMARK  2 active torsions:
REMARK  status: ('A' for Active; 'I' for Inactive)
REMARK       I    between atoms: C1_2  and  N1_3 
REMARK       I    between atoms: C1_2  and  N2_10 
REMARK    1  A    between atoms: N1_3  and  C2_4 
REMARK    2  A    between atoms: C16_20  and  O2_21 
ROOT
HETATM    1  O1  UNL     1      22.702   0.866  52.983  1.00  0.00    -0.247 OA
HETATM    2  C1  UNL     1      23.040   2.023  52.709  1.00  0.00     0.323 C 
HETATM    3  N1  UNL     1      24.426   2.281  52.630  1.00  0.00    -0.309 N 
HETATM    4  N2  UNL     1      21.866   2.873  52.524  1.00  0.00    -0.332 N 
HETATM    5  C8  UNL     1      20.894   1.892  52.710  1.00  0.00     0.127 C 
HETATM    6  C9  UNL     1      20.448   0.971  51.627  1.00  0.00     0.020 C 
HETATM    7  C10 UNL     1      19.800   1.551  50.421  1.00  0.00     0.007 C 
HETATM    8  C11 UNL     1      20.545   2.175  49.373  1.00  0.00     0.030 C 
HETATM    9  C12 UNL     1      20.756   2.087  48.015  1.00  0.00     0.020 C 
HETATM   10  C13 UNL     1      21.716   3.113  47.526  1.00  0.00     0.009 C 
HETATM   11 CL1  UNL     1      22.218   3.436  45.875  1.00  0.00    -0.089 Cl
HETATM   12  C14 UNL     1      22.328   3.954  48.398  1.00  0.00     0.001 C 
HETATM   13  C15 UNL     1      22.794   4.658  49.587  1.00  0.00     0.128 C 
HETATM   14  C16 UNL     1      22.654   4.552  50.895  1.00  0.00     0.064 C 
HETATM   15  C17 UNL     1      22.366   4.219  52.310  1.00  0.00     0.160 C 
HETATM   16  H1  UNL     1      24.631   3.267  52.376  1.00  0.00     0.170 HD
ENDROOT
BRANCH   3  17
HETATM   17  C2  UNL     1      25.504   1.401  52.827  1.00  0.00     0.036 A 
HETATM   18  C3  UNL     1      25.919   0.358  52.034  1.00  0.00     0.029 A 
HETATM   19  C4  UNL     1      26.975  -0.455  52.291  1.00  0.00     0.002 A 
HETATM   20  C5  UNL     1      27.685  -0.215  53.432  1.00  0.00     0.000 A 
HETATM   21  C6  UNL     1      27.348   0.793  54.275  1.00  0.00     0.002 A 
HETATM   22  C7  UNL     1      26.268   1.586  53.966  1.00  0.00     0.029 A 
ENDBRANCH   3  17
BRANCH  14  23
HETATM   23  O2  UNL     1      23.474   5.706  50.776  1.00  0.00    -0.393 OA
HETATM   24  H17 UNL     1      24.472   5.551  50.818  1.00  0.00     0.210 HD
ENDBRANCH  14  23
TORSDOF 2
ENDMDL
MODEL 8
REMARK VINA RESULT:      -7.0      2.988      4.797
REMARK  2 active torsions:
REMARK  status: ('A' for Active; 'I' for Inactive)
REMARK       I    between atoms: C1_2  and  N1_3 
REMARK       I    between atoms: C1_2  and  N2_10 
REMARK    1  A    between atoms: N1_3  and  C2_4 
REMARK    2  A    between atoms: C16_20  and  O2_21 
ROOT
HETATM    1  O1  UNL     1      23.337   3.291  52.682  1.00  0.00    -0.247 OA
HETATM    2  C1  UNL     1      23.305   2.693  51.600  1.00  0.00     0.323 C 
HETATM    3  N1  UNL     1      23.157   1.290  51.651  1.00  0.00    -0.309 N 
HETATM    4  N2  UNL     1      23.431   3.633  50.488  1.00  0.00    -0.332 N 
HETATM    5  C8  UNL     1      23.477   4.805  51.240  1.00  0.00     0.127 C 
HETATM    6  C9  UNL     1      22.259   5.501  51.742  1.00  0.00     0.020 C 
HETATM    7  C10 UNL     1      21.285   6.033  50.753  1.00  0.00     0.007 C 
HETATM    8  C11 UNL     1      20.342   5.198  50.076  1.00  0.00     0.030 C 
HETATM    9  C12 UNL     1      18.986   5.065  49.874  1.00  0.00     0.020 C 
HETATM   10  C13 UNL     1      18.658   3.904  49.004  1.00  0.00     0.009 C 
HETATM   11 CL1  UNL     1      17.085   3.400  48.408  1.00  0.00    -0.089 Cl
HETATM   12  C14 UNL     1      19.638   3.075  48.562  1.00  0.00     0.001 C 
HETATM   13  C15 UNL     1      20.907   2.410  48.295  1.00  0.00     0.128 C 
HETATM   14  C16 UNL     1      22.164   2.522  48.684  1.00  0.00     0.064 C 
HETATM   15  C17 UNL     1      23.485   2.831  49.280  1.00  0.00     0.160 C 
HETATM   16  H1  UNL     1      23.118   0.862  50.706  1.00  0.00     0.170 HD
ENDROOT
BRANCH   3  17
HETATM   17  C2  UNL     1      23.045   0.450  52.772  1.00  0.00     0.036 A 
HETATM   18  C3  UNL     1      24.045  -0.114  53.529  1.00  0.00     0.029 A 
HETATM   19  C4  UNL     1      23.859  -0.920  54.604  1.00  0.00     0.002 A 
HETATM   20  C5  UNL     1      22.572  -1.194  54.965  1.00  0.00     0.000 A 
HETATM   21  C6  UNL     1      21.521  -0.682  54.276  1.00  0.00     0.002 A 
HETATM   22  C7  UNL     1      21.766   0.129  53.194  1.00  0.00     0.029 A 
ENDBRANCH   3  17
BRANCH  14  23
HETATM   23  O2  UNL     1      22.236   1.453  47.753  1.00  0.00    -0.393 OA
HETATM   24  H17 UNL     1      23.116   1.341  47.268  1.00  0.00     0.210 HD
ENDBRANCH  14  23
TORSDOF 2
ENDMDL
MODEL 9
REMARK VINA RESULT:      -6.9      3.976      7.379
REMARK  2 active torsions:
REMARK  status: ('A' for Active; 'I' for Inactive)
REMARK       I    between atoms: C1_2  and  N1_3 
REMARK       I    between atoms: C1_2  and  N2_10 
REMARK    1  A    between atoms: N1_3  and  C2_4 
REMARK    2  A    between atoms: C16_20  and  O2_21 
ROOT
HETATM    1  O1  UNL     1      21.995   4.425  48.085  1.00  0.00    -0.247 OA
HETATM    2  C1  UNL     1      22.859   4.392  48.969  1.00  0.00     0.323 C 
HETATM    3  N1  UNL     1      22.999   5.548  49.768  1.00  0.00    -0.309 N 
HETATM    4  N2  UNL     1      23.549   3.104  48.967  1.00  0.00    -0.332 N 
HETATM    5  C8  UNL     1      22.816   2.502  47.947  1.00  0.00     0.127 C 
HETATM    6  C9  UNL     1      21.499   1.841  48.169  1.00  0.00     0.020 C 
HETATM    7  C10 UNL     1      21.438   0.660  49.071  1.00  0.00     0.007 C 
HETATM    8  C11 UNL     1      21.446   0.780  50.495  1.00  0.00     0.030 C 
HETATM    9  C12 UNL     1      20.699   0.433  51.599  1.00  0.00     0.020 C 
HETATM   10  C13 UNL     1      21.324   0.894  52.868  1.00  0.00     0.009 C 
HETATM   11 CL1  UNL     1      20.783   0.609  54.515  1.00  0.00    -0.089 Cl
HETATM   12  C14 UNL     1      22.463   1.632  52.848  1.00  0.00     0.001 C 
HETATM   13  C15 UNL     1      23.642   2.394  52.455  1.00  0.00     0.128 C 
HETATM   14  C16 UNL     1      24.192   2.822  51.334  1.00  0.00     0.064 C 
HETATM   15  C17 UNL     1      24.602   3.203  49.961  1.00  0.00     0.160 C 
HETATM   16  H1  UNL     1      23.728   5.437  50.499  1.00  0.00     0.170 HD
ENDROOT
BRANCH   3  17
HETATM   17  C2  UNL     1      22.292   6.761  49.704  1.00  0.00     0.036 A 
HETATM   18  C3  UNL     1      21.044   7.056  50.198  1.00  0.00     0.029 A 
HETATM   19  C4  UNL     1      20.421   8.257  50.097  1.00  0.00     0.002 A 
HETATM   20  C5  UNL     1      21.090   9.256  49.451  1.00  0.00     0.000 A 
HETATM   21  C6  UNL     1      22.327   9.055  48.930  1.00  0.00     0.002 A 
HETATM   22  C7  UNL     1      22.912   7.818  49.061  1.00  0.00     0.029 A 
ENDBRANCH   3  17
BRANCH  14  23
HETATM   23  O2  UNL     1      25.113   3.282  52.312  1.00  0.00    -0.393 OA
HETATM   24  H17 UNL     1      24.927   3.005  53.266  1.00  0.00     0.210 HD
ENDBRANCH  14  23
TORSDOF 2
ENDMDL
