MODEL 1
REMARK VINA RESULT:      -6.9      0.000      0.000
REMARK  6 active torsions:
REMARK  status: ('A' for Active; 'I' for Inactive)
REMARK    1  A    between atoms: C2_2  and  C3_3 
REMARK    2  A    between atoms: C3_3  and  C4_4 
REMARK    3  A    between atoms: C4_4  and  N1_5 
REMARK       I    between atoms: N1_5  and  C5_6 
REMARK    4  A    between atoms: N1_5  and  C12_15 
REMARK       I    between atoms: C5_6  and  N2_8 
REMARK    5  A    between atoms: N2_8  and  C6_9 
REMARK    6  A    between atoms: C16_20  and  O2_21 
ROOT
HETATM    1  N1  UNL     1      22.944   0.971  51.951  1.00  0.00    -0.297 N 
HETATM    2  C5  UNL     1      24.346   0.954  52.236  1.00  0.00     0.327 C 
HETATM    3  O1  UNL     1      25.090   1.820  51.709  1.00  0.00    -0.246 OA
HETATM    4  N2  UNL     1      24.940   0.002  53.092  1.00  0.00    -0.309 N 
HETATM    5  H10 UNL     1      24.236  -0.668  53.473  1.00  0.00     0.170 HD
ENDROOT
BRANCH   1   6
HETATM    6  C4  UNL     1      22.026   0.005  52.524  1.00  0.00     0.134 C 
BRANCH   6   7
HETATM    7  C3  UNL     1      21.152   0.567  53.589  1.00  0.00     0.020 C 
BRANCH   7   8
HETATM    8  C2  UNL     1      21.317  -0.275  54.846  1.00  0.00    -0.003 C 
HETATM    9  C1  UNL     1      21.855  -1.647  54.497  1.00  0.00     0.005 C 
ENDBRANCH   7   8
ENDBRANCH   6   7
ENDBRANCH   1   6
BRANCH   1  10
HETATM   10  C12 UNL     1      22.429   1.968  51.071  1.00  0.00     0.070 A 
HETATM   11  C13 UNL     1      22.239   1.489  49.839  1.00  0.00     0.011 A 
HETATM   12  C14 UNL     1      21.698   2.581  48.963  1.00  0.00     0.079 A 
HETATM   13  C15 UNL     1      21.625   3.718  49.896  1.00  0.00     0.028 A 
HETATM   14 BR1  UNL     1      21.038   5.502  49.583  1.00  0.00    -0.052 Br
HETATM   15  C16 UNL     1      22.044   3.371  51.110  1.00  0.00     0.108 A 
BRANCH  15  16
HETATM   16  O2  UNL     1      22.186   4.011  52.329  1.00  0.00    -0.353 OA
HETATM   17  C17 UNL     1      23.366   4.755  52.583  1.00  0.00     0.210 C 
ENDBRANCH  15  16
ENDBRANCH   1  10
BRANCH   4  18
HETATM   18  C6  UNL     1      26.293  -0.152  53.474  1.00  0.00     0.036 A 
HETATM   19  C7  UNL     1      26.949   0.484  54.490  1.00  0.00     0.029 A 
HETATM   20  C8  UNL     1      28.273   0.299  54.823  1.00  0.00     0.002 A 
HETATM   21  C9  UNL     1      29.018  -0.588  54.098  1.00  0.00     0.000 A 
HETATM   22  C10 UNL     1      28.402  -1.252  53.065  1.00  0.00     0.002 A 
HETATM   23  C11 UNL     1      27.077  -1.035  52.768  1.00  0.00     0.029 A 
ENDBRANCH   4  18
TORSDOF 6
ENDMDL
MODEL 2
REMARK VINA RESULT:      -6.8      1.372      2.178
REMARK  6 active torsions:
REMARK  status: ('A' for Active; 'I' for Inactive)
REMARK    1  A    between atoms: C2_2  and  C3_3 
REMARK    2  A    between atoms: C3_3  and  C4_4 
REMARK    3  A    between atoms: C4_4  and  N1_5 
REMARK       I    between atoms: N1_5  and  C5_6 
REMARK    4  A    between atoms: N1_5  and  C12_15 
REMARK       I    between atoms: C5_6  and  N2_8 
REMARK    5  A    between atoms: N2_8  and  C6_9 
REMARK    6  A    between atoms: C16_20  and  O2_21 
ROOT
HETATM    1  N1  UNL     1      23.905   1.755  52.413  1.00  0.00    -0.297 N 
HETATM    2  C5  UNL     1      25.238   1.236  52.389  1.00  0.00     0.327 C 
HETATM    3  O1  UNL     1      26.113   1.824  51.703  1.00  0.00    -0.246 OA
HETATM    4  N2  UNL     1      25.623   0.084  53.107  1.00  0.00    -0.309 N 
HETATM    5  H10 UNL     1      24.823  -0.325  53.640  1.00  0.00     0.170 HD
ENDROOT
BRANCH   1   6
HETATM    6  C4  UNL     1      22.846   1.130  53.182  1.00  0.00     0.134 C 
BRANCH   6   7
HETATM    7  C3  UNL     1      22.134   0.045  52.452  1.00  0.00     0.020 C 
BRANCH   7   8
HETATM    8  C2  UNL     1      22.243  -1.237  53.264  1.00  0.00    -0.003 C 
HETATM    9  C1  UNL     1      22.225  -0.927  54.747  1.00  0.00     0.005 C 
ENDBRANCH   7   8
ENDBRANCH   6   7
ENDBRANCH   1   6
BRANCH   1  10
HETATM   10  C12 UNL     1      23.603   2.923  51.653  1.00  0.00     0.070 A 
HETATM   11  C13 UNL     1      23.640   4.025  52.406  1.00  0.00     0.011 A 
HETATM   12  C14 UNL     1      23.315   5.217  51.554  1.00  0.00     0.079 A 
HETATM   13  C15 UNL     1      23.097   4.602  50.234  1.00  0.00     0.028 A 
HETATM   14 BR1  UNL     1      22.639   5.425  48.580  1.00  0.00    -0.052 Br
HETATM   15  C16 UNL     1      23.262   3.284  50.285  1.00  0.00     0.108 A 
BRANCH  15  16
HETATM   16  O2  UNL     1      23.183   2.240  49.379  1.00  0.00    -0.353 OA
HETATM   17  C17 UNL     1      21.925   1.635  49.132  1.00  0.00     0.210 C 
ENDBRANCH  15  16
ENDBRANCH   1  10
BRANCH   4  18
HETATM   18  C6  UNL     1      26.884  -0.551  53.190  1.00  0.00     0.036 A 
HETATM   19  C7  UNL     1      28.050  -0.030  53.678  1.00  0.00     0.029 A 
HETATM   20  C8  UNL     1      29.256  -0.693  53.737  1.00  0.00     0.002 A 
HETATM   21  C9  UNL     1      29.325  -1.979  53.279  1.00  0.00     0.000 A 
HETATM   22  C10 UNL     1      28.178  -2.547  52.779  1.00  0.00     0.002 A 
HETATM   23  C11 UNL     1      26.995  -1.847  52.739  1.00  0.00     0.029 A 
ENDBRANCH   4  18
TORSDOF 6
ENDMDL
MODEL 3
REMARK VINA RESULT:      -6.5      2.632      4.419
REMARK  6 active torsions:
REMARK  status: ('A' for Active; 'I' for Inactive)
REMARK    1  A    between atoms: C2_2  and  C3_3 
REMARK    2  A    between atoms: C3_3  and  C4_4 
REMARK    3  A    between atoms: C4_4  and  N1_5 
REMARK       I    between atoms: N1_5  and  C5_6 
REMARK    4  A    between atoms: N1_5  and  C12_15 
REMARK       I    between atoms: C5_6  and  N2_8 
REMARK    5  A    between atoms: N2_8  and  C6_9 
REMARK    6  A    between atoms: C16_20  and  O2_21 
ROOT
HETATM    1  N1  UNL     1      24.254   3.451  51.248  1.00  0.00    -0.297 N 
HETATM    2  C5  UNL     1      25.030   2.475  51.949  1.00  0.00     0.327 C 
HETATM    3  O1  UNL     1      24.451   1.487  52.467  1.00  0.00    -0.246 OA
HETATM    4  N2  UNL     1      26.432   2.568  52.087  1.00  0.00    -0.309 N 
HETATM    5  H10 UNL     1      26.811   3.424  51.622  1.00  0.00     0.170 HD
ENDROOT
BRANCH   1   6
HETATM    6  C4  UNL     1      24.855   4.615  50.624  1.00  0.00     0.134 C 
BRANCH   6   7
HETATM    7  C3  UNL     1      25.258   4.395  49.208  1.00  0.00     0.020 C 
BRANCH   7   8
HETATM    8  C2  UNL     1      26.778   4.401  49.130  1.00  0.00    -0.003 C 
HETATM    9  C1  UNL     1      27.275   5.722  48.579  1.00  0.00     0.005 C 
ENDBRANCH   7   8
ENDBRANCH   6   7
ENDBRANCH   1   6
BRANCH   1  10
HETATM   10  C12 UNL     1      22.842   3.279  51.160  1.00  0.00     0.070 A 
HETATM   11  C13 UNL     1      22.196   4.023  52.062  1.00  0.00     0.011 A 
HETATM   12  C14 UNL     1      20.719   3.799  51.920  1.00  0.00     0.079 A 
HETATM   13  C15 UNL     1      20.658   2.828  50.815  1.00  0.00     0.028 A 
HETATM   14 BR1  UNL     1      19.140   2.015  50.005  1.00  0.00    -0.052 Br
HETATM   15  C16 UNL     1      21.876   2.525  50.374  1.00  0.00     0.108 A 
BRANCH  15  16
HETATM   16  O2  UNL     1      22.397   1.701  49.392  1.00  0.00    -0.353 OA
HETATM   17  C17 UNL     1      22.430   2.162  48.052  1.00  0.00     0.210 C 
ENDBRANCH  15  16
ENDBRANCH   1  10
BRANCH   4  18
HETATM   18  C6  UNL     1      27.337   1.699  52.740  1.00  0.00     0.036 A 
HETATM   19  C7  UNL     1      27.386   0.336  52.663  1.00  0.00     0.029 A 
HETATM   20  C8  UNL     1      28.291  -0.468  53.322  1.00  0.00     0.002 A 
HETATM   21  C9  UNL     1      29.230   0.117  54.125  1.00  0.00     0.000 A 
HETATM   22  C10 UNL     1      29.221   1.486  54.234  1.00  0.00     0.002 A 
HETATM   23  C11 UNL     1      28.297   2.249  53.557  1.00  0.00     0.029 A 
ENDBRANCH   4  18
TORSDOF 6
ENDMDL
MODEL 4
REMARK VINA RESULT:      -6.4      3.333      6.994
REMARK  6 active torsions:
REMARK  status: ('A' for Active; 'I' for Inactive)
REMARK    1  A    between atoms: C2_2  and  C3_3 
REMARK    2  A    between atoms: C3_3  and  C4_4 
REMARK    3  A    between atoms: C4_4  and  N1_5 
REMARK       I    between atoms: N1_5  and  C5_6 
REMARK    4  A    between atoms: N1_5  and  C12_15 
REMARK       I    between atoms: C5_6  and  N2_8 
REMARK    5  A    between atoms: N2_8  and  C6_9 
REMARK    6  A    between atoms: C16_20  and  O2_21 
ROOT
HETATM    1  N1  UNL     1      25.134   1.822  52.315  1.00  0.00    -0.297 N 
HETATM    2  C5  UNL     1      23.972   1.042  52.613  1.00  0.00     0.327 C 
HETATM    3  O1  UNL     1      24.095  -0.006  53.298  1.00  0.00    -0.246 OA
HETATM    4  N2  UNL     1      22.679   1.396  52.172  1.00  0.00    -0.309 N 
HETATM    5  H10 UNL     1      22.690   2.279  51.613  1.00  0.00     0.170 HD
ENDROOT
BRANCH   1   6
HETATM    6  C4  UNL     1      25.066   3.042  51.533  1.00  0.00     0.134 C 
BRANCH   6   7
HETATM    7  C3  UNL     1      25.168   2.819  50.064  1.00  0.00     0.020 C 
BRANCH   7   8
HETATM    8  C2  UNL     1      26.567   3.212  49.611  1.00  0.00    -0.003 C 
HETATM    9  C1  UNL     1      26.587   4.654  49.146  1.00  0.00     0.005 C 
ENDBRANCH   7   8
ENDBRANCH   6   7
ENDBRANCH   1   6
BRANCH   1  10
HETATM   10  C12 UNL     1      26.402   1.388  52.799  1.00  0.00     0.070 A 
HETATM   11  C13 UNL     1      26.959   2.293  53.608  1.00  0.00     0.011 A 
HETATM   12  C14 UNL     1      28.287   1.780  54.083  1.00  0.00     0.079 A 
HETATM   13  C15 UNL     1      28.368   0.469  53.417  1.00  0.00     0.028 A 
HETATM   14 BR1  UNL     1      29.749  -0.839  53.489  1.00  0.00    -0.052 Br
HETATM   15  C16 UNL     1      27.287   0.239  52.677  1.00  0.00     0.108 A 
BRANCH  15  16
HETATM   16  O2  UNL     1      26.844  -0.791  51.865  1.00  0.00    -0.353 OA
HETATM   17  C17 UNL     1      26.710  -2.092  52.413  1.00  0.00     0.210 C 
ENDBRANCH  15  16
ENDBRANCH   1  10
BRANCH   4  18
HETATM   18  C6  UNL     1      21.442   0.743  52.377  1.00  0.00     0.036 A 
HETATM   19  C7  UNL     1      21.025   0.079  53.496  1.00  0.00     0.029 A 
HETATM   20  C8  UNL     1      19.806  -0.543  53.647  1.00  0.00     0.002 A 
HETATM   21  C9  UNL     1      18.916  -0.511  52.610  1.00  0.00     0.000 A 
HETATM   22  C10 UNL     1      19.290   0.145  51.462  1.00  0.00     0.002 A 
HETATM   23  C11 UNL     1      20.519   0.753  51.356  1.00  0.00     0.029 A 
ENDBRANCH   4  18
TORSDOF 6
ENDMDL
MODEL 5
REMARK VINA RESULT:      -6.4      3.437      5.189
REMARK  6 active torsions:
REMARK  status: ('A' for Active; 'I' for Inactive)
REMARK    1  A    between atoms: C2_2  and  C3_3 
REMARK    2  A    between atoms: C3_3  and  C4_4 
REMARK    3  A    between atoms: C4_4  and  N1_5 
REMARK       I    between atoms: N1_5  and  C5_6 
REMARK    4  A    between atoms: N1_5  and  C12_15 
REMARK       I    between atoms: C5_6  and  N2_8 
REMARK    5  A    between atoms: N2_8  and  C6_9 
REMARK    6  A    between atoms: C16_20  and  O2_21 
ROOT
HETATM    1  N1  UNL     1      23.092   2.754  51.696  1.00  0.00    -0.297 N 
HETATM    2  C5  UNL     1      23.738   3.613  50.752  1.00  0.00     0.327 C 
HETATM    3  O1  UNL     1      23.072   4.084  49.795  1.00  0.00    -0.246 OA
HETATM    4  N2  UNL     1      25.103   3.961  50.844  1.00  0.00    -0.309 N 
HETATM    5  H10 UNL     1      25.561   3.516  51.671  1.00  0.00     0.170 HD
ENDROOT
BRANCH   1   6
HETATM    6  C4  UNL     1      23.797   2.177  52.825  1.00  0.00     0.134 C 
BRANCH   6   7
HETATM    7  C3  UNL     1      24.222   0.767  52.608  1.00  0.00     0.020 C 
BRANCH   7   8
HETATM    8  C2  UNL     1      25.718   0.750  52.330  1.00  0.00    -0.003 C 
HETATM    9  C1  UNL     1      26.295  -0.622  52.615  1.00  0.00     0.005 C 
ENDBRANCH   7   8
ENDBRANCH   6   7
ENDBRANCH   1   6
BRANCH   1  10
HETATM   10  C12 UNL     1      21.710   2.453  51.524  1.00  0.00     0.070 A 
HETATM   11  C13 UNL     1      20.938   3.190  52.328  1.00  0.00     0.011 A 
HETATM   12  C14 UNL     1      19.500   2.828  52.101  1.00  0.00     0.079 A 
HETATM   13  C15 UNL     1      19.603   1.791  51.061  1.00  0.00     0.028 A 
HETATM   14 BR1  UNL     1      18.222   0.800  50.204  1.00  0.00    -0.052 Br
HETATM   15  C16 UNL     1      20.871   1.572  50.725  1.00  0.00     0.108 A 
BRANCH  15  16
HETATM   16  O2  UNL     1      21.530   0.739  49.837  1.00  0.00    -0.353 OA
HETATM   17  C17 UNL     1      21.691   1.156  48.492  1.00  0.00     0.210 C 
ENDBRANCH  15  16
ENDBRANCH   1  10
BRANCH   4  18
HETATM   18  C6  UNL     1      25.885   4.787  50.004  1.00  0.00     0.036 A 
HETATM   19  C7  UNL     1      25.717   6.121  49.756  1.00  0.00     0.029 A 
HETATM   20  C8  UNL     1      26.510   6.883  48.926  1.00  0.00     0.002 A 
HETATM   21  C9  UNL     1      27.559   6.286  48.285  1.00  0.00     0.000 A 
HETATM   22  C10 UNL     1      27.768   4.946  48.502  1.00  0.00     0.002 A 
HETATM   23  C11 UNL     1      26.951   4.224  49.340  1.00  0.00     0.029 A 
ENDBRANCH   4  18
TORSDOF 6
ENDMDL
MODEL 6
REMARK VINA RESULT:      -6.3      2.416      5.188
REMARK  6 active torsions:
REMARK  status: ('A' for Active; 'I' for Inactive)
REMARK    1  A    between atoms: C2_2  and  C3_3 
REMARK    2  A    between atoms: C3_3  and  C4_4 
REMARK    3  A    between atoms: C4_4  and  N1_5 
REMARK       I    between atoms: N1_5  and  C5_6 
REMARK    4  A    between atoms: N1_5  and  C12_15 
REMARK       I    between atoms: C5_6  and  N2_8 
REMARK    5  A    between atoms: N2_8  and  C6_9 
REMARK    6  A    between atoms: C16_20  and  O2_21 
ROOT
HETATM    1  N1  UNL     1      25.154   2.336  52.314  1.00  0.00    -0.297 N 
HETATM    2  C5  UNL     1      23.877   1.692  52.326  1.00  0.00     0.327 C 
HETATM    3  O1  UNL     1      23.072   1.906  51.383  1.00  0.00    -0.246 OA
HETATM    4  N2  UNL     1      23.472   0.816  53.355  1.00  0.00    -0.309 N 
HETATM    5  H10 UNL     1      24.211   0.709  54.086  1.00  0.00     0.170 HD
ENDROOT
BRANCH   1   6
HETATM    6  C4  UNL     1      26.132   2.134  53.366  1.00  0.00     0.134 C 
BRANCH   6   7
HETATM    7  C3  UNL     1      26.830   0.822  53.293  1.00  0.00     0.020 C 
BRANCH   7   8
HETATM    8  C2  UNL     1      28.309   1.044  53.571  1.00  0.00    -0.003 C 
HETATM    9  C1  UNL     1      28.629   2.524  53.583  1.00  0.00     0.005 C 
ENDBRANCH   7   8
ENDBRANCH   6   7
ENDBRANCH   1   6
BRANCH   1  10
HETATM   10  C12 UNL     1      25.479   3.209  51.235  1.00  0.00     0.070 A 
HETATM   11  C13 UNL     1      26.432   2.695  50.452  1.00  0.00     0.011 A 
HETATM   12  C14 UNL     1      26.729   3.655  49.339  1.00  0.00     0.079 A 
HETATM   13  C15 UNL     1      25.802   4.762  49.630  1.00  0.00     0.028 A 
HETATM   14 BR1  UNL     1      25.539   6.396  48.690  1.00  0.00    -0.052 Br
HETATM   15  C16 UNL     1      25.081   4.510  50.719  1.00  0.00     0.108 A 
BRANCH  15  16
HETATM   16  O2  UNL     1      24.094   5.173  51.428  1.00  0.00    -0.353 OA
HETATM   17  C17 UNL     1      22.778   5.217  50.903  1.00  0.00     0.210 C 
ENDBRANCH  15  16
ENDBRANCH   1  10
BRANCH   4  18
HETATM   18  C6  UNL     1      22.259   0.106  53.516  1.00  0.00     0.036 A 
HETATM   19  C7  UNL     1      21.008   0.495  53.126  1.00  0.00     0.029 A 
HETATM   20  C8  UNL     1      19.854  -0.235  53.306  1.00  0.00     0.002 A 
HETATM   21  C9  UNL     1      19.934  -1.454  53.920  1.00  0.00     0.000 A 
HETATM   22  C10 UNL     1      21.171  -1.888  54.331  1.00  0.00     0.002 A 
HETATM   23  C11 UNL     1      22.297  -1.124  54.130  1.00  0.00     0.029 A 
ENDBRANCH   4  18
TORSDOF 6
ENDMDL
MODEL 7
REMARK VINA RESULT:      -6.0      3.186      5.391
REMARK  6 active torsions:
REMARK  status: ('A' for Active; 'I' for Inactive)
REMARK    1  A    between atoms: C2_2  and  C3_3 
REMARK    2  A    between atoms: C3_3  and  C4_4 
REMARK    3  A    between atoms: C4_4  and  N1_5 
REMARK       I    between atoms: N1_5  and  C5_6 
REMARK    4  A    between atoms: N1_5  and  C12_15 
REMARK       I    between atoms: C5_6  and  N2_8 
REMARK    5  A    between atoms: N2_8  and  C6_9 
REMARK    6  A    between atoms: C16_20  and  O2_21 
ROOT
HETATM    1  N1  UNL     1      23.721   2.934  49.672  1.00  0.00    -0.297 N 
HETATM    2  C5  UNL     1      23.493   2.382  50.972  1.00  0.00     0.327 C 
HETATM    3  O1  UNL     1      24.185   2.787  51.941  1.00  0.00    -0.246 OA
HETATM    4  N2  UNL     1      22.517   1.394  51.222  1.00  0.00    -0.309 N 
HETATM    5  H10 UNL     1      22.002   1.129  50.352  1.00  0.00     0.170 HD
ENDROOT
BRANCH   1   6
HETATM    6  C4  UNL     1      22.961   2.516  48.509  1.00  0.00     0.134 C 
BRANCH   6   7
HETATM    7  C3  UNL     1      21.706   3.290  48.303  1.00  0.00     0.020 C 
BRANCH   7   8
HETATM    8  C2  UNL     1      21.934   4.293  47.182  1.00  0.00    -0.003 C 
HETATM    9  C1  UNL     1      21.959   3.590  45.840  1.00  0.00     0.005 C 
ENDBRANCH   7   8
ENDBRANCH   6   7
ENDBRANCH   1   6
BRANCH   1  10
HETATM   10  C12 UNL     1      24.731   3.926  49.510  1.00  0.00     0.070 A 
HETATM   11  C13 UNL     1      25.935   3.381  49.317  1.00  0.00     0.011 A 
HETATM   12  C14 UNL     1      26.952   4.471  49.154  1.00  0.00     0.079 A 
HETATM   13  C15 UNL     1      26.128   5.684  49.286  1.00  0.00     0.028 A 
HETATM   14 BR1  UNL     1      26.649   7.513  49.203  1.00  0.00    -0.052 Br
HETATM   15  C16 UNL     1      24.850   5.377  49.491  1.00  0.00     0.108 A 
BRANCH  15  16
HETATM   16  O2  UNL     1      23.679   6.089  49.679  1.00  0.00    -0.353 OA
HETATM   17  C17 UNL     1      23.245   6.367  51.000  1.00  0.00     0.210 C 
ENDBRANCH  15  16
ENDBRANCH   1  10
BRANCH   4  18
HETATM   18  C6  UNL     1      22.169   0.752  52.433  1.00  0.00     0.036 A 
HETATM   19  C7  UNL     1      21.058   0.965  53.200  1.00  0.00     0.029 A 
HETATM   20  C8  UNL     1      20.764   0.311  54.376  1.00  0.00     0.002 A 
HETATM   21  C9  UNL     1      21.634  -0.636  54.840  1.00  0.00     0.000 A 
HETATM   22  C10 UNL     1      22.766  -0.886  54.102  1.00  0.00     0.002 A 
HETATM   23  C11 UNL     1      23.019  -0.208  52.933  1.00  0.00     0.029 A 
ENDBRANCH   4  18
TORSDOF 6
ENDMDL
MODEL 8
REMARK VINA RESULT:      -6.0      2.828      5.293
REMARK  6 active torsions:
REMARK  status: ('A' for Active; 'I' for Inactive)
REMARK    1  A    between atoms: C2_2  and  C3_3 
REMARK    2  A    between atoms: C3_3  and  C4_4 
REMARK    3  A    between atoms: C4_4  and  N1_5 
REMARK       I    between atoms: N1_5  and  C5_6 
REMARK    4  A    between atoms: N1_5  and  C12_15 
REMARK       I    between atoms: C5_6  and  N2_8 
REMARK    5  A    between atoms: N2_8  and  C6_9 
REMARK    6  A    between atoms: C16_20  and  O2_21 
ROOT
HETATM    1  N1  UNL     1      22.918   3.776  50.646  1.00  0.00    -0.297 N 
HETATM    2  C5  UNL     1      23.172   2.908  51.755  1.00  0.00     0.327 C 
HETATM    3  O1  UNL     1      24.048   3.230  52.598  1.00  0.00    -0.246 OA
HETATM    4  N2  UNL     1      22.477   1.696  51.953  1.00  0.00    -0.309 N 
HETATM    5  H10 UNL     1      21.776   1.525  51.198  1.00  0.00     0.170 HD
ENDROOT
BRANCH   1   6
HETATM    6  C4  UNL     1      21.921   3.469  49.637  1.00  0.00     0.134 C 
BRANCH   6   7
HETATM    7  C3  UNL     1      22.493   3.212  48.287  1.00  0.00     0.020 C 
BRANCH   7   8
HETATM    8  C2  UNL     1      21.766   4.088  47.278  1.00  0.00    -0.003 C 
HETATM    9  C1  UNL     1      22.456   5.430  47.147  1.00  0.00     0.005 C 
ENDBRANCH   7   8
ENDBRANCH   6   7
ENDBRANCH   1   6
BRANCH   1  10
HETATM   10  C12 UNL     1      23.669   4.980  50.524  1.00  0.00     0.070 A 
HETATM   11  C13 UNL     1      23.064   6.005  51.131  1.00  0.00     0.011 A 
HETATM   12  C14 UNL     1      23.901   7.240  50.968  1.00  0.00     0.079 A 
HETATM   13  C15 UNL     1      25.043   6.738  50.186  1.00  0.00     0.028 A 
HETATM   14 BR1  UNL     1      26.574   7.673  49.548  1.00  0.00    -0.052 Br
HETATM   15  C16 UNL     1      24.915   5.440  49.928  1.00  0.00     0.108 A 
BRANCH  15  16
HETATM   16  O2  UNL     1      25.661   4.486  49.257  1.00  0.00    -0.353 OA
HETATM   17  C17 UNL     1      26.548   3.661  49.994  1.00  0.00     0.210 C 
ENDBRANCH  15  16
ENDBRANCH   1  10
BRANCH   4  18
HETATM   18  C6  UNL     1      22.606   0.736  52.983  1.00  0.00     0.036 A 
HETATM   19  C7  UNL     1      23.722   0.026  53.326  1.00  0.00     0.029 A 
HETATM   20  C8  UNL     1      23.796  -0.901  54.343  1.00  0.00     0.002 A 
HETATM   21  C9  UNL     1      22.678  -1.153  55.088  1.00  0.00     0.000 A 
HETATM   22  C10 UNL     1      21.531  -0.463  54.781  1.00  0.00     0.002 A 
HETATM   23  C11 UNL     1      21.503   0.455  53.757  1.00  0.00     0.029 A 
ENDBRANCH   4  18
TORSDOF 6
ENDMDL
MODEL 9
REMARK VINA RESULT:      -5.9      2.127      3.764
REMARK  6 active torsions:
REMARK  status: ('A' for Active; 'I' for Inactive)
REMARK    1  A    between atoms: C2_2  and  C3_3 
REMARK    2  A    between atoms: C3_3  and  C4_4 
REMARK    3  A    between atoms: C4_4  and  N1_5 
REMARK       I    between atoms: N1_5  and  C5_6 
REMARK    4  A    between atoms: N1_5  and  C12_15 
REMARK       I    between atoms: C5_6  and  N2_8 
REMARK    5  A    between atoms: N2_8  and  C6_9 
REMARK    6  A    between atoms: C16_20  and  O2_21 
ROOT
HETATM    1  N1  UNL     1      24.105   3.485  50.917  1.00  0.00    -0.297 N 
HETATM    2  C5  UNL     1      24.789   2.496  51.692  1.00  0.00     0.327 C 
HETATM    3  O1  UNL     1      24.340   1.321  51.722  1.00  0.00    -0.246 OA
HETATM    4  N2  UNL     1      25.957   2.778  52.432  1.00  0.00    -0.309 N 
HETATM    5  H10 UNL     1      26.241   3.779  52.339  1.00  0.00     0.170 HD
ENDROOT
BRANCH   1   6
HETATM    6  C4  UNL     1      24.565   4.858  50.834  1.00  0.00     0.134 C 
BRANCH   6   7
HETATM    7  C3  UNL     1      23.737   5.816  51.617  1.00  0.00     0.020 C 
BRANCH   7   8
HETATM    8  C2  UNL     1      23.040   6.758  50.647  1.00  0.00    -0.003 C 
HETATM    9  C1  UNL     1      21.536   6.651  50.793  1.00  0.00     0.005 C 
ENDBRANCH   7   8
ENDBRANCH   6   7
ENDBRANCH   1   6
BRANCH   1  10
HETATM   10  C12 UNL     1      22.929   3.112  50.202  1.00  0.00     0.070 A 
HETATM   11  C13 UNL     1      23.184   2.894  48.909  1.00  0.00     0.011 A 
HETATM   12  C14 UNL     1      21.913   2.507  48.213  1.00  0.00     0.079 A 
HETATM   13  C15 UNL     1      20.934   2.547  49.312  1.00  0.00     0.028 A 
HETATM   14 BR1  UNL     1      19.066   2.183  49.280  1.00  0.00    -0.052 Br
HETATM   15  C16 UNL     1      21.513   2.894  50.458  1.00  0.00     0.108 A 
BRANCH  15  16
HETATM   16  O2  UNL     1      21.092   3.082  51.763  1.00  0.00    -0.353 OA
HETATM   17  C17 UNL     1      20.922   1.953  52.603  1.00  0.00     0.210 C 
ENDBRANCH  15  16
ENDBRANCH   1  10
BRANCH   4  18
HETATM   18  C6  UNL     1      26.744   1.925  53.240  1.00  0.00     0.036 A 
HETATM   19  C7  UNL     1      26.311   1.025  54.173  1.00  0.00     0.029 A 
HETATM   20  C8  UNL     1      27.122   0.215  54.936  1.00  0.00     0.002 A 
HETATM   21  C9  UNL     1      28.476   0.294  54.771  1.00  0.00     0.000 A 
HETATM   22  C10 UNL     1      28.961   1.185  53.844  1.00  0.00     0.002 A 
HETATM   23  C11 UNL     1      28.113   1.975  53.103  1.00  0.00     0.029 A 
ENDBRANCH   4  18
TORSDOF 6
ENDMDL
