MODEL 1
REMARK VINA RESULT:      -8.0      0.000      0.000
REMARK  4 active torsions:
REMARK  status: ('A' for Active; 'I' for Inactive)
REMARK    1  A    between atoms: O1_2  and  C2_3 
REMARK    2  A    between atoms: C5_6  and  C6_7 
REMARK    3  A    between atoms: N2_11  and  C9_12 
REMARK    4  A    between atoms: C10_14  and  O2_15 
ROOT
HETATM    1  C6  UNL     1      22.337   2.540  51.554  1.00  0.00     0.164 C 
HETATM    2  C7  UNL     1      21.931   3.309  50.274  1.00  0.00     0.116 C 
HETATM    3  C8  UNL     1      22.077   2.144  49.312  1.00  0.00     0.070 C 
HETATM    4  N1  UNL     1      21.931   1.063  49.986  1.00  0.00    -0.173 NA
HETATM    5  N2  UNL     1      21.696   1.270  51.321  1.00  0.00    -0.235 N 
HETATM    6  C12 UNL     1      22.339   2.060  47.859  1.00  0.00     0.030 C 
HETATM    7  C13 UNL     1      22.429   3.176  47.114  1.00  0.00     0.003 C 
HETATM    8  C14 UNL     1      22.304   4.599  47.506  1.00  0.00     0.018 C 
HETATM    9  C15 UNL     1      21.719   4.912  48.604  1.00  0.00    -0.002 C 
HETATM   10  S2  UNL     1      22.653   4.656  50.060  1.00  0.00    -0.195 SA
HETATM   11  C16 UNL     1      23.449   5.957  49.796  1.00  0.00     0.074 C 
HETATM   12 BR1  UNL     1      22.044   5.261  51.588  1.00  0.00    -0.039 Br
HETATM   13  H13 UNL     1      23.902   3.877  49.937  1.00  0.00     0.089 HD
ENDROOT
BRANCH   1  14
HETATM   14  C5  UNL     1      23.790   2.470  51.736  1.00  0.00    -0.032 A 
HETATM   15  C4  UNL     1      24.391   2.214  52.973  1.00  0.00     0.012 A 
HETATM   16  C3  UNL     1      25.747   2.142  53.183  1.00  0.00     0.037 A 
HETATM   17  C2  UNL     1      26.598   2.327  52.142  1.00  0.00     0.068 A 
HETATM   18  C18 UNL     1      26.091   2.580  50.906  1.00  0.00     0.037 A 
HETATM   19  C17 UNL     1      24.722   2.644  50.739  1.00  0.00     0.012 A 
BRANCH  17  20
HETATM   20  O1  UNL     1      27.972   2.262  52.312  1.00  0.00    -0.356 OA
HETATM   21  C1  UNL     1      28.595   2.412  53.574  1.00  0.00     0.210 C 
ENDBRANCH  17  20
ENDBRANCH   1  14
BRANCH   5  22
HETATM   22  C9  UNL     1      20.981   0.400  52.224  1.00  0.00     0.192 A 
HETATM   23  N3  UNL     1      21.287  -0.281  53.186  1.00  0.00    -0.198 NA
HETATM   24  C10 UNL     1      20.365  -0.998  53.832  1.00  0.00     0.171 A 
HETATM   25  C11 UNL     1      19.055  -0.993  53.443  1.00  0.00     0.111 A 
HETATM   26  S1  UNL     1      19.210   0.185  51.983  1.00  0.00    -0.058 SA
BRANCH  24  27
HETATM   27  O2  UNL     1      20.862  -1.739  54.926  1.00  0.00    -0.344 OA
HETATM   28  H8  UNL     1      21.151  -1.256  55.765  1.00  0.00     0.219 HD
ENDBRANCH  24  27
ENDBRANCH   5  22
TORSDOF 4
ENDMDL
MODEL 2
REMARK VINA RESULT:      -7.7      1.824      2.034
REMARK  4 active torsions:
REMARK  status: ('A' for Active; 'I' for Inactive)
REMARK    1  A    between atoms: O1_2  and  C2_3 
REMARK    2  A    between atoms: C5_6  and  C6_7 
REMARK    3  A    between atoms: N2_11  and  C9_12 
REMARK    4  A    between atoms: C10_14  and  O2_15 
ROOT
HETATM    1  C6  UNL     1      21.301   1.748  51.776  1.00  0.00     0.164 C 
HETATM    2  C7  UNL     1      21.475   2.751  50.611  1.00  0.00     0.116 C 
HETATM    3  C8  UNL     1      21.521   1.724  49.495  1.00  0.00     0.070 C 
HETATM    4  N1  UNL     1      20.903   0.678  49.906  1.00  0.00    -0.173 NA
HETATM    5  N2  UNL     1      20.404   0.791  51.177  1.00  0.00    -0.235 N 
HETATM    6  C12 UNL     1      22.110   1.730  48.139  1.00  0.00     0.030 C 
HETATM    7  C13 UNL     1      22.705   2.835  47.656  1.00  0.00     0.003 C 
HETATM    8  C14 UNL     1      22.898   4.165  48.278  1.00  0.00     0.018 C 
HETATM    9  C15 UNL     1      22.167   4.521  49.271  1.00  0.00    -0.002 C 
HETATM   10  S2  UNL     1      22.583   3.806  50.812  1.00  0.00    -0.195 SA
HETATM   11  C16 UNL     1      23.759   4.800  50.972  1.00  0.00     0.074 C 
HETATM   12 BR1  UNL     1      21.804   4.393  52.268  1.00  0.00    -0.039 Br
HETATM   13  H13 UNL     1      23.544   2.685  50.803  1.00  0.00     0.089 HD
ENDROOT
BRANCH   1  14
HETATM   14  C5  UNL     1      22.576   1.190  52.237  1.00  0.00    -0.032 A 
HETATM   15  C4  UNL     1      22.678   0.333  53.339  1.00  0.00     0.012 A 
HETATM   16  C3  UNL     1      23.852  -0.208  53.802  1.00  0.00     0.037 A 
HETATM   17  C2  UNL     1      25.019   0.082  53.173  1.00  0.00     0.068 A 
HETATM   18  C18 UNL     1      25.003   0.908  52.092  1.00  0.00     0.037 A 
HETATM   19  C17 UNL     1      23.800   1.431  51.660  1.00  0.00     0.012 A 
BRANCH  17  20
HETATM   20  O1  UNL     1      26.225  -0.444  53.607  1.00  0.00    -0.356 OA
HETATM   21  C1  UNL     1      27.017   0.179  54.602  1.00  0.00     0.210 C 
ENDBRANCH  17  20
ENDBRANCH   1  14
BRANCH   5  22
HETATM   22  C9  UNL     1      19.263   0.102  51.729  1.00  0.00     0.192 A 
HETATM   23  N3  UNL     1      19.058  -0.556  52.734  1.00  0.00    -0.198 NA
HETATM   24  C10 UNL     1      17.853  -1.079  52.969  1.00  0.00     0.171 A 
HETATM   25  C11 UNL     1      16.813  -0.897  52.102  1.00  0.00     0.111 A 
HETATM   26  S1  UNL     1      17.711   0.148  50.819  1.00  0.00    -0.058 SA
BRANCH  24  27
HETATM   27  O2  UNL     1      17.761  -1.817  54.169  1.00  0.00    -0.344 OA
HETATM   28  H8  UNL     1      17.950  -1.361  55.051  1.00  0.00     0.219 HD
ENDBRANCH  24  27
ENDBRANCH   5  22
TORSDOF 4
ENDMDL
MODEL 3
REMARK VINA RESULT:      -7.6      3.310      6.064
REMARK  4 active torsions:
REMARK  status: ('A' for Active; 'I' for Inactive)
REMARK    1  A    between atoms: O1_2  and  C2_3 
REMARK    2  A    between atoms: C5_6  and  C6_7 
REMARK    3  A    between atoms: N2_11  and  C9_12 
REMARK    4  A    between atoms: C10_14  and  O2_15 
ROOT
HETATM    1  C6  UNL     1      24.105   3.898  49.960  1.00  0.00     0.164 C 
HETATM    2  C7  UNL     1      22.565   3.776  49.900  1.00  0.00     0.116 C 
HETATM    3  C8  UNL     1      22.279   4.468  51.220  1.00  0.00     0.070 C 
HETATM    4  N1  UNL     1      23.268   5.244  51.473  1.00  0.00    -0.173 NA
HETATM    5  N2  UNL     1      24.251   5.220  50.518  1.00  0.00    -0.235 N 
HETATM    6  C12 UNL     1      21.152   4.398  52.174  1.00  0.00     0.030 C 
HETATM    7  C13 UNL     1      20.070   3.647  51.904  1.00  0.00     0.003 C 
HETATM    8  C14 UNL     1      19.766   2.800  50.726  1.00  0.00     0.018 C 
HETATM    9  C15 UNL     1      20.395   2.986  49.623  1.00  0.00    -0.002 C 
HETATM   10  S2  UNL     1      22.030   2.366  49.571  1.00  0.00    -0.195 SA
HETATM   11  C16 UNL     1      21.494   0.933  49.339  1.00  0.00     0.074 C 
HETATM   12 BR1  UNL     1      22.896   2.359  48.047  1.00  0.00    -0.039 Br
HETATM   13  H13 UNL     1      22.630   1.926  50.846  1.00  0.00     0.089 HD
ENDROOT
BRANCH   1  14
HETATM   14  C5  UNL     1      24.729   2.829  50.745  1.00  0.00    -0.032 A 
HETATM   15  C4  UNL     1      26.102   2.563  50.715  1.00  0.00     0.012 A 
HETATM   16  C3  UNL     1      26.722   1.570  51.434  1.00  0.00     0.037 A 
HETATM   17  C2  UNL     1      25.985   0.769  52.244  1.00  0.00     0.068 A 
HETATM   18  C18 UNL     1      24.642   0.964  52.329  1.00  0.00     0.037 A 
HETATM   19  C17 UNL     1      24.060   1.973  51.588  1.00  0.00     0.012 A 
BRANCH  17  20
HETATM   20  O1  UNL     1      26.572  -0.243  52.987  1.00  0.00    -0.356 OA
HETATM   21  C1  UNL     1      26.690  -1.572  52.511  1.00  0.00     0.210 C 
ENDBRANCH  17  20
ENDBRANCH   1  14
BRANCH   5  22
HETATM   22  C9  UNL     1      25.174   6.280  50.192  1.00  0.00     0.192 A 
HETATM   23  N3  UNL     1      25.373   7.406  50.610  1.00  0.00    -0.198 NA
HETATM   24  C10 UNL     1      26.335   8.167  50.083  1.00  0.00     0.171 A 
HETATM   25  C11 UNL     1      27.126   7.715  49.065  1.00  0.00     0.111 A 
HETATM   26  S1  UNL     1      26.368   6.001  48.875  1.00  0.00    -0.058 SA
BRANCH  24  27
HETATM   27  O2  UNL     1      26.452   9.447  50.665  1.00  0.00    -0.344 OA
HETATM   28  H8  UNL     1      27.346   9.750  51.028  1.00  0.00     0.219 HD
ENDBRANCH  24  27
ENDBRANCH   5  22
TORSDOF 4
ENDMDL
MODEL 4
REMARK VINA RESULT:      -7.5      7.496     10.293
REMARK  4 active torsions:
REMARK  status: ('A' for Active; 'I' for Inactive)
REMARK    1  A    between atoms: O1_2  and  C2_3 
REMARK    2  A    between atoms: C5_6  and  C6_7 
REMARK    3  A    between atoms: N2_11  and  C9_12 
REMARK    4  A    between atoms: C10_14  and  O2_15 
ROOT
HETATM    1  C6  UNL     1      29.725   6.897  47.311  1.00  0.00     0.164 C 
HETATM    2  C7  UNL     1      29.935   8.427  47.224  1.00  0.00     0.116 C 
HETATM    3  C8  UNL     1      30.618   8.590  48.570  1.00  0.00     0.070 C 
HETATM    4  N1  UNL     1      31.156   7.465  48.870  1.00  0.00    -0.173 NA
HETATM    5  N2  UNL     1      30.962   6.488  47.928  1.00  0.00    -0.235 N 
HETATM    6  C12 UNL     1      30.752   9.727  49.504  1.00  0.00     0.030 C 
HETATM    7  C13 UNL     1      30.258  10.938  49.186  1.00  0.00     0.003 C 
HETATM    8  C14 UNL     1      29.544  11.387  47.968  1.00  0.00     0.018 C 
HETATM    9  C15 UNL     1      29.636  10.707  46.883  1.00  0.00    -0.002 C 
HETATM   10  S2  UNL     1      28.686   9.240  46.826  1.00  0.00    -0.195 SA
HETATM   11  C16 UNL     1      27.409  10.062  46.524  1.00  0.00     0.074 C 
HETATM   12 BR1  UNL     1      28.556   8.361  45.315  1.00  0.00    -0.039 Br
HETATM   13  H13 UNL     1      28.077   8.776  48.089  1.00  0.00     0.089 HD
ENDROOT
BRANCH   1  14
HETATM   14  C5  UNL     1      28.517   6.532  48.056  1.00  0.00    -0.032 A 
HETATM   15  C4  UNL     1      28.140   5.206  48.295  1.00  0.00     0.012 A 
HETATM   16  C3  UNL     1      27.017   4.825  48.988  1.00  0.00     0.037 A 
HETATM   17  C2  UNL     1      26.187   5.772  49.493  1.00  0.00     0.068 A 
HETATM   18  C18 UNL     1      26.484   7.086  49.303  1.00  0.00     0.037 A 
HETATM   19  C17 UNL     1      27.624   7.424  48.601  1.00  0.00     0.012 A 
BRANCH  17  20
HETATM   20  O1  UNL     1      25.044   5.430  50.198  1.00  0.00    -0.356 OA
HETATM   21  C1  UNL     1      24.296   6.371  50.946  1.00  0.00     0.210 C 
ENDBRANCH  17  20
ENDBRANCH   1  14
BRANCH   5  22
HETATM   22  C9  UNL     1      31.814   5.355  47.662  1.00  0.00     0.192 A 
HETATM   23  N3  UNL     1      32.101   4.334  48.262  1.00  0.00    -0.198 NA
HETATM   24  C10 UNL     1      32.950   3.450  47.732  1.00  0.00     0.171 A 
HETATM   25  C11 UNL     1      33.523   3.654  46.509  1.00  0.00     0.111 A 
HETATM   26  S1  UNL     1      32.726   5.314  46.111  1.00  0.00    -0.058 SA
BRANCH  24  27
HETATM   27  O2  UNL     1      33.189   2.316  48.537  1.00  0.00    -0.344 OA
HETATM   28  H8  UNL     1      33.499   2.439  49.492  1.00  0.00     0.219 HD
ENDBRANCH  24  27
ENDBRANCH   5  22
TORSDOF 4
ENDMDL
MODEL 5
REMARK VINA RESULT:      -7.3      2.685      5.633
REMARK  4 active torsions:
REMARK  status: ('A' for Active; 'I' for Inactive)
REMARK    1  A    between atoms: O1_2  and  C2_3 
REMARK    2  A    between atoms: C5_6  and  C6_7 
REMARK    3  A    between atoms: N2_11  and  C9_12 
REMARK    4  A    between atoms: C10_14  and  O2_15 
ROOT
HETATM    1  C6  UNL     1      23.324   1.367  51.357  1.00  0.00     0.164 C 
HETATM    2  C7  UNL     1      23.159   2.807  50.816  1.00  0.00     0.116 C 
HETATM    3  C8  UNL     1      23.399   3.522  52.133  1.00  0.00     0.070 C 
HETATM    4  N1  UNL     1      24.102   2.745  52.873  1.00  0.00    -0.173 NA
HETATM    5  N2  UNL     1      24.414   1.548  52.282  1.00  0.00    -0.235 N 
HETATM    6  C12 UNL     1      22.992   4.843  52.655  1.00  0.00     0.030 C 
HETATM    7  C13 UNL     1      22.314   5.707  51.878  1.00  0.00     0.003 C 
HETATM    8  C14 UNL     1      21.858   5.574  50.474  1.00  0.00     0.018 C 
HETATM    9  C15 UNL     1      22.401   4.703  49.704  1.00  0.00    -0.002 C 
HETATM   10  S2  UNL     1      21.898   3.048  49.960  1.00  0.00    -0.195 SA
HETATM   11  C16 UNL     1      20.583   3.313  49.187  1.00  0.00     0.074 C 
HETATM   12 BR1  UNL     1      22.397   1.814  48.820  1.00  0.00    -0.039 Br
HETATM   13  H13 UNL     1      21.113   2.758  51.177  1.00  0.00     0.089 HD
ENDROOT
BRANCH   1  14
HETATM   14  C5  UNL     1      22.092   0.843  51.955  1.00  0.00    -0.032 A 
HETATM   15  C4  UNL     1      21.911   0.716  53.336  1.00  0.00     0.012 A 
HETATM   16  C3  UNL     1      20.774   0.228  53.934  1.00  0.00     0.037 A 
HETATM   17  C2  UNL     1      19.728  -0.167  53.164  1.00  0.00     0.068 A 
HETATM   18  C18 UNL     1      19.827  -0.074  51.810  1.00  0.00     0.037 A 
HETATM   19  C17 UNL     1      20.988   0.421  51.252  1.00  0.00     0.012 A 
BRANCH  17  20
HETATM   20  O1  UNL     1      18.563  -0.663  53.727  1.00  0.00    -0.356 OA
HETATM   21  C1  UNL     1      17.553  -1.296  52.963  1.00  0.00     0.210 C 
ENDBRANCH  17  20
ENDBRANCH   1  14
BRANCH   5  22
HETATM   22  C9  UNL     1      25.562   0.717  52.554  1.00  0.00     0.192 A 
HETATM   23  N3  UNL     1      25.752  -0.482  52.655  1.00  0.00    -0.198 NA
HETATM   24  C10 UNL     1      26.970  -0.957  52.922  1.00  0.00     0.171 A 
HETATM   25  C11 UNL     1      28.040  -0.125  53.091  1.00  0.00     0.111 A 
HETATM   26  S1  UNL     1      27.152   1.514  52.827  1.00  0.00    -0.058 SA
BRANCH  24  27
HETATM   27  O2  UNL     1      27.042  -2.364  53.010  1.00  0.00    -0.344 OA
HETATM   28  H8  UNL     1      27.169  -2.911  52.169  1.00  0.00     0.219 HD
ENDBRANCH  24  27
ENDBRANCH   5  22
TORSDOF 4
ENDMDL
MODEL 6
REMARK VINA RESULT:      -7.1      3.895      7.590
REMARK  4 active torsions:
REMARK  status: ('A' for Active; 'I' for Inactive)
REMARK    1  A    between atoms: O1_2  and  C2_3 
REMARK    2  A    between atoms: C5_6  and  C6_7 
REMARK    3  A    between atoms: N2_11  and  C9_12 
REMARK    4  A    between atoms: C10_14  and  O2_15 
ROOT
HETATM    1  C6  UNL     1      23.960   5.339  50.273  1.00  0.00     0.164 C 
HETATM    2  C7  UNL     1      24.208   4.250  51.343  1.00  0.00     0.116 C 
HETATM    3  C8  UNL     1      25.471   3.677  50.726  1.00  0.00     0.070 C 
HETATM    4  N1  UNL     1      26.006   4.599  50.013  1.00  0.00    -0.173 NA
HETATM    5  N2  UNL     1      25.309   5.779  50.016  1.00  0.00    -0.235 N 
HETATM    6  C12 UNL     1      26.123   2.353  50.805  1.00  0.00     0.030 C 
HETATM    7  C13 UNL     1      25.624   1.389  51.599  1.00  0.00     0.003 C 
HETATM    8  C14 UNL     1      24.439   1.404  52.489  1.00  0.00     0.018 C 
HETATM    9  C15 UNL     1      23.941   2.522  52.876  1.00  0.00    -0.002 C 
HETATM   10  S2  UNL     1      22.984   3.376  51.687  1.00  0.00    -0.195 SA
HETATM   11  C16 UNL     1      21.784   2.437  51.959  1.00  0.00     0.074 C 
HETATM   12 BR1  UNL     1      22.071   4.790  52.177  1.00  0.00    -0.039 Br
HETATM   13  H13 UNL     1      23.039   2.889  50.294  1.00  0.00     0.089 HD
ENDROOT
BRANCH   1  14
HETATM   14  C5  UNL     1      23.247   4.827  49.099  1.00  0.00    -0.032 A 
HETATM   15  C4  UNL     1      23.192   3.467  48.775  1.00  0.00     0.012 A 
HETATM   16  C3  UNL     1      22.537   2.949  47.684  1.00  0.00     0.037 A 
HETATM   17  C2  UNL     1      21.883   3.783  46.835  1.00  0.00     0.068 A 
HETATM   18  C18 UNL     1      21.890   5.121  47.082  1.00  0.00     0.037 A 
HETATM   19  C17 UNL     1      22.561   5.598  48.190  1.00  0.00     0.012 A 
BRANCH  17  20
HETATM   20  O1  UNL     1      21.210   3.301  45.724  1.00  0.00    -0.356 OA
HETATM   21  C1  UNL     1      21.058   4.055  44.535  1.00  0.00     0.210 C 
ENDBRANCH  17  20
ENDBRANCH   1  14
BRANCH   5  22
HETATM   22  C9  UNL     1      25.840   7.104  49.809  1.00  0.00     0.192 A 
HETATM   23  N3  UNL     1      26.407   7.924  50.510  1.00  0.00    -0.198 NA
HETATM   24  C10 UNL     1      26.787   9.101  50.008  1.00  0.00     0.171 A 
HETATM   25  C11 UNL     1      26.559   9.427  48.702  1.00  0.00     0.111 A 
HETATM   26  S1  UNL     1      25.698   7.838  48.172  1.00  0.00    -0.058 SA
BRANCH  24  27
HETATM   27  O2  UNL     1      27.431   9.950  50.934  1.00  0.00    -0.344 OA
HETATM   28  H8  UNL     1      28.233   9.610  51.447  1.00  0.00     0.219 HD
ENDBRANCH  24  27
ENDBRANCH   5  22
TORSDOF 4
ENDMDL
MODEL 7
REMARK VINA RESULT:      -7.1      3.887      7.606
REMARK  4 active torsions:
REMARK  status: ('A' for Active; 'I' for Inactive)
REMARK    1  A    between atoms: O1_2  and  C2_3 
REMARK    2  A    between atoms: C5_6  and  C6_7 
REMARK    3  A    between atoms: N2_11  and  C9_12 
REMARK    4  A    between atoms: C10_14  and  O2_15 
ROOT
HETATM    1  C6  UNL     1      24.953   4.911  49.745  1.00  0.00     0.164 C 
HETATM    2  C7  UNL     1      24.774   4.184  51.099  1.00  0.00     0.116 C 
HETATM    3  C8  UNL     1      25.452   2.887  50.696  1.00  0.00     0.070 C 
HETATM    4  N1  UNL     1      26.263   3.155  49.739  1.00  0.00    -0.173 NA
HETATM    5  N2  UNL     1      26.277   4.477  49.377  1.00  0.00    -0.235 N 
HETATM    6  C12 UNL     1      25.340   1.495  51.179  1.00  0.00     0.030 C 
HETATM    7  C13 UNL     1      24.550   1.195  52.226  1.00  0.00     0.003 C 
HETATM    8  C14 UNL     1      23.696   2.072  53.060  1.00  0.00     0.018 C 
HETATM    9  C15 UNL     1      23.907   3.338  53.083  1.00  0.00    -0.002 C 
HETATM   10  S2  UNL     1      23.347   4.225  51.684  1.00  0.00    -0.195 SA
HETATM   11  C16 UNL     1      21.895   4.182  52.220  1.00  0.00     0.074 C 
HETATM   12 BR1  UNL     1      23.375   5.977  51.711  1.00  0.00    -0.039 Br
HETATM   13  H13 UNL     1      22.926   3.440  50.506  1.00  0.00     0.089 HD
ENDROOT
BRANCH   1  14
HETATM   14  C5  UNL     1      23.904   4.572  48.778  1.00  0.00    -0.032 A 
HETATM   15  C4  UNL     1      23.391   3.279  48.633  1.00  0.00     0.012 A 
HETATM   16  C3  UNL     1      22.411   2.923  47.738  1.00  0.00     0.037 A 
HETATM   17  C2  UNL     1      21.876   3.863  46.919  1.00  0.00     0.068 A 
HETATM   18  C18 UNL     1      22.322   5.146  47.000  1.00  0.00     0.037 A 
HETATM   19  C17 UNL     1      23.309   5.460  47.913  1.00  0.00     0.012 A 
BRANCH  17  20
HETATM   20  O1  UNL     1      20.885   3.546  46.004  1.00  0.00    -0.356 OA
HETATM   21  C1  UNL     1      20.956   3.918  44.639  1.00  0.00     0.210 C 
ENDBRANCH  17  20
ENDBRANCH   1  14
BRANCH   5  22
HETATM   22  C9  UNL     1      27.370   5.204  48.779  1.00  0.00     0.192 A 
HETATM   23  N3  UNL     1      28.535   4.952  48.524  1.00  0.00    -0.198 NA
HETATM   24  C10 UNL     1      29.318   5.867  47.949  1.00  0.00     0.171 A 
HETATM   25  C11 UNL     1      28.849   7.109  47.628  1.00  0.00     0.111 A 
HETATM   26  S1  UNL     1      27.080   6.896  48.237  1.00  0.00    -0.058 SA
BRANCH  24  27
HETATM   27  O2  UNL     1      30.642   5.437  47.712  1.00  0.00    -0.344 OA
HETATM   28  H8  UNL     1      30.857   4.449  47.737  1.00  0.00     0.219 HD
ENDBRANCH  24  27
ENDBRANCH   5  22
TORSDOF 4
ENDMDL
MODEL 8
REMARK VINA RESULT:      -7.0      3.556      4.660
REMARK  4 active torsions:
REMARK  status: ('A' for Active; 'I' for Inactive)
REMARK    1  A    between atoms: O1_2  and  C2_3 
REMARK    2  A    between atoms: C5_6  and  C6_7 
REMARK    3  A    between atoms: N2_11  and  C9_12 
REMARK    4  A    between atoms: C10_14  and  O2_15 
ROOT
HETATM    1  C6  UNL     1      19.711   3.646  51.134  1.00  0.00     0.164 C 
HETATM    2  C7  UNL     1      20.416   4.253  49.898  1.00  0.00     0.116 C 
HETATM    3  C8  UNL     1      19.711   3.405  48.855  1.00  0.00     0.070 C 
HETATM    4  N1  UNL     1      18.591   3.030  49.355  1.00  0.00    -0.173 NA
HETATM    5  N2  UNL     1      18.371   3.484  50.629  1.00  0.00    -0.235 N 
HETATM    6  C12 UNL     1      20.071   2.979  47.486  1.00  0.00     0.030 C 
HETATM    7  C13 UNL     1      21.206   3.413  46.910  1.00  0.00     0.003 C 
HETATM    8  C14 UNL     1      22.258   4.317  47.434  1.00  0.00     0.018 C 
HETATM    9  C15 UNL     1      22.000   5.097  48.419  1.00  0.00    -0.002 C 
HETATM   10  S2  UNL     1      21.954   4.337  49.994  1.00  0.00    -0.195 SA
HETATM   11  C16 UNL     1      23.501   4.330  50.051  1.00  0.00     0.074 C 
HETATM   12 BR1  UNL     1      21.841   5.340  51.427  1.00  0.00    -0.039 Br
HETATM   13  H13 UNL     1      21.954   2.861  50.036  1.00  0.00     0.089 HD
ENDROOT
BRANCH   1  14
HETATM   14  C5  UNL     1      20.346   2.408  51.597  1.00  0.00    -0.032 A 
HETATM   15  C4  UNL     1      20.467   2.074  52.951  1.00  0.00     0.012 A 
HETATM   16  C3  UNL     1      21.055   0.927  53.423  1.00  0.00     0.037 A 
HETATM   17  C2  UNL     1      21.568   0.025  52.547  1.00  0.00     0.068 A 
HETATM   18  C18 UNL     1      21.489   0.278  51.212  1.00  0.00     0.037 A 
HETATM   19  C17 UNL     1      20.889   1.444  50.781  1.00  0.00     0.012 A 
BRANCH  17  20
HETATM   20  O1  UNL     1      22.168  -1.145  52.983  1.00  0.00    -0.356 OA
HETATM   21  C1  UNL     1      21.829  -1.770  54.207  1.00  0.00     0.210 C 
ENDBRANCH  17  20
ENDBRANCH   1  14
BRANCH   5  22
HETATM   22  C9  UNL     1      17.095   3.724  51.259  1.00  0.00     0.192 A 
HETATM   23  N3  UNL     1      16.733   4.023  52.383  1.00  0.00    -0.198 NA
HETATM   24  C10 UNL     1      15.437   4.178  52.661  1.00  0.00     0.171 A 
HETATM   25  C11 UNL     1      14.476   4.010  51.705  1.00  0.00     0.111 A 
HETATM   26  S1  UNL     1      15.605   3.581  50.260  1.00  0.00    -0.058 SA
BRANCH  24  27
HETATM   27  O2  UNL     1      15.164   4.525  54.002  1.00  0.00    -0.344 OA
HETATM   28  H8  UNL     1      15.699   4.097  54.746  1.00  0.00     0.219 HD
ENDBRANCH  24  27
ENDBRANCH   5  22
TORSDOF 4
ENDMDL
MODEL 9
REMARK VINA RESULT:      -6.8      2.808      3.782
REMARK  4 active torsions:
REMARK  status: ('A' for Active; 'I' for Inactive)
REMARK    1  A    between atoms: O1_2  and  C2_3 
REMARK    2  A    between atoms: C5_6  and  C6_7 
REMARK    3  A    between atoms: N2_11  and  C9_12 
REMARK    4  A    between atoms: C10_14  and  O2_15 
ROOT
HETATM    1  C6  UNL     1      23.931   3.160  51.770  1.00  0.00     0.164 C 
HETATM    2  C7  UNL     1      22.482   3.121  51.231  1.00  0.00     0.116 C 
HETATM    3  C8  UNL     1      22.640   1.872  50.383  1.00  0.00     0.070 C 
HETATM    4  N1  UNL     1      23.600   1.184  50.883  1.00  0.00    -0.173 NA
HETATM    5  N2  UNL     1      24.177   1.756  51.986  1.00  0.00    -0.235 N 
HETATM    6  C12 UNL     1      21.934   1.366  49.187  1.00  0.00     0.030 C 
HETATM    7  C13 UNL     1      20.879   2.030  48.682  1.00  0.00     0.003 C 
HETATM    8  C14 UNL     1      20.232   3.283  49.138  1.00  0.00     0.018 C 
HETATM    9  C15 UNL     1      20.414   3.698  50.339  1.00  0.00    -0.002 C 
HETATM   10  S2  UNL     1      21.960   4.453  50.653  1.00  0.00    -0.195 SA
HETATM   11  C16 UNL     1      21.472   5.762  49.985  1.00  0.00     0.074 C 
HETATM   12 BR1  UNL     1      22.224   5.259  52.187  1.00  0.00    -0.039 Br
HETATM   13  H13 UNL     1      23.003   4.322  49.616  1.00  0.00     0.089 HD
ENDROOT
BRANCH   1  14
HETATM   14  C5  UNL     1      24.862   3.811  50.844  1.00  0.00    -0.032 A 
HETATM   15  C4  UNL     1      24.828   5.183  50.569  1.00  0.00     0.012 A 
HETATM   16  C3  UNL     1      25.682   5.828  49.708  1.00  0.00     0.037 A 
HETATM   17  C2  UNL     1      26.642   5.121  49.059  1.00  0.00     0.068 A 
HETATM   18  C18 UNL     1      26.740   3.782  49.274  1.00  0.00     0.037 A 
HETATM   19  C17 UNL     1      25.862   3.173  50.148  1.00  0.00     0.012 A 
BRANCH  17  20
HETATM   20  O1  UNL     1      27.523   5.735  48.183  1.00  0.00    -0.356 OA
HETATM   21  C1  UNL     1      28.925   5.546  48.251  1.00  0.00     0.210 C 
ENDBRANCH  17  20
ENDBRANCH   1  14
BRANCH   5  22
HETATM   22  C9  UNL     1      24.851   1.077  53.066  1.00  0.00     0.192 A 
HETATM   23  N3  UNL     1      24.612   0.098  53.750  1.00  0.00    -0.198 NA
HETATM   24  C10 UNL     1      25.462  -0.290  54.703  1.00  0.00     0.171 A 
HETATM   25  C11 UNL     1      26.623   0.388  54.945  1.00  0.00     0.111 A 
HETATM   26  S1  UNL     1      26.431   1.727  53.634  1.00  0.00    -0.058 SA
BRANCH  24  27
HETATM   27  O2  UNL     1      25.056  -1.439  55.416  1.00  0.00    -0.344 OA
HETATM   28  H8  UNL     1      25.726  -1.930  55.993  1.00  0.00     0.219 HD
ENDBRANCH  24  27
ENDBRANCH   5  22
TORSDOF 4
ENDMDL
