MODEL 1
REMARK VINA RESULT:      -7.6      0.000      0.000
REMARK  4 active torsions:
REMARK  status: ('A' for Active; 'I' for Inactive)
REMARK    1  A    between atoms: C2_2  and  O1_3 
REMARK    2  A    between atoms: C2_2  and  C4_5 
REMARK    3  A    between atoms: C6_7  and  C7_8 
REMARK    4  A    between atoms: N3_12  and  C9_13 
ROOT
HETATM    1  C7  UNL     1      26.245   2.121  51.674  1.00  0.00     0.060 C 
HETATM    2  N1  UNL     1      26.675   0.915  51.594  1.00  0.00    -0.240 NA
HETATM    3  C8  UNL     1      26.332  -0.275  52.294  1.00  0.00     0.256 C 
HETATM    4  N2  UNL     1      25.277  -0.507  53.002  1.00  0.00    -0.161 NA
HETATM    5  N3  UNL     1      24.191   0.358  53.265  1.00  0.00    -0.244 N 
HETATM    6  C15 UNL     1      24.329   1.774  53.292  1.00  0.00     0.121 C 
HETATM    7  C16 UNL     1      25.203   2.515  52.613  1.00  0.00     0.051 C 
ENDROOT
BRANCH   1   8
HETATM    8  C6  UNL     1      26.798   3.155  50.808  1.00  0.00     0.041 C 
HETATM    9  C4  UNL     1      26.143   3.701  49.816  1.00  0.00    -0.027 C 
HETATM   10  C5  UNL     1      24.758   3.308  49.480  1.00  0.00     0.051 C 
BRANCH   9  11
HETATM   11  C2  UNL     1      26.806   4.742  49.008  1.00  0.00     0.064 C 
HETATM   12  C1  UNL     1      26.171   5.866  48.721  1.00  0.00     0.051 C 
BRANCH  11  13
HETATM   13  O1  UNL     1      28.098   4.562  48.536  1.00  0.00    -0.356 OA
HETATM   14  C3  UNL     1      29.000   5.606  48.259  1.00  0.00     0.210 C 
ENDBRANCH  11  13
ENDBRANCH   9  11
ENDBRANCH   1   8
BRANCH   5  15
HETATM   15  C9  UNL     1      22.913  -0.186  53.516  1.00  0.00     0.059 A 
HETATM   16  C10 UNL     1      22.516  -1.101  54.465  1.00  0.00     0.031 A 
HETATM   17  C11 UNL     1      21.215  -1.515  54.553  1.00  0.00     0.004 A 
HETATM   18  C12 UNL     1      20.215  -1.064  53.723  1.00  0.00     0.019 A 
HETATM   19  C13 UNL     1      20.580  -0.147  52.762  1.00  0.00     0.013 A 
HETATM   20 BR1  UNL     1      19.239   0.517  51.577  1.00  0.00    -0.051 Br
HETATM   21  C14 UNL     1      21.890   0.269  52.673  1.00  0.00     0.050 A 
ENDBRANCH   5  15
TORSDOF 4
ENDMDL
MODEL 2
REMARK VINA RESULT:      -7.3      3.506      4.669
REMARK  4 active torsions:
REMARK  status: ('A' for Active; 'I' for Inactive)
REMARK    1  A    between atoms: C2_2  and  O1_3 
REMARK    2  A    between atoms: C2_2  and  C4_5 
REMARK    3  A    between atoms: C6_7  and  C7_8 
REMARK    4  A    between atoms: N3_12  and  C9_13 
ROOT
HETATM    1  C7  UNL     1      24.089  -0.301  53.686  1.00  0.00     0.060 C 
HETATM    2  N1  UNL     1      23.797  -1.205  54.547  1.00  0.00    -0.240 NA
HETATM    3  C8  UNL     1      22.585  -1.545  55.210  1.00  0.00     0.256 C 
HETATM    4  N2  UNL     1      21.380  -1.205  54.891  1.00  0.00    -0.161 NA
HETATM    5  N3  UNL     1      20.953  -0.410  53.803  1.00  0.00    -0.244 N 
HETATM    6  C15 UNL     1      21.770   0.605  53.229  1.00  0.00     0.121 C 
HETATM    7  C16 UNL     1      23.100   0.644  53.183  1.00  0.00     0.051 C 
ENDROOT
BRANCH   1   8
HETATM    8  C6  UNL     1      25.449  -0.188  53.172  1.00  0.00     0.041 C 
HETATM    9  C4  UNL     1      26.494   0.042  53.924  1.00  0.00    -0.027 C 
HETATM   10  C5  UNL     1      26.385   0.212  55.388  1.00  0.00     0.051 C 
BRANCH   9  11
HETATM   11  C2  UNL     1      27.824   0.135  53.291  1.00  0.00     0.064 C 
HETATM   12  C1  UNL     1      28.594  -0.937  53.204  1.00  0.00     0.051 C 
BRANCH  11  13
HETATM   13  O1  UNL     1      28.288   1.338  52.780  1.00  0.00    -0.356 OA
HETATM   14  C3  UNL     1      28.701   2.432  53.564  1.00  0.00     0.210 C 
ENDBRANCH  11  13
ENDBRANCH   9  11
ENDBRANCH   1   8
BRANCH   5  15
HETATM   15  C9  UNL     1      19.669  -0.615  53.253  1.00  0.00     0.059 A 
HETATM   16  C10 UNL     1      18.663  -1.463  53.659  1.00  0.00     0.031 A 
HETATM   17  C11 UNL     1      17.473  -1.525  52.987  1.00  0.00     0.004 A 
HETATM   18  C12 UNL     1      17.184  -0.765  51.878  1.00  0.00     0.019 A 
HETATM   19  C13 UNL     1      18.171   0.093  51.446  1.00  0.00     0.013 A 
HETATM   20 BR1  UNL     1      17.834   1.175  49.910  1.00  0.00    -0.051 Br
HETATM   21  C14 UNL     1      19.369   0.155  52.122  1.00  0.00     0.050 A 
ENDBRANCH   5  15
TORSDOF 4
ENDMDL
MODEL 3
REMARK VINA RESULT:      -7.2      3.836      5.006
REMARK  4 active torsions:
REMARK  status: ('A' for Active; 'I' for Inactive)
REMARK    1  A    between atoms: C2_2  and  O1_3 
REMARK    2  A    between atoms: C2_2  and  C4_5 
REMARK    3  A    between atoms: C6_7  and  C7_8 
REMARK    4  A    between atoms: N3_12  and  C9_13 
ROOT
HETATM    1  C7  UNL     1      24.973   0.038  54.119  1.00  0.00     0.060 C 
HETATM    2  N1  UNL     1      24.160  -0.886  54.478  1.00  0.00    -0.240 NA
HETATM    3  C8  UNL     1      22.746  -1.015  54.380  1.00  0.00     0.256 C 
HETATM    4  N2  UNL     1      21.936  -0.345  53.629  1.00  0.00    -0.161 NA
HETATM    5  N3  UNL     1      22.242   0.685  52.711  1.00  0.00    -0.244 N 
HETATM    6  C15 UNL     1      23.366   1.543  52.870  1.00  0.00     0.121 C 
HETATM    7  C16 UNL     1      24.522   1.261  53.468  1.00  0.00     0.051 C 
ENDROOT
BRANCH   1   8
HETATM    8  C6  UNL     1      26.404  -0.111  54.355  1.00  0.00     0.041 C 
HETATM    9  C4  UNL     1      27.265  -0.433  53.425  1.00  0.00    -0.027 C 
HETATM   10  C5  UNL     1      26.855  -0.679  52.027  1.00  0.00     0.051 C 
BRANCH   9  11
HETATM   11  C2  UNL     1      28.692  -0.554  53.783  1.00  0.00     0.064 C 
HETATM   12  C1  UNL     1      29.391  -1.604  53.383  1.00  0.00     0.051 C 
BRANCH  11  13
HETATM   13  O1  UNL     1      29.322   0.422  54.541  1.00  0.00    -0.356 OA
HETATM   14  C3  UNL     1      29.334   1.794  54.226  1.00  0.00     0.210 C 
ENDBRANCH  11  13
ENDBRANCH   9  11
ENDBRANCH   1   8
BRANCH   5  15
HETATM   15  C9  UNL     1      21.409   0.887  51.589  1.00  0.00     0.059 A 
HETATM   16  C10 UNL     1      20.053   0.692  51.453  1.00  0.00     0.031 A 
HETATM   17  C11 UNL     1      19.415   0.944  50.269  1.00  0.00     0.004 A 
HETATM   18  C12 UNL     1      20.055   1.403  49.142  1.00  0.00     0.019 A 
HETATM   19  C13 UNL     1      21.413   1.608  49.246  1.00  0.00     0.013 A 
HETATM   20 BR1  UNL     1      22.361   2.245  47.716  1.00  0.00    -0.051 Br
HETATM   21  C14 UNL     1      22.055   1.354  50.437  1.00  0.00     0.050 A 
ENDBRANCH   5  15
TORSDOF 4
ENDMDL
MODEL 4
REMARK VINA RESULT:      -7.1      3.991      6.903
REMARK  4 active torsions:
REMARK  status: ('A' for Active; 'I' for Inactive)
REMARK    1  A    between atoms: C2_2  and  O1_3 
REMARK    2  A    between atoms: C2_2  and  C4_5 
REMARK    3  A    between atoms: C6_7  and  C7_8 
REMARK    4  A    between atoms: N3_12  and  C9_13 
ROOT
HETATM    1  C7  UNL     1      23.997   1.609  52.375  1.00  0.00     0.060 C 
HETATM    2  N1  UNL     1      23.255   1.400  51.351  1.00  0.00    -0.240 NA
HETATM    3  C8  UNL     1      22.379   2.242  50.610  1.00  0.00     0.256 C 
HETATM    4  N2  UNL     1      22.328   3.533  50.609  1.00  0.00    -0.161 NA
HETATM    5  N3  UNL     1      23.126   4.442  51.339  1.00  0.00    -0.244 N 
HETATM    6  C15 UNL     1      23.706   4.114  52.597  1.00  0.00     0.121 C 
HETATM    7  C16 UNL     1      24.073   2.909  53.029  1.00  0.00     0.051 C 
ENDROOT
BRANCH   1   8
HETATM    8  C6  UNL     1      24.806   0.529  52.928  1.00  0.00     0.041 C 
HETATM    9  C4  UNL     1      26.048   0.301  52.587  1.00  0.00    -0.027 C 
HETATM   10  C5  UNL     1      26.754   1.135  51.592  1.00  0.00     0.051 C 
BRANCH   9  11
HETATM   11  C2  UNL     1      26.767  -0.823  53.216  1.00  0.00     0.064 C 
HETATM   12  C1  UNL     1      26.902  -1.970  52.570  1.00  0.00     0.051 C 
BRANCH  11  13
HETATM   13  O1  UNL     1      27.310  -0.701  54.487  1.00  0.00    -0.356 OA
HETATM   14  C3  UNL     1      28.455   0.056  54.797  1.00  0.00     0.210 C 
ENDBRANCH  11  13
ENDBRANCH   9  11
ENDBRANCH   1   8
BRANCH   5  15
HETATM   15  C9  UNL     1      23.368   5.731  50.817  1.00  0.00     0.059 A 
HETATM   16  C10 UNL     1      22.544   6.834  50.779  1.00  0.00     0.031 A 
HETATM   17  C11 UNL     1      22.960   8.012  50.221  1.00  0.00     0.004 A 
HETATM   18  C12 UNL     1      24.204   8.194  49.665  1.00  0.00     0.019 A 
HETATM   19  C13 UNL     1      25.052   7.108  49.687  1.00  0.00     0.013 A 
HETATM   20 BR1  UNL     1      26.794   7.295  48.929  1.00  0.00    -0.051 Br
HETATM   21  C14 UNL     1      24.633   5.923  50.248  1.00  0.00     0.050 A 
ENDBRANCH   5  15
TORSDOF 4
ENDMDL
MODEL 5
REMARK VINA RESULT:      -7.0      3.857      6.666
REMARK  4 active torsions:
REMARK  status: ('A' for Active; 'I' for Inactive)
REMARK    1  A    between atoms: C2_2  and  O1_3 
REMARK    2  A    between atoms: C2_2  and  C4_5 
REMARK    3  A    between atoms: C6_7  and  C7_8 
REMARK    4  A    between atoms: N3_12  and  C9_13 
ROOT
HETATM    1  C7  UNL     1      24.012   1.546  52.354  1.00  0.00     0.060 C 
HETATM    2  N1  UNL     1      23.298   1.356  51.307  1.00  0.00    -0.240 NA
HETATM    3  C8  UNL     1      22.411   2.199  50.582  1.00  0.00     0.256 C 
HETATM    4  N2  UNL     1      22.318   3.487  50.630  1.00  0.00    -0.161 NA
HETATM    5  N3  UNL     1      23.072   4.391  51.413  1.00  0.00    -0.244 N 
HETATM    6  C15 UNL     1      23.636   4.030  52.669  1.00  0.00     0.121 C 
HETATM    7  C16 UNL     1      24.033   2.821  53.061  1.00  0.00     0.051 C 
ENDROOT
BRANCH   1   8
HETATM    8  C6  UNL     1      24.843   0.471  52.882  1.00  0.00     0.041 C 
HETATM    9  C4  UNL     1      26.100   0.299  52.564  1.00  0.00    -0.027 C 
HETATM   10  C5  UNL     1      26.801   1.199  51.624  1.00  0.00     0.051 C 
BRANCH   9  11
HETATM   11  C2  UNL     1      26.842  -0.827  53.163  1.00  0.00     0.064 C 
HETATM   12  C1  UNL     1      26.974  -1.963  52.498  1.00  0.00     0.051 C 
BRANCH  11  13
HETATM   13  O1  UNL     1      27.409  -0.717  54.424  1.00  0.00    -0.356 OA
HETATM   14  C3  UNL     1      28.479   0.138  54.747  1.00  0.00     0.210 C 
ENDBRANCH  11  13
ENDBRANCH   9  11
ENDBRANCH   1   8
BRANCH   5  15
HETATM   15  C9  UNL     1      23.283   5.706  50.947  1.00  0.00     0.059 A 
HETATM   16  C10 UNL     1      24.458   6.406  50.787  1.00  0.00     0.031 A 
HETATM   17  C11 UNL     1      24.461   7.691  50.317  1.00  0.00     0.004 A 
HETATM   18  C12 UNL     1      23.321   8.379  49.973  1.00  0.00     0.019 A 
HETATM   19  C13 UNL     1      22.128   7.705  50.122  1.00  0.00     0.013 A 
HETATM   20 BR1  UNL     1      20.509   8.605  49.663  1.00  0.00    -0.051 Br
HETATM   21  C14 UNL     1      22.126   6.413  50.595  1.00  0.00     0.050 A 
ENDBRANCH   5  15
TORSDOF 4
ENDMDL
MODEL 6
REMARK VINA RESULT:      -6.8      4.432      7.104
REMARK  4 active torsions:
REMARK  status: ('A' for Active; 'I' for Inactive)
REMARK    1  A    between atoms: C2_2  and  O1_3 
REMARK    2  A    between atoms: C2_2  and  C4_5 
REMARK    3  A    between atoms: C6_7  and  C7_8 
REMARK    4  A    between atoms: N3_12  and  C9_13 
ROOT
HETATM    1  C7  UNL     1      21.948   1.350  52.548  1.00  0.00     0.060 C 
HETATM    2  N1  UNL     1      22.034   0.411  53.416  1.00  0.00    -0.240 NA
HETATM    3  C8  UNL     1      23.088  -0.475  53.773  1.00  0.00     0.256 C 
HETATM    4  N2  UNL     1      24.348  -0.363  53.505  1.00  0.00    -0.161 NA
HETATM    5  N3  UNL     1      25.003   0.665  52.789  1.00  0.00    -0.244 N 
HETATM    6  C15 UNL     1      24.356   1.422  51.772  1.00  0.00     0.121 C 
HETATM    7  C16 UNL     1      23.060   1.709  51.676  1.00  0.00     0.051 C 
ENDROOT
BRANCH   1   8
HETATM    8  C6  UNL     1      20.709   2.105  52.403  1.00  0.00     0.041 C 
HETATM    9  C4  UNL     1      19.728   1.749  51.615  1.00  0.00    -0.027 C 
HETATM   10  C5  UNL     1      19.791   0.527  50.786  1.00  0.00     0.051 C 
BRANCH   9  11
HETATM   11  C2  UNL     1      18.519   2.593  51.551  1.00  0.00     0.064 C 
HETATM   12  C1  UNL     1      18.630   3.898  51.364  1.00  0.00     0.051 C 
BRANCH  11  13
HETATM   13  O1  UNL     1      17.255   2.040  51.687  1.00  0.00    -0.356 OA
HETATM   14  C3  UNL     1      16.161   2.333  50.851  1.00  0.00     0.210 C 
ENDBRANCH  11  13
ENDBRANCH   9  11
ENDBRANCH   1   8
BRANCH   5  15
HETATM   15  C9  UNL     1      26.351   0.966  53.081  1.00  0.00     0.059 A 
HETATM   16  C10 UNL     1      26.952   2.184  53.308  1.00  0.00     0.031 A 
HETATM   17  C11 UNL     1      28.291   2.275  53.577  1.00  0.00     0.004 A 
HETATM   18  C12 UNL     1      29.130   1.188  53.643  1.00  0.00     0.019 A 
HETATM   19  C13 UNL     1      28.558  -0.045  53.421  1.00  0.00     0.013 A 
HETATM   20 BR1  UNL     1      29.670  -1.595  53.499  1.00  0.00    -0.051 Br
HETATM   21  C14 UNL     1      27.212  -0.137  53.150  1.00  0.00     0.050 A 
ENDBRANCH   5  15
TORSDOF 4
ENDMDL
MODEL 7
REMARK VINA RESULT:      -6.7      3.972      7.882
REMARK  4 active torsions:
REMARK  status: ('A' for Active; 'I' for Inactive)
REMARK    1  A    between atoms: C2_2  and  O1_3 
REMARK    2  A    between atoms: C2_2  and  C4_5 
REMARK    3  A    between atoms: C6_7  and  C7_8 
REMARK    4  A    between atoms: N3_12  and  C9_13 
ROOT
HETATM    1  C7  UNL     1      23.637   2.665  51.143  1.00  0.00     0.060 C 
HETATM    2  N1  UNL     1      23.187   2.399  49.972  1.00  0.00    -0.240 NA
HETATM    3  C8  UNL     1      23.002   3.197  48.809  1.00  0.00     0.256 C 
HETATM    4  N2  UNL     1      23.520   4.351  48.544  1.00  0.00    -0.161 NA
HETATM    5  N3  UNL     1      24.403   5.118  49.338  1.00  0.00    -0.244 N 
HETATM    6  C15 UNL     1      24.416   5.043  50.759  1.00  0.00     0.121 C 
HETATM    7  C16 UNL     1      24.090   3.999  51.518  1.00  0.00     0.051 C 
ENDROOT
BRANCH   1   8
HETATM    8  C6  UNL     1      23.711   1.619  52.156  1.00  0.00     0.041 C 
HETATM    9  C4  UNL     1      24.791   0.926  52.408  1.00  0.00    -0.027 C 
HETATM   10  C5  UNL     1      26.055   1.146  51.674  1.00  0.00     0.051 C 
BRANCH   9  11
HETATM   11  C2  UNL     1      24.746  -0.109  53.459  1.00  0.00     0.064 C 
HETATM   12  C1  UNL     1      23.587  -0.623  53.837  1.00  0.00     0.051 C 
BRANCH  11  13
HETATM   13  O1  UNL     1      25.909  -0.558  54.068  1.00  0.00    -0.356 OA
HETATM   14  C3  UNL     1      26.635   0.163  55.033  1.00  0.00     0.210 C 
ENDBRANCH  11  13
ENDBRANCH   9  11
ENDBRANCH   1   8
BRANCH   5  15
HETATM   15  C9  UNL     1      25.313   5.999  48.714  1.00  0.00     0.059 A 
HETATM   16  C10 UNL     1      25.081   7.196  48.075  1.00  0.00     0.031 A 
HETATM   17  C11 UNL     1      26.104   7.916  47.522  1.00  0.00     0.004 A 
HETATM   18  C12 UNL     1      27.420   7.518  47.557  1.00  0.00     0.019 A 
HETATM   19  C13 UNL     1      27.685   6.323  48.189  1.00  0.00     0.013 A 
HETATM   20 BR1  UNL     1      29.492   5.714  48.270  1.00  0.00    -0.051 Br
HETATM   21  C14 UNL     1      26.655   5.599  48.745  1.00  0.00     0.050 A 
ENDBRANCH   5  15
TORSDOF 4
ENDMDL
MODEL 8
REMARK VINA RESULT:      -6.6      3.559      5.175
REMARK  4 active torsions:
REMARK  status: ('A' for Active; 'I' for Inactive)
REMARK    1  A    between atoms: C2_2  and  O1_3 
REMARK    2  A    between atoms: C2_2  and  C4_5 
REMARK    3  A    between atoms: C6_7  and  C7_8 
REMARK    4  A    between atoms: N3_12  and  C9_13 
ROOT
HETATM    1  C7  UNL     1      22.809   1.749  51.683  1.00  0.00     0.060 C 
HETATM    2  N1  UNL     1      22.319   2.749  52.319  1.00  0.00    -0.240 NA
HETATM    3  C8  UNL     1      21.004   3.285  52.402  1.00  0.00     0.256 C 
HETATM    4  N2  UNL     1      19.890   2.715  52.077  1.00  0.00    -0.161 NA
HETATM    5  N3  UNL     1      19.689   1.416  51.557  1.00  0.00    -0.244 N 
HETATM    6  C15 UNL     1      20.670   0.744  50.776  1.00  0.00     0.121 C 
HETATM    7  C16 UNL     1      21.992   0.890  50.835  1.00  0.00     0.051 C 
ENDROOT
BRANCH   1   8
HETATM    8  C6  UNL     1      24.228   1.434  51.792  1.00  0.00     0.041 C 
HETATM    9  C4  UNL     1      24.713   0.528  52.601  1.00  0.00    -0.027 C 
HETATM   10  C5  UNL     1      23.847  -0.271  53.493  1.00  0.00     0.051 C 
BRANCH   9  11
HETATM   11  C2  UNL     1      26.170   0.295  52.624  1.00  0.00     0.064 C 
HETATM   12  C1  UNL     1      26.645  -0.923  52.825  1.00  0.00     0.051 C 
BRANCH  11  13
HETATM   13  O1  UNL     1      27.062   1.341  52.438  1.00  0.00    -0.356 OA
HETATM   14  C3  UNL     1      28.244   1.524  53.180  1.00  0.00     0.210 C 
ENDBRANCH  11  13
ENDBRANCH   9  11
ENDBRANCH   1   8
BRANCH   5  15
HETATM   15  C9  UNL     1      18.474   0.746  51.813  1.00  0.00     0.059 A 
HETATM   16  C10 UNL     1      17.183   1.119  51.513  1.00  0.00     0.031 A 
HETATM   17  C11 UNL     1      16.119   0.327  51.847  1.00  0.00     0.004 A 
HETATM   18  C12 UNL     1      16.242  -0.881  52.493  1.00  0.00     0.019 A 
HETATM   19  C13 UNL     1      17.522  -1.283  52.807  1.00  0.00     0.013 A 
HETATM   20 BR1  UNL     1      17.762  -2.950  53.706  1.00  0.00    -0.051 Br
HETATM   21  C14 UNL     1      18.592  -0.485  52.472  1.00  0.00     0.050 A 
ENDBRANCH   5  15
TORSDOF 4
ENDMDL
MODEL 9
REMARK VINA RESULT:      -6.6      2.740      3.785
REMARK  4 active torsions:
REMARK  status: ('A' for Active; 'I' for Inactive)
REMARK    1  A    between atoms: C2_2  and  O1_3 
REMARK    2  A    between atoms: C2_2  and  C4_5 
REMARK    3  A    between atoms: C6_7  and  C7_8 
REMARK    4  A    between atoms: N3_12  and  C9_13 
ROOT
HETATM    1  C7  UNL     1      24.518   5.234  49.960  1.00  0.00     0.060 C 
HETATM    2  N1  UNL     1      24.060   5.726  51.051  1.00  0.00    -0.240 NA
HETATM    3  C8  UNL     1      23.057   5.285  51.959  1.00  0.00     0.256 C 
HETATM    4  N2  UNL     1      22.543   4.104  52.065  1.00  0.00    -0.161 NA
HETATM    5  N3  UNL     1      22.843   2.947  51.310  1.00  0.00    -0.244 N 
HETATM    6  C15 UNL     1      23.311   3.009  49.967  1.00  0.00     0.121 C 
HETATM    7  C16 UNL     1      24.022   3.982  49.402  1.00  0.00     0.051 C 
ENDROOT
BRANCH   1   8
HETATM    8  C6  UNL     1      25.572   5.927  49.228  1.00  0.00     0.041 C 
HETATM    9  C4  UNL     1      26.720   5.383  48.917  1.00  0.00    -0.027 C 
HETATM   10  C5  UNL     1      27.056   3.992  49.288  1.00  0.00     0.051 C 
BRANCH   9  11
HETATM   11  C2  UNL     1      27.711   6.183  48.172  1.00  0.00     0.064 C 
HETATM   12  C1  UNL     1      28.978   5.803  48.134  1.00  0.00     0.051 C 
BRANCH  11  13
HETATM   13  O1  UNL     1      27.337   7.339  47.503  1.00  0.00    -0.356 OA
HETATM   14  C3  UNL     1      27.716   8.640  47.884  1.00  0.00     0.210 C 
ENDBRANCH  11  13
ENDBRANCH   9  11
ENDBRANCH   1   8
BRANCH   5  15
HETATM   15  C9  UNL     1      22.675   1.673  51.894  1.00  0.00     0.059 A 
HETATM   16  C10 UNL     1      21.597   0.818  51.847  1.00  0.00     0.031 A 
HETATM   17  C11 UNL     1      21.621  -0.391  52.486  1.00  0.00     0.004 A 
HETATM   18  C12 UNL     1      22.696  -0.847  53.212  1.00  0.00     0.019 A 
HETATM   19  C13 UNL     1      23.791  -0.014  53.279  1.00  0.00     0.013 A 
HETATM   20 BR1  UNL     1      25.317  -0.588  54.272  1.00  0.00    -0.051 Br
HETATM   21  C14 UNL     1      23.767   1.203  52.635  1.00  0.00     0.050 A 
ENDBRANCH   5  15
TORSDOF 4
ENDMDL
