MODEL 1
REMARK VINA RESULT:      -8.8      0.000      0.000
REMARK  3 active torsions:
REMARK  status: ('A' for Active; 'I' for Inactive)
REMARK    1  A    between atoms: N2_5  and  C4_6 
REMARK    2  A    between atoms: C7_9  and  N3_10 
REMARK    3  A    between atoms: N3_10  and  C8_11 
ROOT
HETATM    1  C8  UNL     1      23.909   3.317  50.555  1.00  0.00     0.181 C 
HETATM    2  C9  UNL     1      24.110   3.082  52.037  1.00  0.00     0.020 C 
HETATM    3  C10 UNL     1      23.711   2.072  52.786  1.00  0.00     0.085 C 
HETATM    4  N4  UNL     1      23.062   0.824  53.013  1.00  0.00    -0.379 N 
HETATM    5  C11 UNL     1      23.781  -0.456  53.132  1.00  0.00     0.127 C 
HETATM    6  C12 UNL     1      23.716  -0.875  54.588  1.00  0.00     0.047 C 
HETATM    7  C13 UNL     1      22.283  -1.028  54.949  1.00  0.00    -0.027 C 
HETATM    8  C14 UNL     1      21.372  -0.345  54.275  1.00  0.00    -0.002 C 
HETATM    9  C15 UNL     1      21.642   0.589  53.161  1.00  0.00     0.131 C 
HETATM   10  C16 UNL     1      21.002   0.104  51.914  1.00  0.00     0.030 C 
HETATM   11  C17 UNL     1      21.234   0.607  50.676  1.00  0.00     0.237 C 
HETATM   12  N5  UNL     1      22.169   1.680  50.594  1.00  0.00     0.110 N 
HETATM   13  C18 UNL     1      22.432   3.056  50.335  1.00  0.00     0.381 A 
HETATM   14  O1  UNL     1      21.234   2.709  50.186  1.00  0.00    -0.143 OA
HETATM   15  H23 UNL     1      22.946   0.965  50.775  1.00  0.00     0.328 HD
ENDROOT
BRANCH   1  16
HETATM   16  N3  UNL     1      24.113   4.692  50.267  1.00  0.00    -0.377 N 
HETATM   17  H10 UNL     1      23.389   5.441  50.443  1.00  0.00     0.160 HD
BRANCH  16  18
HETATM   18  C7  UNL     1      25.352   5.106  49.709  1.00  0.00     0.028 A 
HETATM   19  C6  UNL     1      25.623   6.433  49.495  1.00  0.00     0.031 A 
HETATM   20  C5  UNL     1      26.793   6.880  48.954  1.00  0.00     0.031 A 
HETATM   21  C4  UNL     1      27.792   6.006  48.583  1.00  0.00     0.030 A 
HETATM   22  C20 UNL     1      27.542   4.666  48.788  1.00  0.00     0.031 A 
HETATM   23  C19 UNL     1      26.344   4.238  49.340  1.00  0.00     0.031 A 
BRANCH  21  24
HETATM   24  N2  UNL     1      29.043   6.366  48.013  1.00  0.00    -0.378 N 
HETATM   25  C3  UNL     1      29.307   7.717  47.540  1.00  0.00     0.153 C 
HETATM   26  C2  UNL     1      30.746   7.874  47.168  1.00  0.00     0.291 C 
HETATM   27  N1  UNL     1      31.675   7.391  48.175  1.00  0.00     0.087 N 
HETATM   28  C1  UNL     1      31.570   8.290  49.323  1.00  0.00     0.310 C 
HETATM   29  C22 UNL     1      31.384   6.026  48.562  1.00  0.00     0.291 C 
HETATM   30  C21 UNL     1      30.173   5.483  47.833  1.00  0.00     0.153 C 
ENDBRANCH  21  24
ENDBRANCH  16  18
ENDBRANCH   1  16
TORSDOF 3
ENDMDL
MODEL 2
REMARK VINA RESULT:      -8.6      2.316      3.418
REMARK  3 active torsions:
REMARK  status: ('A' for Active; 'I' for Inactive)
REMARK    1  A    between atoms: N2_5  and  C4_6 
REMARK    2  A    between atoms: C7_9  and  N3_10 
REMARK    3  A    between atoms: N3_10  and  C8_11 
ROOT
HETATM    1  C8  UNL     1      25.122   4.018  50.369  1.00  0.00     0.181 C 
HETATM    2  C9  UNL     1      24.083   2.939  50.149  1.00  0.00     0.020 C 
HETATM    3  C10 UNL     1      23.642   2.018  50.983  1.00  0.00     0.085 C 
HETATM    4  N4  UNL     1      23.597   1.342  52.237  1.00  0.00    -0.379 N 
HETATM    5  C11 UNL     1      22.548   1.570  53.246  1.00  0.00     0.127 C 
HETATM    6  C12 UNL     1      21.665   0.337  53.263  1.00  0.00     0.047 C 
HETATM    7  C13 UNL     1      22.519  -0.823  53.629  1.00  0.00    -0.027 C 
HETATM    8  C14 UNL     1      23.816  -0.775  53.371  1.00  0.00    -0.002 C 
HETATM    9  C15 UNL     1      24.529   0.352  52.732  1.00  0.00     0.131 C 
HETATM   10  C16 UNL     1      25.536   0.919  53.663  1.00  0.00     0.030 C 
HETATM   11  C17 UNL     1      26.200   2.086  53.471  1.00  0.00     0.237 C 
HETATM   12  N5  UNL     1      25.887   2.803  52.279  1.00  0.00     0.110 N 
HETATM   13  C18 UNL     1      26.289   3.284  51.000  1.00  0.00     0.381 A 
HETATM   14  O1  UNL     1      27.174   2.654  51.631  1.00  0.00    -0.143 OA
HETATM   15  H23 UNL     1      24.951   3.064  52.729  1.00  0.00     0.328 HD
ENDROOT
BRANCH   1  16
HETATM   16  N3  UNL     1      25.585   4.486  49.111  1.00  0.00    -0.377 N 
HETATM   17  H10 UNL     1      25.385   3.999  48.195  1.00  0.00     0.160 HD
BRANCH  16  18
HETATM   18  C7  UNL     1      26.365   5.672  49.059  1.00  0.00     0.028 A 
HETATM   19  C6  UNL     1      27.581   5.691  48.427  1.00  0.00     0.031 A 
HETATM   20  C5  UNL     1      28.370   6.802  48.357  1.00  0.00     0.031 A 
HETATM   21  C4  UNL     1      27.984   7.995  48.930  1.00  0.00     0.030 A 
HETATM   22  C20 UNL     1      26.764   8.000  49.571  1.00  0.00     0.031 A 
HETATM   23  C19 UNL     1      25.981   6.856  49.628  1.00  0.00     0.031 A 
BRANCH  21  24
HETATM   24  N2  UNL     1      28.729   9.205  48.914  1.00  0.00    -0.378 N 
HETATM   25  C3  UNL     1      30.177   9.214  49.062  1.00  0.00     0.153 C 
HETATM   26  C2  UNL     1      30.722  10.583  48.820  1.00  0.00     0.291 C 
HETATM   27  N1  UNL     1      30.232  11.212  47.605  1.00  0.00     0.087 N 
HETATM   28  C1  UNL     1      30.796  10.470  46.479  1.00  0.00     0.310 C 
HETATM   29  C22 UNL     1      28.784  11.212  47.549  1.00  0.00     0.291 C 
HETATM   30  C21 UNL     1      28.177  10.532  48.758  1.00  0.00     0.153 C 
ENDBRANCH  21  24
ENDBRANCH  16  18
ENDBRANCH   1  16
TORSDOF 3
ENDMDL
MODEL 3
REMARK VINA RESULT:      -8.6      2.515      3.574
REMARK  3 active torsions:
REMARK  status: ('A' for Active; 'I' for Inactive)
REMARK    1  A    between atoms: N2_5  and  C4_6 
REMARK    2  A    between atoms: C7_9  and  N3_10 
REMARK    3  A    between atoms: N3_10  and  C8_11 
ROOT
HETATM    1  C8  UNL     1      26.162   3.891  50.081  1.00  0.00     0.181 C 
HETATM    2  C9  UNL     1      24.855   3.256  49.651  1.00  0.00     0.020 C 
HETATM    3  C10 UNL     1      23.928   2.671  50.384  1.00  0.00     0.085 C 
HETATM    4  N4  UNL     1      23.364   2.216  51.610  1.00  0.00    -0.379 N 
HETATM    5  C11 UNL     1      22.301   2.935  52.333  1.00  0.00     0.127 C 
HETATM    6  C12 UNL     1      21.025   2.130  52.176  1.00  0.00     0.047 C 
HETATM    7  C13 UNL     1      21.264   0.789  52.769  1.00  0.00    -0.027 C 
HETATM    8  C14 UNL     1      22.500   0.320  52.826  1.00  0.00    -0.002 C 
HETATM    9  C15 UNL     1      23.711   1.017  52.342  1.00  0.00     0.131 C 
HETATM   10  C16 UNL     1      24.641   1.276  53.469  1.00  0.00     0.030 C 
HETATM   11  C17 UNL     1      25.731   2.081  53.406  1.00  0.00     0.237 C 
HETATM   12  N5  UNL     1      25.977   2.716  52.153  1.00  0.00     0.110 N 
HETATM   13  C18 UNL     1      26.792   2.857  50.993  1.00  0.00     0.381 A 
HETATM   14  O1  UNL     1      27.210   2.023  51.835  1.00  0.00    -0.143 OA
HETATM   15  H23 UNL     1      25.146   3.358  52.359  1.00  0.00     0.328 HD
ENDROOT
BRANCH   1  16
HETATM   16  N3  UNL     1      27.021   3.999  48.956  1.00  0.00    -0.377 N 
HETATM   17  H10 UNL     1      27.302   3.180  48.352  1.00  0.00     0.160 HD
BRANCH  16  18
HETATM   18  C7  UNL     1      27.547   5.272  48.608  1.00  0.00     0.028 A 
HETATM   19  C6  UNL     1      26.761   6.396  48.645  1.00  0.00     0.031 A 
HETATM   20  C5  UNL     1      27.216   7.638  48.312  1.00  0.00     0.031 A 
HETATM   21  C4  UNL     1      28.519   7.841  47.909  1.00  0.00     0.030 A 
HETATM   22  C20 UNL     1      29.328   6.726  47.863  1.00  0.00     0.031 A 
HETATM   23  C19 UNL     1      28.840   5.474  48.207  1.00  0.00     0.031 A 
BRANCH  21  24
HETATM   24  N2  UNL     1      29.090   9.090  47.541  1.00  0.00    -0.378 N 
HETATM   25  C3  UNL     1      28.304  10.131  46.895  1.00  0.00     0.153 C 
HETATM   26  C2  UNL     1      29.090  11.397  46.792  1.00  0.00     0.291 C 
HETATM   27  N1  UNL     1      29.730  11.801  48.032  1.00  0.00     0.087 N 
HETATM   28  C1  UNL     1      28.667  12.191  48.957  1.00  0.00     0.310 C 
HETATM   29  C22 UNL     1      30.535  10.734  48.592  1.00  0.00     0.291 C 
HETATM   30  C21 UNL     1      30.467   9.479  47.748  1.00  0.00     0.153 C 
ENDBRANCH  21  24
ENDBRANCH  16  18
ENDBRANCH   1  16
TORSDOF 3
ENDMDL
MODEL 4
REMARK VINA RESULT:      -8.3      1.917      2.677
REMARK  3 active torsions:
REMARK  status: ('A' for Active; 'I' for Inactive)
REMARK    1  A    between atoms: N2_5  and  C4_6 
REMARK    2  A    between atoms: C7_9  and  N3_10 
REMARK    3  A    between atoms: N3_10  and  C8_11 
ROOT
HETATM    1  C8  UNL     1      25.202   3.530  49.630  1.00  0.00     0.181 C 
HETATM    2  C9  UNL     1      26.372   3.346  50.572  1.00  0.00     0.020 C 
HETATM    3  C10 UNL     1      26.571   2.419  51.489  1.00  0.00     0.085 C 
HETATM    4  N4  UNL     1      26.216   1.256  52.232  1.00  0.00    -0.379 N 
HETATM    5  C11 UNL     1      26.760  -0.084  51.954  1.00  0.00     0.127 C 
HETATM    6  C12 UNL     1      27.716  -0.425  53.080  1.00  0.00     0.047 C 
HETATM    7  C13 UNL     1      26.940  -0.413  54.348  1.00  0.00    -0.027 C 
HETATM    8  C14 UNL     1      25.847   0.327  54.427  1.00  0.00    -0.002 C 
HETATM    9  C15 UNL     1      25.298   1.176  53.348  1.00  0.00     0.131 C 
HETATM   10  C16 UNL     1      23.949   0.701  52.954  1.00  0.00     0.030 C 
HETATM   11  C17 UNL     1      23.268   1.119  51.858  1.00  0.00     0.237 C 
HETATM   12  N5  UNL     1      23.922   2.085  51.037  1.00  0.00     0.110 N 
HETATM   13  C18 UNL     1      23.984   3.413  50.525  1.00  0.00     0.381 A 
HETATM   14  O1  UNL     1      23.011   3.185  51.287  1.00  0.00    -0.143 OA
HETATM   15  H23 UNL     1      24.573   1.304  50.703  1.00  0.00     0.328 HD
ENDROOT
BRANCH   1  16
HETATM   16  N3  UNL     1      25.201   4.862  49.138  1.00  0.00    -0.377 N 
HETATM   17  H10 UNL     1      24.322   5.418  48.954  1.00  0.00     0.160 HD
BRANCH  16  18
HETATM   18  C7  UNL     1      26.442   5.501  48.872  1.00  0.00     0.028 A 
HETATM   19  C6  UNL     1      26.548   6.868  48.877  1.00  0.00     0.031 A 
HETATM   20  C5  UNL     1      27.713   7.529  48.618  1.00  0.00     0.031 A 
HETATM   21  C4  UNL     1      28.877   6.847  48.330  1.00  0.00     0.030 A 
HETATM   22  C20 UNL     1      28.794   5.471  48.318  1.00  0.00     0.031 A 
HETATM   23  C19 UNL     1      27.596   4.825  48.585  1.00  0.00     0.031 A 
BRANCH  21  24
HETATM   24  N2  UNL     1      30.138   7.437  48.047  1.00  0.00    -0.378 N 
HETATM   25  C3  UNL     1      31.242   7.373  48.994  1.00  0.00     0.153 C 
HETATM   26  C2  UNL     1      32.497   7.899  48.377  1.00  0.00     0.291 C 
HETATM   27  N1  UNL     1      32.789   7.347  47.065  1.00  0.00     0.087 N 
HETATM   28  C1  UNL     1      33.126   5.938  47.256  1.00  0.00     0.310 C 
HETATM   29  C22 UNL     1      31.666   7.490  46.161  1.00  0.00     0.291 C 
HETATM   30  C21 UNL     1      30.483   8.149  46.838  1.00  0.00     0.153 C 
ENDBRANCH  21  24
ENDBRANCH  16  18
ENDBRANCH   1  16
TORSDOF 3
ENDMDL
MODEL 5
REMARK VINA RESULT:      -8.1      1.357      2.023
REMARK  3 active torsions:
REMARK  status: ('A' for Active; 'I' for Inactive)
REMARK    1  A    between atoms: N2_5  and  C4_6 
REMARK    2  A    between atoms: C7_9  and  N3_10 
REMARK    3  A    between atoms: N3_10  and  C8_11 
ROOT
HETATM    1  C8  UNL     1      23.779   3.957  50.685  1.00  0.00     0.181 C 
HETATM    2  C9  UNL     1      23.942   3.617  52.152  1.00  0.00     0.020 C 
HETATM    3  C10 UNL     1      23.688   2.488  52.783  1.00  0.00     0.085 C 
HETATM    4  N4  UNL     1      23.255   1.133  52.858  1.00  0.00    -0.379 N 
HETATM    5  C11 UNL     1      24.179  -0.014  52.913  1.00  0.00     0.127 C 
HETATM    6  C12 UNL     1      24.115  -0.576  54.320  1.00  0.00     0.047 C 
HETATM    7  C13 UNL     1      22.714  -1.003  54.571  1.00  0.00    -0.027 C 
HETATM    8  C14 UNL     1      21.733  -0.421  53.900  1.00  0.00    -0.002 C 
HETATM    9  C15 UNL     1      21.892   0.649  52.892  1.00  0.00     0.131 C 
HETATM   10  C16 UNL     1      21.409   0.185  51.568  1.00  0.00     0.030 C 
HETATM   11  C17 UNL     1      21.612   0.837  50.395  1.00  0.00     0.237 C 
HETATM   12  N5  UNL     1      22.350   2.055  50.469  1.00  0.00     0.110 N 
HETATM   13  C18 UNL     1      22.382   3.474  50.347  1.00  0.00     0.381 A 
HETATM   14  O1  UNL     1      21.271   2.946  50.090  1.00  0.00    -0.143 OA
HETATM   15  H23 UNL     1      23.228   1.467  50.638  1.00  0.00     0.328 HD
ENDROOT
BRANCH   1  16
HETATM   16  N3  UNL     1      23.754   5.368  50.531  1.00  0.00    -0.377 N 
HETATM   17  H10 UNL     1      22.922   5.970  50.777  1.00  0.00     0.160 HD
BRANCH  16  18
HETATM   18  C7  UNL     1      24.903   6.028  50.018  1.00  0.00     0.028 A 
HETATM   19  C6  UNL     1      25.693   5.435  49.067  1.00  0.00     0.031 A 
HETATM   20  C5  UNL     1      26.809   6.023  48.550  1.00  0.00     0.031 A 
HETATM   21  C4  UNL     1      27.219   7.274  48.961  1.00  0.00     0.030 A 
HETATM   22  C20 UNL     1      26.440   7.890  49.917  1.00  0.00     0.031 A 
HETATM   23  C19 UNL     1      25.309   7.269  50.427  1.00  0.00     0.031 A 
BRANCH  21  24
HETATM   24  N2  UNL     1      28.362   7.973  48.487  1.00  0.00    -0.378 N 
HETATM   25  C3  UNL     1      28.969   7.664  47.201  1.00  0.00     0.153 C 
HETATM   26  C2  UNL     1      30.027   8.663  46.864  1.00  0.00     0.291 C 
HETATM   27  N1  UNL     1      29.610  10.046  47.022  1.00  0.00     0.087 N 
HETATM   28  C1  UNL     1      28.614  10.315  45.987  1.00  0.00     0.310 C 
HETATM   29  C22 UNL     1      29.064  10.293  48.341  1.00  0.00     0.291 C 
HETATM   30  C21 UNL     1      29.049   9.036  49.186  1.00  0.00     0.153 C 
ENDBRANCH  21  24
ENDBRANCH  16  18
ENDBRANCH   1  16
TORSDOF 3
ENDMDL
MODEL 6
REMARK VINA RESULT:      -7.9      2.563      3.633
REMARK  3 active torsions:
REMARK  status: ('A' for Active; 'I' for Inactive)
REMARK    1  A    between atoms: N2_5  and  C4_6 
REMARK    2  A    between atoms: C7_9  and  N3_10 
REMARK    3  A    between atoms: N3_10  and  C8_11 
ROOT
HETATM    1  C8  UNL     1      24.257   2.696  50.600  1.00  0.00     0.181 C 
HETATM    2  C9  UNL     1      25.609   2.947  51.234  1.00  0.00     0.020 C 
HETATM    3  C10 UNL     1      26.299   2.188  52.063  1.00  0.00     0.085 C 
HETATM    4  N4  UNL     1      26.515   1.022  52.852  1.00  0.00    -0.379 N 
HETATM    5  C11 UNL     1      27.379  -0.095  52.432  1.00  0.00     0.127 C 
HETATM    6  C12 UNL     1      28.626  -0.048  53.294  1.00  0.00     0.047 C 
HETATM    7  C13 UNL     1      28.201  -0.201  54.709  1.00  0.00    -0.027 C 
HETATM    8  C14 UNL     1      26.978   0.163  55.058  1.00  0.00    -0.002 C 
HETATM    9  C15 UNL     1      25.953   0.728  54.153  1.00  0.00     0.131 C 
HETATM   10  C16 UNL     1      24.774  -0.170  54.085  1.00  0.00     0.030 C 
HETATM   11  C17 UNL     1      23.763  -0.056  53.188  1.00  0.00     0.237 C 
HETATM   12  N5  UNL     1      23.866   1.013  52.250  1.00  0.00     0.110 N 
HETATM   13  C18 UNL     1      23.381   2.258  51.757  1.00  0.00     0.381 A 
HETATM   14  O1  UNL     1      22.735   1.785  52.726  1.00  0.00    -0.143 OA
HETATM   15  H23 UNL     1      24.637   0.456  51.759  1.00  0.00     0.328 HD
ENDROOT
BRANCH   1  16
HETATM   16  N3  UNL     1      23.718   3.927  50.143  1.00  0.00    -0.377 N 
HETATM   17  H10 UNL     1      22.693   4.078  49.939  1.00  0.00     0.160 HD
BRANCH  16  18
HETATM   18  C7  UNL     1      24.590   5.031  49.940  1.00  0.00     0.028 A 
HETATM   19  C6  UNL     1      25.566   4.993  48.978  1.00  0.00     0.031 A 
HETATM   20  C5  UNL     1      26.432   6.022  48.750  1.00  0.00     0.031 A 
HETATM   21  C4  UNL     1      26.376   7.185  49.490  1.00  0.00     0.030 A 
HETATM   22  C20 UNL     1      25.403   7.245  50.464  1.00  0.00     0.031 A 
HETATM   23  C19 UNL     1      24.534   6.184  50.674  1.00  0.00     0.031 A 
BRANCH  21  24
HETATM   24  N2  UNL     1      27.228   8.312  49.334  1.00  0.00    -0.378 N 
HETATM   25  C3  UNL     1      28.526   8.205  48.684  1.00  0.00     0.153 C 
HETATM   26  C2  UNL     1      29.127   9.558  48.483  1.00  0.00     0.291 C 
HETATM   27  N1  UNL     1      28.224  10.524  47.881  1.00  0.00     0.087 N 
HETATM   28  C1  UNL     1      27.995  10.098  46.502  1.00  0.00     0.310 C 
HETATM   29  C22 UNL     1      26.974  10.615  48.607  1.00  0.00     0.291 C 
HETATM   30  C21 UNL     1      26.936   9.656  49.778  1.00  0.00     0.153 C 
ENDBRANCH  21  24
ENDBRANCH  16  18
ENDBRANCH   1  16
TORSDOF 3
ENDMDL
MODEL 7
REMARK VINA RESULT:      -7.8      1.975      3.502
REMARK  3 active torsions:
REMARK  status: ('A' for Active; 'I' for Inactive)
REMARK    1  A    between atoms: N2_5  and  C4_6 
REMARK    2  A    between atoms: C7_9  and  N3_10 
REMARK    3  A    between atoms: N3_10  and  C8_11 
ROOT
HETATM    1  C8  UNL     1      25.386   5.127  49.747  1.00  0.00     0.181 C 
HETATM    2  C9  UNL     1      24.008   4.553  49.490  1.00  0.00     0.020 C 
HETATM    3  C10 UNL     1      23.310   3.696  50.210  1.00  0.00     0.085 C 
HETATM    4  N4  UNL     1      23.096   2.839  51.327  1.00  0.00    -0.379 N 
HETATM    5  C11 UNL     1      22.272   3.210  52.490  1.00  0.00     0.127 C 
HETATM    6  C12 UNL     1      20.997   2.392  52.419  1.00  0.00     0.047 C 
HETATM    7  C13 UNL     1      21.380   0.957  52.468  1.00  0.00    -0.027 C 
HETATM    8  C14 UNL     1      22.583   0.596  52.051  1.00  0.00    -0.002 C 
HETATM    9  C15 UNL     1      23.622   1.505  51.521  1.00  0.00     0.131 C 
HETATM   10  C16 UNL     1      24.823   1.478  52.391  1.00  0.00     0.030 C 
HETATM   11  C17 UNL     1      25.860   2.349  52.311  1.00  0.00     0.237 C 
HETATM   12  N5  UNL     1      25.762   3.358  51.308  1.00  0.00     0.110 N 
HETATM   13  C18 UNL     1      26.234   3.917  50.086  1.00  0.00     0.381 A 
HETATM   14  O1  UNL     1      26.859   2.900  50.479  1.00  0.00    -0.143 OA
HETATM   15  H23 UNL     1      25.021   3.834  51.916  1.00  0.00     0.328 HD
ENDROOT
BRANCH   1  16
HETATM   16  N3  UNL     1      25.910   5.648  48.535  1.00  0.00    -0.377 N 
HETATM   17  H10 UNL     1      25.369   5.678  47.628  1.00  0.00     0.160 HD
BRANCH  16  18
HETATM   18  C7  UNL     1      27.234   6.162  48.519  1.00  0.00     0.028 A 
HETATM   19  C6  UNL     1      28.313   5.332  48.353  1.00  0.00     0.031 A 
HETATM   20  C5  UNL     1      29.602   5.776  48.338  1.00  0.00     0.031 A 
HETATM   21  C4  UNL     1      29.904   7.112  48.494  1.00  0.00     0.030 A 
HETATM   22  C20 UNL     1      28.836   7.966  48.664  1.00  0.00     0.031 A 
HETATM   23  C19 UNL     1      27.534   7.488  48.674  1.00  0.00     0.031 A 
BRANCH  21  24
HETATM   24  N2  UNL     1      31.209   7.675  48.495  1.00  0.00    -0.378 N 
HETATM   25  C3  UNL     1      32.378   6.897  48.879  1.00  0.00     0.153 C 
HETATM   26  C2  UNL     1      33.632   7.664  48.610  1.00  0.00     0.291 C 
HETATM   27  N1  UNL     1      33.700   8.244  47.280  1.00  0.00     0.087 N 
HETATM   28  C1  UNL     1      33.825   7.137  46.334  1.00  0.00     0.310 C 
HETATM   29  C22 UNL     1      32.529   9.045  46.985  1.00  0.00     0.291 C 
HETATM   30  C21 UNL     1      31.540   9.035  48.132  1.00  0.00     0.153 C 
ENDBRANCH  21  24
ENDBRANCH  16  18
ENDBRANCH   1  16
TORSDOF 3
ENDMDL
MODEL 8
REMARK VINA RESULT:      -7.8      5.742     12.942
REMARK  3 active torsions:
REMARK  status: ('A' for Active; 'I' for Inactive)
REMARK    1  A    between atoms: N2_5  and  C4_6 
REMARK    2  A    between atoms: C7_9  and  N3_10 
REMARK    3  A    between atoms: N3_10  and  C8_11 
ROOT
HETATM    1  C8  UNL     1      20.063  -0.734  53.235  1.00  0.00     0.181 C 
HETATM    2  C9  UNL     1      20.089   0.713  52.788  1.00  0.00     0.020 C 
HETATM    3  C10 UNL     1      21.101   1.437  52.352  1.00  0.00     0.085 C 
HETATM    4  N4  UNL     1      22.464   1.648  51.996  1.00  0.00    -0.379 N 
HETATM    5  C11 UNL     1      22.953   1.640  50.606  1.00  0.00     0.127 C 
HETATM    6  C12 UNL     1      23.291   3.072  50.240  1.00  0.00     0.047 C 
HETATM    7  C13 UNL     1      24.346   3.539  51.177  1.00  0.00    -0.027 C 
HETATM    8  C14 UNL     1      24.441   2.979  52.371  1.00  0.00    -0.002 C 
HETATM    9  C15 UNL     1      23.574   1.898  52.890  1.00  0.00     0.131 C 
HETATM   10  C16 UNL     1      24.377   0.683  53.171  1.00  0.00     0.030 C 
HETATM   11  C17 UNL     1      23.862  -0.541  53.446  1.00  0.00     0.237 C 
HETATM   12  N5  UNL     1      22.440  -0.641  53.459  1.00  0.00     0.110 N 
HETATM   13  C18 UNL     1      21.235  -0.847  54.190  1.00  0.00     0.381 A 
HETATM   14  O1  UNL     1      22.287  -0.916  54.873  1.00  0.00    -0.143 OA
HETATM   15  H23 UNL     1      22.464  -0.562  52.391  1.00  0.00     0.328 HD
ENDROOT
BRANCH   1  16
HETATM   16  N3  UNL     1      18.898  -0.963  54.013  1.00  0.00    -0.377 N 
HETATM   17  H10 UNL     1      18.738  -0.539  54.967  1.00  0.00     0.160 HD
BRANCH  16  18
HETATM   18  C7  UNL     1      17.879  -1.808  53.500  1.00  0.00     0.028 A 
HETATM   19  C6  UNL     1      16.900  -1.315  52.675  1.00  0.00     0.031 A 
HETATM   20  C5  UNL     1      15.896  -2.084  52.164  1.00  0.00     0.031 A 
HETATM   21  C4  UNL     1      15.803  -3.429  52.453  1.00  0.00     0.030 A 
HETATM   22  C20 UNL     1      16.775  -3.947  53.280  1.00  0.00     0.031 A 
HETATM   23  C19 UNL     1      17.786  -3.143  53.786  1.00  0.00     0.031 A 
BRANCH  21  24
HETATM   24  N2  UNL     1      14.800  -4.315  51.974  1.00  0.00    -0.378 N 
HETATM   25  C3  UNL     1      14.354  -5.460  52.754  1.00  0.00     0.153 C 
HETATM   26  C2  UNL     1      13.171  -6.107  52.112  1.00  0.00     0.291 C 
HETATM   27  N1  UNL     1      12.117  -5.180  51.738  1.00  0.00     0.087 N 
HETATM   28  C1  UNL     1      11.533  -4.670  52.977  1.00  0.00     0.310 C 
HETATM   29  C22 UNL     1      12.623  -4.095  50.921  1.00  0.00     0.291 C 
HETATM   30  C21 UNL     1      14.117  -4.207  50.704  1.00  0.00     0.153 C 
ENDBRANCH  21  24
ENDBRANCH  16  18
ENDBRANCH   1  16
TORSDOF 3
ENDMDL
MODEL 9
REMARK VINA RESULT:      -7.4      3.153     10.491
REMARK  3 active torsions:
REMARK  status: ('A' for Active; 'I' for Inactive)
REMARK    1  A    between atoms: N2_5  and  C4_6 
REMARK    2  A    between atoms: C7_9  and  N3_10 
REMARK    3  A    between atoms: N3_10  and  C8_11 
ROOT
HETATM    1  C8  UNL     1      28.378   6.883  48.143  1.00  0.00     0.181 C 
HETATM    2  C9  UNL     1      28.220   7.958  49.197  1.00  0.00     0.020 C 
HETATM    3  C10 UNL     1      28.621   9.214  49.179  1.00  0.00     0.085 C 
HETATM    4  N4  UNL     1      29.250  10.349  48.590  1.00  0.00    -0.379 N 
HETATM    5  C11 UNL     1      28.508  11.448  47.948  1.00  0.00     0.127 C 
HETATM    6  C12 UNL     1      28.610  12.654  48.862  1.00  0.00     0.047 C 
HETATM    7  C13 UNL     1      30.051  12.990  49.004  1.00  0.00    -0.027 C 
HETATM    8  C14 UNL     1      30.954  12.038  48.837  1.00  0.00    -0.002 C 
HETATM    9  C15 UNL     1      30.669  10.623  48.514  1.00  0.00     0.131 C 
HETATM   10  C16 UNL     1      31.258  10.265  47.201  1.00  0.00     0.030 C 
HETATM   11  C17 UNL     1      30.998   9.122  46.518  1.00  0.00     0.237 C 
HETATM   12  N5  UNL     1      30.083   8.215  47.130  1.00  0.00     0.110 N 
HETATM   13  C18 UNL     1      29.841   6.958  47.754  1.00  0.00     0.381 A 
HETATM   14  O1  UNL     1      31.027   7.144  47.382  1.00  0.00    -0.143 OA
HETATM   15  H23 UNL     1      29.298   8.898  46.877  1.00  0.00     0.328 HD
ENDROOT
BRANCH   1  16
HETATM   16  N3  UNL     1      28.194   5.609  48.742  1.00  0.00    -0.377 N 
HETATM   17  H10 UNL     1      28.990   4.985  49.047  1.00  0.00     0.160 HD
BRANCH  16  18
HETATM   18  C7  UNL     1      26.875   5.126  48.950  1.00  0.00     0.028 A 
HETATM   19  C6  UNL     1      26.652   3.865  49.439  1.00  0.00     0.031 A 
HETATM   20  C5  UNL     1      25.406   3.353  49.648  1.00  0.00     0.031 A 
HETATM   21  C4  UNL     1      24.272   4.088  49.374  1.00  0.00     0.030 A 
HETATM   22  C20 UNL     1      24.470   5.359  48.881  1.00  0.00     0.031 A 
HETATM   23  C19 UNL     1      25.749   5.856  48.678  1.00  0.00     0.031 A 
BRANCH  21  24
HETATM   24  N2  UNL     1      22.932   3.649  49.556  1.00  0.00    -0.378 N 
HETATM   25  C3  UNL     1      22.589   2.235  49.599  1.00  0.00     0.153 C 
HETATM   26  C2  UNL     1      21.158   2.052  49.987  1.00  0.00     0.291 C 
HETATM   27  N1  UNL     1      20.760   2.809  51.161  1.00  0.00     0.087 N 
HETATM   28  C1  UNL     1      21.451   2.222  52.307  1.00  0.00     0.310 C 
HETATM   29  C22 UNL     1      21.086   4.215  51.028  1.00  0.00     0.291 C 
HETATM   30  C21 UNL     1      21.779   4.507  49.714  1.00  0.00     0.153 C 
ENDBRANCH  21  24
ENDBRANCH  16  18
ENDBRANCH   1  16
TORSDOF 3
ENDMDL
