MODEL 1
REMARK VINA RESULT:      -8.9      0.000      0.000
REMARK  3 active torsions:
REMARK  status: ('A' for Active; 'I' for Inactive)
REMARK    1  A    between atoms: O1_2  and  C2_3 
REMARK    2  A    between atoms: C12_15  and  N3_16 
REMARK    3  A    between atoms: N3_16  and  C13_17 
ROOT
HETATM    1  C2  UNL     1      26.000   1.665  53.347  1.00  0.00     0.047 C 
HETATM    2  C3  UNL     1      26.011   0.351  53.393  1.00  0.00     0.032 C 
HETATM    3  C4  UNL     1      24.941  -0.438  53.947  1.00  0.00    -0.002 C 
HETATM    4  C5  UNL     1      23.833  -0.765  54.526  1.00  0.00    -0.026 C 
HETATM    5  C6  UNL     1      22.663  -1.445  55.125  1.00  0.00     0.032 C 
HETATM    6  C7  UNL     1      21.376  -0.863  54.532  1.00  0.00     0.046 C 
HETATM    7  C8  UNL     1      21.440  -0.503  53.114  1.00  0.00    -0.012 C 
HETATM    8  C9  UNL     1      22.206  -0.334  52.016  1.00  0.00     0.042 C 
HETATM    9  C10 UNL     1      22.627   1.075  51.516  1.00  0.00     0.366 C 
HETATM   10  N1  UNL     1      21.467   1.866  51.209  1.00  0.00    -0.243 NA
HETATM   11  C11 UNL     1      20.265   1.412  50.904  1.00  0.00     0.232 C 
HETATM   12  N2  UNL     1      19.502   0.559  51.797  1.00  0.00    -0.224 NA
HETATM   13  C12 UNL     1      20.021  -0.145  52.799  1.00  0.00     0.135 C 
HETATM   14  N4  UNL     1      23.406   1.643  52.510  1.00  0.00     0.112 N 
HETATM   15  C19 UNL     1      24.056   2.889  52.520  1.00  0.00     0.279 C 
HETATM   16  C20 UNL     1      25.020   2.710  53.775  1.00  0.00     0.094 C 
HETATM   17  H19 UNL     1      22.735   1.704  53.395  1.00  0.00     0.319 HD
ENDROOT
BRANCH  13  18
HETATM   18  N3  UNL     1      18.921  -0.551  53.647  1.00  0.00    -0.341 N 
HETATM   19  H14 UNL     1      19.021  -0.198  54.648  1.00  0.00     0.167 HD
BRANCH  18  20
HETATM   20  C13 UNL     1      17.810  -1.340  53.260  1.00  0.00     0.035 A 
HETATM   21  C14 UNL     1      16.740  -0.895  52.527  1.00  0.00     0.029 A 
HETATM   22  C15 UNL     1      15.671  -1.691  52.170  1.00  0.00     0.004 A 
HETATM   23  C16 UNL     1      15.665  -3.000  52.561  1.00  0.00     0.024 A 
HETATM   24  C17 UNL     1      16.728  -3.473  53.298  1.00  0.00     0.036 A 
HETATM   25 CL1  UNL     1      16.760  -5.140  53.818  1.00  0.00    -0.084 Cl
HETATM   26  C18 UNL     1      17.796  -2.659  53.648  1.00  0.00     0.053 A 
ENDBRANCH  18  20
ENDBRANCH  13  18
BRANCH   1  27
HETATM   27  O1  UNL     1      27.177   2.121  52.759  1.00  0.00    -0.360 OA
HETATM   28  C1  UNL     1      28.374   2.299  53.489  1.00  0.00     0.209 C 
ENDBRANCH   1  27
TORSDOF 3
ENDMDL
MODEL 2
REMARK VINA RESULT:      -8.3      2.659      3.946
REMARK  3 active torsions:
REMARK  status: ('A' for Active; 'I' for Inactive)
REMARK    1  A    between atoms: O1_2  and  C2_3 
REMARK    2  A    between atoms: C12_15  and  N3_16 
REMARK    3  A    between atoms: N3_16  and  C13_17 
ROOT
HETATM    1  C2  UNL     1      27.145   1.019  52.427  1.00  0.00     0.047 C 
HETATM    2  C3  UNL     1      26.658   2.229  52.261  1.00  0.00     0.032 C 
HETATM    3  C4  UNL     1      25.466   2.514  51.504  1.00  0.00    -0.002 C 
HETATM    4  C5  UNL     1      24.421   2.357  50.760  1.00  0.00    -0.026 C 
HETATM    5  C6  UNL     1      23.187   2.500  49.957  1.00  0.00     0.032 C 
HETATM    6  C7  UNL     1      22.147   1.481  50.432  1.00  0.00     0.046 C 
HETATM    7  C8  UNL     1      22.125   1.227  51.873  1.00  0.00    -0.012 C 
HETATM    8  C9  UNL     1      22.718   1.412  53.071  1.00  0.00     0.042 C 
HETATM    9  C10 UNL     1      23.565   0.300  53.749  1.00  0.00     0.366 C 
HETATM   10  N1  UNL     1      22.765  -0.872  53.979  1.00  0.00    -0.243 NA
HETATM   11  C11 UNL     1      21.450  -0.916  54.083  1.00  0.00     0.232 C 
HETATM   12  N2  UNL     1      20.565  -0.464  53.025  1.00  0.00    -0.224 NA
HETATM   13  C12 UNL     1      20.922   0.351  52.037  1.00  0.00     0.135 C 
HETATM   14  N4  UNL     1      24.645   0.050  52.920  1.00  0.00     0.112 N 
HETATM   15  C19 UNL     1      25.717  -0.841  53.110  1.00  0.00     0.279 C 
HETATM   16  C20 UNL     1      26.720  -0.342  51.976  1.00  0.00     0.094 C 
HETATM   17  H19 UNL     1      24.194  -0.302  51.966  1.00  0.00     0.319 HD
ENDROOT
BRANCH  13  18
HETATM   18  N3  UNL     1      19.895   0.262  51.021  1.00  0.00    -0.341 N 
HETATM   19  H14 UNL     1      20.265  -0.110  50.093  1.00  0.00     0.167 HD
BRANCH  18  20
HETATM   20  C13 UNL     1      18.533   0.622  51.171  1.00  0.00     0.035 A 
HETATM   21  C14 UNL     1      17.475  -0.249  51.122  1.00  0.00     0.029 A 
HETATM   22  C15 UNL     1      16.158   0.137  51.269  1.00  0.00     0.004 A 
HETATM   23  C16 UNL     1      15.878   1.458  51.475  1.00  0.00     0.024 A 
HETATM   24  C17 UNL     1      16.922   2.353  51.529  1.00  0.00     0.036 A 
HETATM   25 CL1  UNL     1      16.608   4.050  51.791  1.00  0.00    -0.084 Cl
HETATM   26  C18 UNL     1      18.241   1.949  51.380  1.00  0.00     0.053 A 
ENDBRANCH  18  20
ENDBRANCH  13  18
BRANCH   1  27
HETATM   27  O1  UNL     1      28.301   1.084  53.200  1.00  0.00    -0.360 OA
HETATM   28  C1  UNL     1      28.806   2.299  53.715  1.00  0.00     0.209 C 
ENDBRANCH   1  27
TORSDOF 3
ENDMDL
MODEL 3
REMARK VINA RESULT:      -8.2      4.917      7.834
REMARK  3 active torsions:
REMARK  status: ('A' for Active; 'I' for Inactive)
REMARK    1  A    between atoms: O1_2  and  C2_3 
REMARK    2  A    between atoms: C12_15  and  N3_16 
REMARK    3  A    between atoms: N3_16  and  C13_17 
ROOT
HETATM    1  C2  UNL     1      22.603   6.232  49.168  1.00  0.00     0.047 C 
HETATM    2  C3  UNL     1      23.390   5.513  48.399  1.00  0.00     0.032 C 
HETATM    3  C4  UNL     1      24.509   4.751  48.891  1.00  0.00    -0.002 C 
HETATM    4  C5  UNL     1      25.391   4.245  49.689  1.00  0.00    -0.026 C 
HETATM    5  C6  UNL     1      26.504   3.512  50.332  1.00  0.00     0.032 C 
HETATM    6  C7  UNL     1      25.976   2.750  51.551  1.00  0.00     0.046 C 
HETATM    7  C8  UNL     1      24.634   2.181  51.408  1.00  0.00    -0.012 C 
HETATM    8  C9  UNL     1      23.505   2.098  50.673  1.00  0.00     0.042 C 
HETATM    9  C10 UNL     1      22.212   2.865  51.064  1.00  0.00     0.366 C 
HETATM   10  N1  UNL     1      21.762   2.461  52.368  1.00  0.00    -0.243 NA
HETATM   11  C11 UNL     1      22.039   1.321  52.975  1.00  0.00     0.232 C 
HETATM   12  N2  UNL     1      23.397   0.897  53.261  1.00  0.00    -0.224 NA
HETATM   13  C12 UNL     1      24.482   1.373  52.659  1.00  0.00     0.135 C 
HETATM   14  N4  UNL     1      22.507   4.217  51.002  1.00  0.00     0.112 N 
HETATM   15  C19 UNL     1      21.661   5.317  51.227  1.00  0.00     0.279 C 
HETATM   16  C20 UNL     1      22.552   6.500  50.639  1.00  0.00     0.094 C 
HETATM   17  H19 UNL     1      23.315   4.365  51.752  1.00  0.00     0.319 HD
ENDROOT
BRANCH  13  18
HETATM   18  N3  UNL     1      25.620   0.980  53.461  1.00  0.00    -0.341 N 
HETATM   19  H14 UNL     1      25.774   1.622  54.299  1.00  0.00     0.167 HD
BRANCH  18  20
HETATM   20  C13 UNL     1      26.484  -0.115  53.214  1.00  0.00     0.035 A 
HETATM   21  C14 UNL     1      26.105  -1.312  52.661  1.00  0.00     0.029 A 
HETATM   22  C15 UNL     1      26.974  -2.361  52.437  1.00  0.00     0.004 A 
HETATM   23  C16 UNL     1      28.287  -2.213  52.780  1.00  0.00     0.024 A 
HETATM   24  C17 UNL     1      28.694  -1.021  53.337  1.00  0.00     0.036 A 
HETATM   25 CL1  UNL     1      30.364  -0.791  53.789  1.00  0.00    -0.084 Cl
HETATM   26  C18 UNL     1      27.808   0.024  53.555  1.00  0.00     0.053 A 
ENDBRANCH  18  20
ENDBRANCH  13  18
BRANCH   1  27
HETATM   27  O1  UNL     1      21.626   6.847  48.391  1.00  0.00    -0.360 OA
HETATM   28  C1  UNL     1      21.428   8.246  48.381  1.00  0.00     0.209 C 
ENDBRANCH   1  27
TORSDOF 3
ENDMDL
MODEL 4
REMARK VINA RESULT:      -8.0      5.686      7.795
REMARK  3 active torsions:
REMARK  status: ('A' for Active; 'I' for Inactive)
REMARK    1  A    between atoms: O1_2  and  C2_3 
REMARK    2  A    between atoms: C12_15  and  N3_16 
REMARK    3  A    between atoms: N3_16  and  C13_17 
ROOT
HETATM    1  C2  UNL     1      27.854   9.049  48.338  1.00  0.00     0.047 C 
HETATM    2  C3  UNL     1      27.830   8.061  47.470  1.00  0.00     0.032 C 
HETATM    3  C4  UNL     1      27.616   6.684  47.833  1.00  0.00    -0.002 C 
HETATM    4  C5  UNL     1      27.425   5.618  48.540  1.00  0.00    -0.026 C 
HETATM    5  C6  UNL     1      27.195   4.251  49.057  1.00  0.00     0.032 C 
HETATM    6  C7  UNL     1      25.996   4.260  50.010  1.00  0.00     0.046 C 
HETATM    7  C8  UNL     1      24.901   5.158  49.638  1.00  0.00    -0.012 C 
HETATM    8  C9  UNL     1      24.463   6.146  48.830  1.00  0.00     0.042 C 
HETATM    9  C10 UNL     1      24.376   7.621  49.309  1.00  0.00     0.366 C 
HETATM   10  N1  UNL     1      23.493   7.731  50.438  1.00  0.00    -0.243 NA
HETATM   11  C11 UNL     1      22.524   6.895  50.761  1.00  0.00     0.232 C 
HETATM   12  N2  UNL     1      22.761   5.488  51.026  1.00  0.00    -0.224 NA
HETATM   13  C12 UNL     1      23.839   4.815  50.636  1.00  0.00     0.135 C 
HETATM   14  N4  UNL     1      25.666   8.030  49.604  1.00  0.00     0.112 N 
HETATM   15  C19 UNL     1      26.116   9.289  50.036  1.00  0.00     0.279 C 
HETATM   16  C20 UNL     1      27.687   9.131  49.822  1.00  0.00     0.094 C 
HETATM   17  H19 UNL     1      25.997   7.351  50.421  1.00  0.00     0.319 HD
ENDROOT
BRANCH  13  18
HETATM   18  N3  UNL     1      23.867   3.582  51.392  1.00  0.00    -0.341 N 
HETATM   19  H14 UNL     1      24.642   3.565  52.124  1.00  0.00     0.167 HD
BRANCH  18  20
HETATM   20  C13 UNL     1      23.000   2.475  51.224  1.00  0.00     0.035 A 
HETATM   21  C14 UNL     1      22.469   2.059  50.030  1.00  0.00     0.029 A 
HETATM   22  C15 UNL     1      21.623   0.976  49.903  1.00  0.00     0.004 A 
HETATM   23  C16 UNL     1      21.286   0.269  51.021  1.00  0.00     0.024 A 
HETATM   24  C17 UNL     1      21.805   0.665  52.233  1.00  0.00     0.036 A 
HETATM   25 CL1  UNL     1      21.399  -0.212  53.688  1.00  0.00    -0.084 Cl
HETATM   26  C18 UNL     1      22.655   1.756  52.345  1.00  0.00     0.053 A 
ENDBRANCH  18  20
ENDBRANCH  13  18
BRANCH   1  27
HETATM   27  O1  UNL     1      28.085  10.249  47.672  1.00  0.00    -0.360 OA
HETATM   28  C1  UNL     1      29.375  10.811  47.538  1.00  0.00     0.209 C 
ENDBRANCH   1  27
TORSDOF 3
ENDMDL
MODEL 5
REMARK VINA RESULT:      -8.0      4.385      6.270
REMARK  3 active torsions:
REMARK  status: ('A' for Active; 'I' for Inactive)
REMARK    1  A    between atoms: O1_2  and  C2_3 
REMARK    2  A    between atoms: C12_15  and  N3_16 
REMARK    3  A    between atoms: N3_16  and  C13_17 
ROOT
HETATM    1  C2  UNL     1      27.567   0.045  53.096  1.00  0.00     0.047 C 
HETATM    2  C3  UNL     1      27.795   1.333  52.959  1.00  0.00     0.032 C 
HETATM    3  C4  UNL     1      27.168   2.154  51.955  1.00  0.00    -0.002 C 
HETATM    4  C5  UNL     1      26.446   2.519  50.947  1.00  0.00    -0.026 C 
HETATM    5  C6  UNL     1      25.729   3.237  49.870  1.00  0.00     0.032 C 
HETATM    6  C7  UNL     1      24.241   2.881  49.921  1.00  0.00     0.046 C 
HETATM    7  C8  UNL     1      23.679   2.705  51.262  1.00  0.00    -0.012 C 
HETATM    8  C9  UNL     1      23.909   2.600  52.588  1.00  0.00     0.042 C 
HETATM    9  C10 UNL     1      23.876   1.232  53.322  1.00  0.00     0.366 C 
HETATM   10  N1  UNL     1      22.584   0.618  53.182  1.00  0.00    -0.243 NA
HETATM   11  C11 UNL     1      21.445   1.235  52.928  1.00  0.00     0.232 C 
HETATM   12  N2  UNL     1      21.241   2.041  51.739  1.00  0.00    -0.224 NA
HETATM   13  C12 UNL     1      22.216   2.546  50.990  1.00  0.00     0.135 C 
HETATM   14  N4  UNL     1      24.890   0.458  52.783  1.00  0.00     0.112 N 
HETATM   15  C19 UNL     1      25.292  -0.842  53.137  1.00  0.00     0.279 C 
HETATM   16  C20 UNL     1      26.692  -0.935  52.382  1.00  0.00     0.094 C 
HETATM   17  H19 UNL     1      24.626   0.354  51.708  1.00  0.00     0.319 HD
ENDROOT
BRANCH  13  18
HETATM   18  N3  UNL     1      21.620   2.955  49.736  1.00  0.00    -0.341 N 
HETATM   19  H14 UNL     1      21.844   2.285  48.937  1.00  0.00     0.167 HD
BRANCH  18  20
HETATM   20  C13 UNL     1      20.829   4.109  49.519  1.00  0.00     0.035 A 
HETATM   21  C14 UNL     1      19.643   4.137  48.830  1.00  0.00     0.029 A 
HETATM   22  C15 UNL     1      18.897   5.282  48.635  1.00  0.00     0.004 A 
HETATM   23  C16 UNL     1      19.354   6.461  49.150  1.00  0.00     0.024 A 
HETATM   24  C17 UNL     1      20.542   6.461  49.846  1.00  0.00     0.036 A 
HETATM   25 CL1  UNL     1      21.162   7.947  50.522  1.00  0.00    -0.084 Cl
HETATM   26  C18 UNL     1      21.280   5.301  50.035  1.00  0.00     0.053 A 
ENDBRANCH  18  20
ENDBRANCH  13  18
BRANCH   1  27
HETATM   27  O1  UNL     1      28.328  -0.454  54.149  1.00  0.00    -0.360 OA
HETATM   28  C1  UNL     1      29.663  -0.889  53.986  1.00  0.00     0.209 C 
ENDBRANCH   1  27
TORSDOF 3
ENDMDL
MODEL 6
REMARK VINA RESULT:      -8.0      5.641      9.482
REMARK  3 active torsions:
REMARK  status: ('A' for Active; 'I' for Inactive)
REMARK    1  A    between atoms: O1_2  and  C2_3 
REMARK    2  A    between atoms: C12_15  and  N3_16 
REMARK    3  A    between atoms: N3_16  and  C13_17 
ROOT
HETATM    1  C2  UNL     1      22.241   0.193  52.668  1.00  0.00     0.047 C 
HETATM    2  C3  UNL     1      23.409   0.449  53.213  1.00  0.00     0.032 C 
HETATM    3  C4  UNL     1      24.473   1.143  52.534  1.00  0.00    -0.002 C 
HETATM    4  C5  UNL     1      25.149   1.748  51.613  1.00  0.00    -0.026 C 
HETATM    5  C6  UNL     1      26.149   2.470  50.796  1.00  0.00     0.032 C 
HETATM    6  C7  UNL     1      25.493   3.693  50.148  1.00  0.00     0.046 C 
HETATM    7  C8  UNL     1      24.498   4.385  50.970  1.00  0.00    -0.012 C 
HETATM    8  C9  UNL     1      23.749   4.383  52.093  1.00  0.00     0.042 C 
HETATM    9  C10 UNL     1      22.236   4.030  52.071  1.00  0.00     0.366 C 
HETATM   10  N1  UNL     1      21.519   4.942  51.222  1.00  0.00    -0.243 NA
HETATM   11  C11 UNL     1      21.896   6.161  50.884  1.00  0.00     0.232 C 
HETATM   12  N2  UNL     1      23.146   6.431  50.196  1.00  0.00    -0.224 NA
HETATM   13  C12 UNL     1      24.182   5.600  50.155  1.00  0.00     0.135 C 
HETATM   14  N4  UNL     1      22.132   2.717  51.644  1.00  0.00     0.112 N 
HETATM   15  C19 UNL     1      20.980   1.925  51.496  1.00  0.00     0.279 C 
HETATM   16  C20 UNL     1      21.633   0.481  51.333  1.00  0.00     0.094 C 
HETATM   17  H19 UNL     1      22.569   2.716  50.621  1.00  0.00     0.319 HD
ENDROOT
BRANCH  13  18
HETATM   18  N3  UNL     1      25.055   6.061  49.097  1.00  0.00    -0.341 N 
HETATM   19  H14 UNL     1      24.846   5.598  48.160  1.00  0.00     0.167 HD
BRANCH  18  20
HETATM   20  C13 UNL     1      26.099   7.010  49.224  1.00  0.00     0.035 A 
HETATM   21  C14 UNL     1      26.109   8.062  50.104  1.00  0.00     0.029 A 
HETATM   22  C15 UNL     1      27.143   8.972  50.199  1.00  0.00     0.004 A 
HETATM   23  C16 UNL     1      28.223   8.829  49.375  1.00  0.00     0.024 A 
HETATM   24  C17 UNL     1      28.238   7.781  48.483  1.00  0.00     0.036 A 
HETATM   25 CL1  UNL     1      29.600   7.562  47.412  1.00  0.00    -0.084 Cl
HETATM   26  C18 UNL     1      27.191   6.875  48.400  1.00  0.00     0.053 A 
ENDBRANCH  18  20
ENDBRANCH  13  18
BRANCH   1  27
HETATM   27  O1  UNL     1      21.441  -0.490  53.580  1.00  0.00    -0.360 OA
HETATM   28  C1  UNL     1      21.960  -1.094  54.748  1.00  0.00     0.209 C 
ENDBRANCH   1  27
TORSDOF 3
ENDMDL
MODEL 7
REMARK VINA RESULT:      -7.9      6.571      9.026
REMARK  3 active torsions:
REMARK  status: ('A' for Active; 'I' for Inactive)
REMARK    1  A    between atoms: O1_2  and  C2_3 
REMARK    2  A    between atoms: C12_15  and  N3_16 
REMARK    3  A    between atoms: N3_16  and  C13_17 
ROOT
HETATM    1  C2  UNL     1      29.330   9.324  47.986  1.00  0.00     0.047 C 
HETATM    2  C3  UNL     1      29.096   8.399  47.082  1.00  0.00     0.032 C 
HETATM    3  C4  UNL     1      28.693   7.053  47.401  1.00  0.00    -0.002 C 
HETATM    4  C5  UNL     1      28.384   5.994  48.075  1.00  0.00    -0.026 C 
HETATM    5  C6  UNL     1      27.977   4.653  48.549  1.00  0.00     0.032 C 
HETATM    6  C7  UNL     1      26.859   4.794  49.585  1.00  0.00     0.046 C 
HETATM    7  C8  UNL     1      25.895   5.868  49.331  1.00  0.00    -0.012 C 
HETATM    8  C9  UNL     1      25.566   6.953  48.599  1.00  0.00     0.042 C 
HETATM    9  C10 UNL     1      25.742   8.396  49.144  1.00  0.00     0.366 C 
HETATM   10  N1  UNL     1      24.961   8.581  50.337  1.00  0.00    -0.243 NA
HETATM   11  C11 UNL     1      23.896   7.887  50.694  1.00  0.00     0.232 C 
HETATM   12  N2  UNL     1      23.927   6.448  50.882  1.00  0.00    -0.224 NA
HETATM   13  C12 UNL     1      24.860   5.640  50.388  1.00  0.00     0.135 C 
HETATM   14  N4  UNL     1      27.095   8.587  49.363  1.00  0.00     0.112 N 
HETATM   15  C19 UNL     1      27.764   9.738  49.814  1.00  0.00     0.279 C 
HETATM   16  C20 UNL     1      29.274   9.352  49.480  1.00  0.00     0.094 C 
HETATM   17  H19 UNL     1      27.369   7.824  50.124  1.00  0.00     0.319 HD
ENDROOT
BRANCH  13  18
HETATM   18  N3  UNL     1      24.743   4.379  51.088  1.00  0.00    -0.341 N 
HETATM   19  H14 UNL     1      25.439   4.288  51.891  1.00  0.00     0.167 HD
BRANCH  18  20
HETATM   20  C13 UNL     1      23.837   3.332  50.787  1.00  0.00     0.035 A 
HETATM   21  C14 UNL     1      23.306   2.458  51.701  1.00  0.00     0.029 A 
HETATM   22  C15 UNL     1      22.428   1.446  51.372  1.00  0.00     0.004 A 
HETATM   23  C16 UNL     1      22.057   1.294  50.066  1.00  0.00     0.024 A 
HETATM   24  C17 UNL     1      22.575   2.159  49.129  1.00  0.00     0.036 A 
HETATM   25 CL1  UNL     1      22.127   1.999  47.448  1.00  0.00    -0.084 Cl
HETATM   26  C18 UNL     1      23.458   3.172  49.475  1.00  0.00     0.053 A 
ENDBRANCH  18  20
ENDBRANCH  13  18
BRANCH   1  27
HETATM   27  O1  UNL     1      29.702  10.508  47.356  1.00  0.00    -0.360 OA
HETATM   28  C1  UNL     1      30.885  11.208  47.685  1.00  0.00     0.209 C 
ENDBRANCH   1  27
TORSDOF 3
ENDMDL
MODEL 8
REMARK VINA RESULT:      -7.5      1.773      2.326
REMARK  3 active torsions:
REMARK  status: ('A' for Active; 'I' for Inactive)
REMARK    1  A    between atoms: O1_2  and  C2_3 
REMARK    2  A    between atoms: C12_15  and  N3_16 
REMARK    3  A    between atoms: N3_16  and  C13_17 
ROOT
HETATM    1  C2  UNL     1      24.555   3.805  51.036  1.00  0.00     0.047 C 
HETATM    2  C3  UNL     1      25.020   2.580  51.142  1.00  0.00     0.032 C 
HETATM    3  C4  UNL     1      24.408   1.560  51.955  1.00  0.00    -0.002 C 
HETATM    4  C5  UNL     1      23.609   0.966  52.779  1.00  0.00    -0.026 C 
HETATM    5  C6  UNL     1      22.876   0.023  53.652  1.00  0.00     0.032 C 
HETATM    6  C7  UNL     1      21.380   0.084  53.328  1.00  0.00     0.046 C 
HETATM    7  C8  UNL     1      21.046   0.274  51.915  1.00  0.00    -0.012 C 
HETATM    8  C9  UNL     1      21.485   0.548  50.669  1.00  0.00     0.042 C 
HETATM    9  C10 UNL     1      21.300   1.948  50.021  1.00  0.00     0.366 C 
HETATM   10  N1  UNL     1      19.904   2.281  49.938  1.00  0.00    -0.243 NA
HETATM   11  C11 UNL     1      18.893   1.431  49.928  1.00  0.00     0.232 C 
HETATM   12  N2  UNL     1      18.651   0.491  51.006  1.00  0.00    -0.224 NA
HETATM   13  C12 UNL     1      19.558   0.117  51.903  1.00  0.00     0.135 C 
HETATM   14  N4  UNL     1      22.014   2.850  50.791  1.00  0.00     0.112 N 
HETATM   15  C19 UNL     1      22.191   4.231  50.597  1.00  0.00     0.279 C 
HETATM   16  C20 UNL     1      23.379   4.522  51.618  1.00  0.00     0.094 C 
HETATM   17  H19 UNL     1      21.543   2.797  51.798  1.00  0.00     0.319 HD
ENDROOT
BRANCH  13  18
HETATM   18  N3  UNL     1      18.845  -0.518  52.990  1.00  0.00    -0.341 N 
HETATM   19  H14 UNL     1      19.286  -0.323  53.941  1.00  0.00     0.167 HD
BRANCH  18  20
HETATM   20  C13 UNL     1      17.690  -1.331  52.875  1.00  0.00     0.035 A 
HETATM   21  C14 UNL     1      16.489  -0.929  52.349  1.00  0.00     0.029 A 
HETATM   22  C15 UNL     1      15.382  -1.747  52.255  1.00  0.00     0.004 A 
HETATM   23  C16 UNL     1      15.473  -3.033  52.708  1.00  0.00     0.024 A 
HETATM   24  C17 UNL     1      16.667  -3.461  53.241  1.00  0.00     0.036 A 
HETATM   25 CL1  UNL     1      16.826  -5.097  53.832  1.00  0.00    -0.084 Cl
HETATM   26  C18 UNL     1      17.772  -2.626  53.328  1.00  0.00     0.053 A 
ENDBRANCH  18  20
ENDBRANCH  13  18
BRANCH   1  27
HETATM   27  O1  UNL     1      25.372   4.541  50.183  1.00  0.00    -0.360 OA
HETATM   28  C1  UNL     1      25.299   5.949  50.084  1.00  0.00     0.209 C 
ENDBRANCH   1  27
TORSDOF 3
ENDMDL
MODEL 9
REMARK VINA RESULT:      -7.5      4.469      6.622
REMARK  3 active torsions:
REMARK  status: ('A' for Active; 'I' for Inactive)
REMARK    1  A    between atoms: O1_2  and  C2_3 
REMARK    2  A    between atoms: C12_15  and  N3_16 
REMARK    3  A    between atoms: N3_16  and  C13_17 
ROOT
HETATM    1  C2  UNL     1      23.378   6.913  47.459  1.00  0.00     0.047 C 
HETATM    2  C3  UNL     1      24.406   6.730  48.258  1.00  0.00     0.032 C 
HETATM    3  C4  UNL     1      24.299   6.183  49.586  1.00  0.00    -0.002 C 
HETATM    4  C5  UNL     1      23.798   5.705  50.677  1.00  0.00    -0.026 C 
HETATM    5  C6  UNL     1      23.539   5.134  52.017  1.00  0.00     0.032 C 
HETATM    6  C7  UNL     1      22.641   3.901  51.882  1.00  0.00     0.046 C 
HETATM    7  C8  UNL     1      22.885   3.067  50.703  1.00  0.00    -0.012 C 
HETATM    8  C9  UNL     1      23.520   2.926  49.521  1.00  0.00     0.042 C 
HETATM    9  C10 UNL     1      22.792   3.140  48.166  1.00  0.00     0.366 C 
HETATM   10  N1  UNL     1      21.691   2.224  48.037  1.00  0.00    -0.243 NA
HETATM   11  C11 UNL     1      21.554   1.069  48.662  1.00  0.00     0.232 C 
HETATM   12  N2  UNL     1      21.533   0.961  50.110  1.00  0.00    -0.224 NA
HETATM   13  C12 UNL     1      21.999   1.885  50.944  1.00  0.00     0.135 C 
HETATM   14  N4  UNL     1      22.386   4.463  48.127  1.00  0.00     0.112 N 
HETATM   15  C19 UNL     1      21.723   5.153  47.097  1.00  0.00     0.279 C 
HETATM   16  C20 UNL     1      21.909   6.659  47.584  1.00  0.00     0.094 C 
HETATM   17  H19 UNL     1      21.691   4.571  48.988  1.00  0.00     0.319 HD
ENDROOT
BRANCH  13  18
HETATM   18  N3  UNL     1      21.472   1.577  52.256  1.00  0.00    -0.341 N 
HETATM   19  H14 UNL     1      20.620   2.167  52.506  1.00  0.00     0.167 HD
BRANCH  18  20
HETATM   20  C13 UNL     1      21.986   0.619  53.164  1.00  0.00     0.035 A 
HETATM   21  C14 UNL     1      21.247  -0.066  54.094  1.00  0.00     0.029 A 
HETATM   22  C15 UNL     1      21.783  -0.992  54.967  1.00  0.00     0.004 A 
HETATM   23  C16 UNL     1      23.123  -1.249  54.913  1.00  0.00     0.024 A 
HETATM   24  C17 UNL     1      23.888  -0.574  53.989  1.00  0.00     0.036 A 
HETATM   25 CL1  UNL     1      25.605  -0.874  53.887  1.00  0.00    -0.084 Cl
HETATM   26  C18 UNL     1      23.335   0.353  53.117  1.00  0.00     0.053 A 
ENDBRANCH  18  20
ENDBRANCH  13  18
BRANCH   1  27
HETATM   27  O1  UNL     1      23.814   7.458  46.255  1.00  0.00    -0.360 OA
HETATM   28  C1  UNL     1      23.160   8.543  45.628  1.00  0.00     0.209 C 
ENDBRANCH   1  27
TORSDOF 3
ENDMDL
