MODEL 1
REMARK VINA RESULT:      -7.9      0.000      0.000
REMARK  7 active torsions:
REMARK  status: ('A' for Active; 'I' for Inactive)
REMARK    1  A    between atoms: C5_5  and  C6_6 
REMARK    2  A    between atoms: C6_6  and  N1_7 
REMARK    3  A    between atoms: C6_6  and  C7_8 
REMARK    4  A    between atoms: C7_8  and  O1_9 
REMARK    5  A    between atoms: C7_8  and  C8_10 
REMARK    6  A    between atoms: C8_10  and  C9_11 
REMARK    7  A    between atoms: C14_17  and  O2_18 
ROOT
HETATM    1  C9  UNL     1      22.596   0.905  52.892  1.00  0.00    -0.047 A 
HETATM    2  C10 UNL     1      21.596   1.333  52.018  1.00  0.00     0.009 A 
HETATM    3  C11 UNL     1      20.317   0.758  52.102  1.00  0.00     0.026 A 
HETATM    4  C12 UNL     1      20.205  -0.200  53.082  1.00  0.00     0.077 A 
HETATM    5  C13 UNL     1      18.922  -0.831  53.209  1.00  0.00     0.102 C 
HETATM    6  N2  UNL     1      17.882  -1.321  53.311  1.00  0.00    -0.191 NA
HETATM    7  C14 UNL     1      21.151  -0.657  53.968  1.00  0.00     0.086 A 
HETATM    8  C15 UNL     1      22.384  -0.069  53.850  1.00  0.00     0.045 A 
ENDROOT
BRANCH   7   9
HETATM    9  O2  UNL     1      20.970  -1.627  54.937  1.00  0.00    -0.359 OA
HETATM   10  H13 UNL     1      19.983  -1.793  55.180  1.00  0.00     0.217 HD
ENDBRANCH   7   9
BRANCH   1  11
HETATM   11  C8  UNL     1      23.759   1.658  52.561  1.00  0.00     0.140 C 
BRANCH  11  12
HETATM   12  C7  UNL     1      24.958   2.140  52.595  1.00  0.00     0.072 C 
BRANCH  12  13
HETATM   13  C6  UNL     1      26.372   2.506  52.506  1.00  0.00     0.137 C 
BRANCH  13  14
HETATM   14  C5  UNL     1      27.275   1.366  52.819  1.00  0.00    -0.034 A 
HETATM   15  C4  UNL     1      27.028   0.023  52.617  1.00  0.00     0.010 A 
HETATM   16  C3  UNL     1      27.953  -0.941  52.954  1.00  0.00     0.007 A 
HETATM   17  C2  UNL     1      29.180  -0.602  53.514  1.00  0.00    -0.062 A 
HETATM   18  C1  UNL     1      30.126  -1.684  53.854  1.00  0.00     0.048 C 
HETATM   19  C17 UNL     1      29.429   0.751  53.718  1.00  0.00     0.007 A 
HETATM   20  C16 UNL     1      28.490   1.716  53.376  1.00  0.00     0.010 A 
ENDBRANCH  13  14
BRANCH  13  21
HETATM   21  N1  UNL     1      26.651   3.099  51.240  1.00  0.00    -0.420 N 
HETATM   22  H7  UNL     1      26.473   2.527  50.412  1.00  0.00     0.150 HD
HETATM   23  H8  UNL     1      27.545   3.622  51.194  1.00  0.00     0.150 HD
ENDBRANCH  13  21
ENDBRANCH  12  13
BRANCH  12  24
HETATM   24  O1  UNL     1      24.522   3.212  53.399  1.00  0.00    -0.392 OA
HETATM   25  H9  UNL     1      24.522   4.171  53.021  1.00  0.00     0.210 HD
ENDBRANCH  12  24
ENDBRANCH  11  12
ENDBRANCH   1  11
TORSDOF 7
ENDMDL
MODEL 2
REMARK VINA RESULT:      -7.6      3.992      6.956
REMARK  7 active torsions:
REMARK  status: ('A' for Active; 'I' for Inactive)
REMARK    1  A    between atoms: C5_5  and  C6_6 
REMARK    2  A    between atoms: C6_6  and  N1_7 
REMARK    3  A    between atoms: C6_6  and  C7_8 
REMARK    4  A    between atoms: C7_8  and  O1_9 
REMARK    5  A    between atoms: C7_8  and  C8_10 
REMARK    6  A    between atoms: C8_10  and  C9_11 
REMARK    7  A    between atoms: C14_17  and  O2_18 
ROOT
HETATM    1  C9  UNL     1      26.434   1.187  52.267  1.00  0.00    -0.047 A 
HETATM    2  C10 UNL     1      27.565   1.890  52.683  1.00  0.00     0.009 A 
HETATM    3  C11 UNL     1      28.661   1.183  53.204  1.00  0.00     0.026 A 
HETATM    4  C12 UNL     1      28.473  -0.180  53.240  1.00  0.00     0.077 A 
HETATM    5  C13 UNL     1      29.557  -0.955  53.773  1.00  0.00     0.102 C 
HETATM    6  N2  UNL     1      30.440  -1.570  54.190  1.00  0.00    -0.191 NA
HETATM    7  C14 UNL     1      27.387  -0.921  52.844  1.00  0.00     0.086 A 
HETATM    8  C15 UNL     1      26.341  -0.191  52.342  1.00  0.00     0.045 A 
ENDROOT
BRANCH   7   9
HETATM    9  O2  UNL     1      27.264  -2.297  52.905  1.00  0.00    -0.359 OA
HETATM   10  H13 UNL     1      26.384  -2.619  53.331  1.00  0.00     0.217 HD
ENDBRANCH   7   9
BRANCH   1  11
HETATM   11  C8  UNL     1      25.510   2.166  51.801  1.00  0.00     0.140 C 
BRANCH  11  12
HETATM   12  C7  UNL     1      24.995   3.145  51.133  1.00  0.00     0.072 C 
BRANCH  12  13
HETATM   13  C6  UNL     1      24.490   4.147  50.193  1.00  0.00     0.137 C 
BRANCH  13  14
HETATM   14  C5  UNL     1      25.584   4.905  49.530  1.00  0.00    -0.034 A 
HETATM   15  C4  UNL     1      25.582   6.239  49.172  1.00  0.00     0.010 A 
HETATM   16  C3  UNL     1      26.666   6.825  48.557  1.00  0.00     0.007 A 
HETATM   17  C2  UNL     1      27.815   6.097  48.269  1.00  0.00    -0.062 A 
HETATM   18  C1  UNL     1      28.941   6.786  47.606  1.00  0.00     0.048 C 
HETATM   19  C17 UNL     1      27.819   4.754  48.629  1.00  0.00     0.007 A 
HETATM   20  C16 UNL     1      26.721   4.171  49.247  1.00  0.00     0.010 A 
ENDBRANCH  13  14
BRANCH  13  21
HETATM   21  N1  UNL     1      23.592   3.546  49.263  1.00  0.00    -0.420 N 
HETATM   22  H7  UNL     1      23.996   3.198  48.391  1.00  0.00     0.150 HD
HETATM   23  H8  UNL     1      22.700   4.057  49.129  1.00  0.00     0.150 HD
ENDBRANCH  13  21
ENDBRANCH  12  13
BRANCH  12  24
HETATM   24  O1  UNL     1      24.557   3.751  52.328  1.00  0.00    -0.392 OA
HETATM   25  H9  UNL     1      23.681   4.295  52.339  1.00  0.00     0.210 HD
ENDBRANCH  12  24
ENDBRANCH  11  12
ENDBRANCH   1  11
TORSDOF 7
ENDMDL
MODEL 3
REMARK VINA RESULT:      -7.6      3.928      5.295
REMARK  7 active torsions:
REMARK  status: ('A' for Active; 'I' for Inactive)
REMARK    1  A    between atoms: C5_5  and  C6_6 
REMARK    2  A    between atoms: C6_6  and  N1_7 
REMARK    3  A    between atoms: C6_6  and  C7_8 
REMARK    4  A    between atoms: C7_8  and  O1_9 
REMARK    5  A    between atoms: C7_8  and  C8_10 
REMARK    6  A    between atoms: C8_10  and  C9_11 
REMARK    7  A    between atoms: C14_17  and  O2_18 
ROOT
HETATM    1  C9  UNL     1      24.440   1.659  52.297  1.00  0.00    -0.047 A 
HETATM    2  C10 UNL     1      23.046   1.614  52.345  1.00  0.00     0.009 A 
HETATM    3  C11 UNL     1      22.417   0.648  53.148  1.00  0.00     0.026 A 
HETATM    4  C12 UNL     1      23.295  -0.171  53.819  1.00  0.00     0.077 A 
HETATM    5  C13 UNL     1      22.709  -1.185  54.647  1.00  0.00     0.102 C 
HETATM    6  N2  UNL     1      22.227  -1.988  55.323  1.00  0.00    -0.191 NA
HETATM    7  C14 UNL     1      24.669  -0.170  53.809  1.00  0.00     0.086 A 
HETATM    8  C15 UNL     1      25.241   0.788  53.013  1.00  0.00     0.045 A 
ENDROOT
BRANCH   7   9
HETATM    9  O2  UNL     1      25.496  -1.026  54.514  1.00  0.00    -0.359 OA
HETATM   10  H13 UNL     1      25.465  -0.889  55.534  1.00  0.00     0.217 HD
ENDBRANCH   7   9
BRANCH   1  11
HETATM   11  C8  UNL     1      24.771   2.722  51.408  1.00  0.00     0.140 C 
BRANCH  11  12
HETATM   12  C7  UNL     1      24.669   3.776  50.666  1.00  0.00     0.072 C 
BRANCH  12  13
HETATM   13  C6  UNL     1      24.565   4.825  49.652  1.00  0.00     0.137 C 
BRANCH  13  14
HETATM   14  C5  UNL     1      25.893   5.239  49.126  1.00  0.00    -0.034 A 
HETATM   15  C4  UNL     1      27.035   4.469  49.035  1.00  0.00     0.010 A 
HETATM   16  C3  UNL     1      28.211   4.976  48.526  1.00  0.00     0.007 A 
HETATM   17  C2  UNL     1      28.300   6.290  48.080  1.00  0.00    -0.062 A 
HETATM   18  C1  UNL     1      29.591   6.770  47.547  1.00  0.00     0.048 C 
HETATM   19  C17 UNL     1      27.150   7.066  48.171  1.00  0.00     0.007 A 
HETATM   20  C16 UNL     1      25.969   6.548  48.687  1.00  0.00     0.010 A 
ENDBRANCH  13  14
BRANCH  13  21
HETATM   21  N1  UNL     1      23.662   4.431  48.621  1.00  0.00    -0.420 N 
HETATM   22  H7  UNL     1      23.183   3.536  48.744  1.00  0.00     0.150 HD
HETATM   23  H8  UNL     1      24.013   4.581  47.658  1.00  0.00     0.150 HD
ENDBRANCH  13  21
ENDBRANCH  12  13
BRANCH  12  24
HETATM   24  O1  UNL     1      24.615   4.595  51.812  1.00  0.00    -0.392 OA
HETATM   25  H9  UNL     1      25.486   4.967  52.220  1.00  0.00     0.210 HD
ENDBRANCH  12  24
ENDBRANCH  11  12
ENDBRANCH   1  11
TORSDOF 7
ENDMDL
MODEL 4
REMARK VINA RESULT:      -7.4      3.947      7.565
REMARK  7 active torsions:
REMARK  status: ('A' for Active; 'I' for Inactive)
REMARK    1  A    between atoms: C5_5  and  C6_6 
REMARK    2  A    between atoms: C6_6  and  N1_7 
REMARK    3  A    between atoms: C6_6  and  C7_8 
REMARK    4  A    between atoms: C7_8  and  O1_9 
REMARK    5  A    between atoms: C7_8  and  C8_10 
REMARK    6  A    between atoms: C8_10  and  C9_11 
REMARK    7  A    between atoms: C14_17  and  O2_18 
ROOT
HETATM    1  C9  UNL     1      26.458   4.110  49.604  1.00  0.00    -0.047 A 
HETATM    2  C10 UNL     1      25.111   4.475  49.620  1.00  0.00     0.009 A 
HETATM    3  C11 UNL     1      24.711   5.653  48.968  1.00  0.00     0.026 A 
HETATM    4  C12 UNL     1      25.746   6.332  48.367  1.00  0.00     0.077 A 
HETATM    5  C13 UNL     1      25.399   7.550  47.694  1.00  0.00     0.102 C 
HETATM    6  N2  UNL     1      25.107   8.522  47.143  1.00  0.00    -0.191 NA
HETATM    7  C14 UNL     1      27.083   6.018  48.319  1.00  0.00     0.086 A 
HETATM    8  C15 UNL     1      27.429   4.861  48.968  1.00  0.00     0.045 A 
ENDROOT
BRANCH   7   9
HETATM    9  O2  UNL     1      28.076   6.748  47.691  1.00  0.00    -0.359 OA
HETATM   10  H13 UNL     1      28.632   7.332  48.331  1.00  0.00     0.217 HD
ENDBRANCH   7   9
BRANCH   1  11
HETATM   11  C8  UNL     1      26.546   2.893  50.341  1.00  0.00     0.140 C 
BRANCH  11  12
HETATM   12  C7  UNL     1      26.483   2.041  51.310  1.00  0.00     0.072 C 
BRANCH  12  13
HETATM   13  C6  UNL     1      26.249   0.976  52.286  1.00  0.00     0.137 C 
BRANCH  13  14
HETATM   14  C5  UNL     1      24.819   0.871  52.679  1.00  0.00    -0.034 A 
HETATM   15  C4  UNL     1      23.811   1.780  52.425  1.00  0.00     0.010 A 
HETATM   16  C3  UNL     1      22.518   1.564  52.847  1.00  0.00     0.007 A 
HETATM   17  C2  UNL     1      22.168   0.416  53.550  1.00  0.00    -0.062 A 
HETATM   18  C1  UNL     1      20.764   0.247  53.976  1.00  0.00     0.048 C 
HETATM   19  C17 UNL     1      23.182  -0.500  53.807  1.00  0.00     0.007 A 
HETATM   20  C16 UNL     1      24.484  -0.274  53.378  1.00  0.00     0.010 A 
ENDBRANCH  13  14
BRANCH  13  21
HETATM   21  N1  UNL     1      26.783  -0.258  51.811  1.00  0.00    -0.420 N 
HETATM   22  H7  UNL     1      27.367  -0.789  52.460  1.00  0.00     0.150 HD
HETATM   23  H8  UNL     1      27.164  -0.224  50.848  1.00  0.00     0.150 HD
ENDBRANCH  13  21
ENDBRANCH  12  13
BRANCH  12  24
HETATM   24  O1  UNL     1      27.497   2.731  52.004  1.00  0.00    -0.392 OA
HETATM   25  H9  UNL     1      27.403   2.903  53.016  1.00  0.00     0.210 HD
ENDBRANCH  12  24
ENDBRANCH  11  12
ENDBRANCH   1  11
TORSDOF 7
ENDMDL
MODEL 5
REMARK VINA RESULT:      -7.4      3.757      7.170
REMARK  7 active torsions:
REMARK  status: ('A' for Active; 'I' for Inactive)
REMARK    1  A    between atoms: C5_5  and  C6_6 
REMARK    2  A    between atoms: C6_6  and  N1_7 
REMARK    3  A    between atoms: C6_6  and  C7_8 
REMARK    4  A    between atoms: C7_8  and  O1_9 
REMARK    5  A    between atoms: C7_8  and  C8_10 
REMARK    6  A    between atoms: C8_10  and  C9_11 
REMARK    7  A    between atoms: C14_17  and  O2_18 
ROOT
HETATM    1  C9  UNL     1      25.778   4.527  49.797  1.00  0.00    -0.047 A 
HETATM    2  C10 UNL     1      26.948   4.007  49.242  1.00  0.00     0.009 A 
HETATM    3  C11 UNL     1      27.817   4.863  48.546  1.00  0.00     0.026 A 
HETATM    4  C12 UNL     1      27.385   6.168  48.495  1.00  0.00     0.077 A 
HETATM    5  C13 UNL     1      28.228   7.088  47.786  1.00  0.00     0.102 C 
HETATM    6  N2  UNL     1      28.921   7.822  47.226  1.00  0.00    -0.191 NA
HETATM    7  C14 UNL     1      26.249   6.732  49.023  1.00  0.00     0.086 A 
HETATM    8  C15 UNL     1      25.430   5.861  49.694  1.00  0.00     0.045 A 
ENDROOT
BRANCH   7   9
HETATM    9  O2  UNL     1      25.874   8.061  48.937  1.00  0.00    -0.359 OA
HETATM   10  H13 UNL     1      25.008   8.284  49.447  1.00  0.00     0.217 HD
ENDBRANCH   7   9
BRANCH   1  11
HETATM   11  C8  UNL     1      25.117   3.431  50.423  1.00  0.00     0.140 C 
BRANCH  11  12
HETATM   12  C7  UNL     1      24.877   2.427  51.201  1.00  0.00     0.072 C 
BRANCH  12  13
HETATM   13  C6  UNL     1      24.805   1.211  52.011  1.00  0.00     0.137 C 
BRANCH  13  14
HETATM   14  C5  UNL     1      26.144   0.756  52.472  1.00  0.00    -0.034 A 
HETATM   15  C4  UNL     1      27.207   1.546  52.865  1.00  0.00     0.010 A 
HETATM   16  C3  UNL     1      28.404   0.998  53.272  1.00  0.00     0.007 A 
HETATM   17  C2  UNL     1      28.595  -0.380  53.306  1.00  0.00    -0.062 A 
HETATM   18  C1  UNL     1      29.902  -0.902  53.751  1.00  0.00     0.048 C 
HETATM   19  C17 UNL     1      27.525  -1.175  52.911  1.00  0.00     0.007 A 
HETATM   20  C16 UNL     1      26.322  -0.614  52.501  1.00  0.00     0.010 A 
ENDBRANCH  13  14
BRANCH  13  21
HETATM   21  N1  UNL     1      23.882   1.384  53.084  1.00  0.00    -0.420 N 
HETATM   22  H7  UNL     1      24.267   1.370  54.031  1.00  0.00     0.150 HD
HETATM   23  H8  UNL     1      23.002   0.845  52.989  1.00  0.00     0.150 HD
ENDBRANCH  13  21
ENDBRANCH  12  13
BRANCH  12  24
HETATM   24  O1  UNL     1      23.639   2.990  51.571  1.00  0.00    -0.392 OA
HETATM   25  H9  UNL     1      23.605   3.740  52.277  1.00  0.00     0.210 HD
ENDBRANCH  12  24
ENDBRANCH  11  12
ENDBRANCH   1  11
TORSDOF 7
ENDMDL
MODEL 6
REMARK VINA RESULT:      -7.4      2.612      8.016
REMARK  7 active torsions:
REMARK  status: ('A' for Active; 'I' for Inactive)
REMARK    1  A    between atoms: C5_5  and  C6_6 
REMARK    2  A    between atoms: C6_6  and  N1_7 
REMARK    3  A    between atoms: C6_6  and  C7_8 
REMARK    4  A    between atoms: C7_8  and  O1_9 
REMARK    5  A    between atoms: C7_8  and  C8_10 
REMARK    6  A    between atoms: C8_10  and  C9_11 
REMARK    7  A    between atoms: C14_17  and  O2_18 
ROOT
HETATM    1  C9  UNL     1      24.264   1.519  52.279  1.00  0.00    -0.047 A 
HETATM    2  C10 UNL     1      23.590   2.015  51.162  1.00  0.00     0.009 A 
HETATM    3  C11 UNL     1      24.278   2.836  50.253  1.00  0.00     0.026 A 
HETATM    4  C12 UNL     1      25.592   3.058  50.594  1.00  0.00     0.077 A 
HETATM    5  C13 UNL     1      26.344   3.899  49.706  1.00  0.00     0.102 C 
HETATM    6  N2  UNL     1      26.943   4.565  48.978  1.00  0.00    -0.191 NA
HETATM    7  C14 UNL     1      26.303   2.596  51.675  1.00  0.00     0.086 A 
HETATM    8  C15 UNL     1      25.594   1.800  52.536  1.00  0.00     0.045 A 
ENDROOT
BRANCH   7   9
HETATM    9  O2  UNL     1      27.632   2.857  51.957  1.00  0.00    -0.359 OA
HETATM   10  H13 UNL     1      28.053   2.198  52.626  1.00  0.00     0.217 HD
ENDBRANCH   7   9
BRANCH   1  11
HETATM   11  C8  UNL     1      23.314   0.739  52.999  1.00  0.00     0.140 C 
BRANCH  11  12
HETATM   12  C7  UNL     1      22.190   0.266  53.428  1.00  0.00     0.072 C 
BRANCH  12  13
HETATM   13  C6  UNL     1      20.838  -0.062  53.879  1.00  0.00     0.137 C 
BRANCH  13  14
HETATM   14  C5  UNL     1      19.846  -0.027  52.771  1.00  0.00    -0.034 A 
HETATM   15  C4  UNL     1      19.957   0.642  51.569  1.00  0.00     0.010 A 
HETATM   16  C3  UNL     1      18.959   0.594  50.620  1.00  0.00     0.007 A 
HETATM   17  C2  UNL     1      17.793  -0.133  50.831  1.00  0.00    -0.062 A 
HETATM   18  C1  UNL     1      16.762  -0.140  49.774  1.00  0.00     0.048 C 
HETATM   19  C17 UNL     1      17.680  -0.807  52.042  1.00  0.00     0.007 A 
HETATM   20  C16 UNL     1      18.690  -0.753  52.994  1.00  0.00     0.010 A 
ENDBRANCH  13  14
BRANCH  13  21
HETATM   21  N1  UNL     1      20.836  -1.302  54.583  1.00  0.00    -0.420 N 
HETATM   22  H7  UNL     1      20.205  -2.028  54.237  1.00  0.00     0.150 HD
HETATM   23  H8  UNL     1      20.837  -1.215  55.615  1.00  0.00     0.150 HD
ENDBRANCH  13  21
ENDBRANCH  12  13
BRANCH  12  24
HETATM   24  O1  UNL     1      22.779  -1.001  53.619  1.00  0.00    -0.392 OA
HETATM   25  H9  UNL     1      23.799  -1.114  53.520  1.00  0.00     0.210 HD
ENDBRANCH  12  24
ENDBRANCH  11  12
ENDBRANCH   1  11
TORSDOF 7
ENDMDL
MODEL 7
REMARK VINA RESULT:      -7.4      4.555      7.861
REMARK  7 active torsions:
REMARK  status: ('A' for Active; 'I' for Inactive)
REMARK    1  A    between atoms: C5_5  and  C6_6 
REMARK    2  A    between atoms: C6_6  and  N1_7 
REMARK    3  A    between atoms: C6_6  and  C7_8 
REMARK    4  A    between atoms: C7_8  and  O1_9 
REMARK    5  A    between atoms: C7_8  and  C8_10 
REMARK    6  A    between atoms: C8_10  and  C9_11 
REMARK    7  A    between atoms: C14_17  and  O2_18 
ROOT
HETATM    1  C9  UNL     1      26.895   4.954  49.019  1.00  0.00    -0.047 A 
HETATM    2  C10 UNL     1      25.920   5.936  48.832  1.00  0.00     0.009 A 
HETATM    3  C11 UNL     1      26.258   7.121  48.159  1.00  0.00     0.026 A 
HETATM    4  C12 UNL     1      27.570   7.168  47.748  1.00  0.00     0.077 A 
HETATM    5  C13 UNL     1      27.978   8.362  47.063  1.00  0.00     0.102 C 
HETATM    6  N2  UNL     1      28.290   9.320  46.500  1.00  0.00    -0.191 NA
HETATM    7  C14 UNL     1      28.567   6.235  47.903  1.00  0.00     0.086 A 
HETATM    8  C15 UNL     1      28.193   5.095  48.566  1.00  0.00     0.045 A 
ENDROOT
BRANCH   7   9
HETATM    9  O2  UNL     1      29.873   6.346  47.461  1.00  0.00    -0.359 OA
HETATM   10  H13 UNL     1      30.065   5.823  46.595  1.00  0.00     0.217 HD
ENDBRANCH   7   9
BRANCH   1  11
HETATM   11  C8  UNL     1      26.257   3.894  49.727  1.00  0.00     0.140 C 
BRANCH  11  12
HETATM   12  C7  UNL     1      25.779   3.178  50.690  1.00  0.00     0.072 C 
BRANCH  12  13
HETATM   13  C6  UNL     1      25.429   2.416  51.889  1.00  0.00     0.137 C 
BRANCH  13  14
HETATM   14  C5  UNL     1      26.570   1.612  52.404  1.00  0.00    -0.034 A 
HETATM   15  C4  UNL     1      27.738   2.083  52.970  1.00  0.00     0.010 A 
HETATM   16  C3  UNL     1      28.725   1.228  53.408  1.00  0.00     0.007 A 
HETATM   17  C2  UNL     1      28.587  -0.152  53.301  1.00  0.00    -0.062 A 
HETATM   18  C1  UNL     1      29.684  -1.012  53.790  1.00  0.00     0.048 C 
HETATM   19  C17 UNL     1      27.411  -0.627  52.732  1.00  0.00     0.007 A 
HETATM   20  C16 UNL     1      26.422   0.243  52.291  1.00  0.00     0.010 A 
ENDBRANCH  13  14
BRANCH  13  21
HETATM   21  N1  UNL     1      24.871   3.278  52.879  1.00  0.00    -0.420 N 
HETATM   22  H7  UNL     1      24.805   2.908  53.829  1.00  0.00     0.150 HD
HETATM   23  H8  UNL     1      24.023   3.793  52.577  1.00  0.00     0.150 HD
ENDBRANCH  13  21
ENDBRANCH  12  13
BRANCH  12  24
HETATM   24  O1  UNL     1      24.619   2.909  49.935  1.00  0.00    -0.392 OA
HETATM   25  H9  UNL     1      23.761   2.588  50.407  1.00  0.00     0.210 HD
ENDBRANCH  12  24
ENDBRANCH  11  12
ENDBRANCH   1  11
TORSDOF 7
ENDMDL
MODEL 8
REMARK VINA RESULT:      -7.3      2.373      7.559
REMARK  7 active torsions:
REMARK  status: ('A' for Active; 'I' for Inactive)
REMARK    1  A    between atoms: C5_5  and  C6_6 
REMARK    2  A    between atoms: C6_6  and  N1_7 
REMARK    3  A    between atoms: C6_6  and  C7_8 
REMARK    4  A    between atoms: C7_8  and  O1_9 
REMARK    5  A    between atoms: C7_8  and  C8_10 
REMARK    6  A    between atoms: C8_10  and  C9_11 
REMARK    7  A    between atoms: C14_17  and  O2_18 
ROOT
HETATM    1  C9  UNL     1      25.630   1.108  52.288  1.00  0.00    -0.047 A 
HETATM    2  C10 UNL     1      25.648  -0.268  52.521  1.00  0.00     0.009 A 
HETATM    3  C11 UNL     1      26.835  -0.874  52.964  1.00  0.00     0.026 A 
HETATM    4  C12 UNL     1      27.881   0.006  53.120  1.00  0.00     0.077 A 
HETATM    5  C13 UNL     1      29.124  -0.559  53.561  1.00  0.00     0.102 C 
HETATM    6  N2  UNL     1      30.115  -1.022  53.930  1.00  0.00    -0.191 NA
HETATM    7  C14 UNL     1      27.918   1.363  52.908  1.00  0.00     0.086 A 
HETATM    8  C15 UNL     1      26.739   1.913  52.476  1.00  0.00     0.045 A 
ENDROOT
BRANCH   7   9
HETATM    9  O2  UNL     1      29.010   2.193  53.089  1.00  0.00    -0.359 OA
HETATM   10  H13 UNL     1      28.915   3.110  52.631  1.00  0.00     0.217 HD
ENDBRANCH   7   9
BRANCH   1  11
HETATM   11  C8  UNL     1      24.310   1.418  51.850  1.00  0.00     0.140 C 
BRANCH  11  12
HETATM   12  C7  UNL     1      23.101   1.873  51.830  1.00  0.00     0.072 C 
BRANCH  12  13
HETATM   13  C6  UNL     1      21.682   2.202  51.691  1.00  0.00     0.137 C 
BRANCH  13  14
HETATM   14  C5  UNL     1      20.797   1.130  52.219  1.00  0.00    -0.034 A 
HETATM   15  C4  UNL     1      21.017   0.329  53.322  1.00  0.00     0.010 A 
HETATM   16  C3  UNL     1      20.113  -0.636  53.707  1.00  0.00     0.007 A 
HETATM   17  C2  UNL     1      18.933  -0.847  53.001  1.00  0.00    -0.062 A 
HETATM   18  C1  UNL     1      18.008  -1.899  53.466  1.00  0.00     0.048 C 
HETATM   19  C17 UNL     1      18.711  -0.041  51.890  1.00  0.00     0.007 A 
HETATM   20  C16 UNL     1      19.629   0.929  51.507  1.00  0.00     0.010 A 
ENDBRANCH  13  14
BRANCH  13  21
HETATM   21  N1  UNL     1      21.409   3.476  52.270  1.00  0.00    -0.420 N 
HETATM   22  H7  UNL     1      21.355   4.272  51.630  1.00  0.00     0.150 HD
HETATM   23  H8  UNL     1      21.938   3.681  53.137  1.00  0.00     0.150 HD
ENDBRANCH  13  21
ENDBRANCH  12  13
BRANCH  12  24
HETATM   24  O1  UNL     1      23.503   3.015  52.552  1.00  0.00    -0.392 OA
HETATM   25  H9  UNL     1      22.843   3.795  52.691  1.00  0.00     0.210 HD
ENDBRANCH  12  24
ENDBRANCH  11  12
ENDBRANCH   1  11
TORSDOF 7
ENDMDL
MODEL 9
REMARK VINA RESULT:      -7.3      3.743      6.140
REMARK  7 active torsions:
REMARK  status: ('A' for Active; 'I' for Inactive)
REMARK    1  A    between atoms: C5_5  and  C6_6 
REMARK    2  A    between atoms: C6_6  and  N1_7 
REMARK    3  A    between atoms: C6_6  and  C7_8 
REMARK    4  A    between atoms: C7_8  and  O1_9 
REMARK    5  A    between atoms: C7_8  and  C8_10 
REMARK    6  A    between atoms: C8_10  and  C9_11 
REMARK    7  A    between atoms: C14_17  and  O2_18 
ROOT
HETATM    1  C9  UNL     1      25.162   1.695  52.610  1.00  0.00    -0.047 A 
HETATM    2  C10 UNL     1      26.145   1.429  51.655  1.00  0.00     0.009 A 
HETATM    3  C11 UNL     1      26.890   0.242  51.748  1.00  0.00     0.026 A 
HETATM    4  C12 UNL     1      26.540  -0.548  52.819  1.00  0.00     0.077 A 
HETATM    5  C13 UNL     1      27.275  -1.771  52.971  1.00  0.00     0.102 C 
HETATM    6  N2  UNL     1      27.862  -2.759  53.076  1.00  0.00    -0.191 NA
HETATM    7  C14 UNL     1      25.584  -0.337  53.783  1.00  0.00     0.086 A 
HETATM    8  C15 UNL     1      24.882   0.834  53.654  1.00  0.00     0.045 A 
ENDROOT
BRANCH   7   9
HETATM    9  O2  UNL     1      25.280  -1.179  54.838  1.00  0.00    -0.359 OA
HETATM   10  H13 UNL     1      25.036  -2.136  54.549  1.00  0.00     0.217 HD
ENDBRANCH   7   9
BRANCH   1  11
HETATM   11  C8  UNL     1      24.597   2.954  52.254  1.00  0.00     0.140 C 
BRANCH  11  12
HETATM   12  C7  UNL     1      24.230   3.980  51.559  1.00  0.00     0.072 C 
BRANCH  12  13
HETATM   13  C6  UNL     1      23.990   5.091  50.638  1.00  0.00     0.137 C 
BRANCH  13  14
HETATM   14  C5  UNL     1      25.224   5.508  49.919  1.00  0.00    -0.034 A 
HETATM   15  C4  UNL     1      25.641   6.797  49.650  1.00  0.00     0.010 A 
HETATM   16  C3  UNL     1      26.811   7.051  48.969  1.00  0.00     0.007 A 
HETATM   17  C2  UNL     1      27.628   6.018  48.522  1.00  0.00    -0.062 A 
HETATM   18  C1  UNL     1      28.868   6.360  47.796  1.00  0.00     0.048 C 
HETATM   19  C17 UNL     1      27.208   4.720  48.792  1.00  0.00     0.007 A 
HETATM   20  C16 UNL     1      26.026   4.473  49.478  1.00  0.00     0.010 A 
ENDBRANCH  13  14
BRANCH  13  21
HETATM   21  N1  UNL     1      22.916   4.779  49.755  1.00  0.00    -0.420 N 
HETATM   22  H7  UNL     1      22.108   5.406  49.770  1.00  0.00     0.150 HD
HETATM   23  H8  UNL     1      22.658   3.776  49.723  1.00  0.00     0.150 HD
ENDBRANCH  13  21
ENDBRANCH  12  13
BRANCH  12  24
HETATM   24  O1  UNL     1      23.173   4.230  52.457  1.00  0.00    -0.392 OA
HETATM   25  H9  UNL     1      22.594   3.450  52.802  1.00  0.00     0.210 HD
ENDBRANCH  12  24
ENDBRANCH  11  12
ENDBRANCH   1  11
TORSDOF 7
ENDMDL
