MODEL 1
REMARK VINA RESULT:      -8.8      0.000      0.000
REMARK  6 active torsions:
REMARK  status: ('A' for Active; 'I' for Inactive)
REMARK    1  A    between atoms: C4_5  and  N1_6 
REMARK    2  A    between atoms: N1_6  and  C5_7 
REMARK    3  A    between atoms: C7_11  and  C8_12 
REMARK    4  A    between atoms: C8_12  and  C9_13 
REMARK    5  A    between atoms: C9_13  and  C10_14 
REMARK    6  A    between atoms: C19_24  and  C20_25 
ROOT
HETATM    1  C5  UNL     1      27.512   5.500  48.576  1.00  0.00     0.725 A 
HETATM    2  N2  UNL     1      27.588   4.243  48.930  1.00  0.00    -0.073 NA
HETATM    3  C6  UNL     1      26.403   3.870  49.593  1.00  0.00     0.279 A 
HETATM    4  N3  UNL     1      26.429   3.531  50.976  1.00  0.00    -0.365 N 
HETATM    5  C7  UNL     1      24.997   3.626  51.248  1.00  0.00     0.009 C 
HETATM    6  C16 UNL     1      24.491   4.619  50.467  1.00  0.00     0.056 C 
HETATM    7  C17 UNL     1      25.623   5.166  49.687  1.00  0.00     0.100 A 
HETATM    8  N4  UNL     1      26.273   6.078  49.051  1.00  0.00    -0.064 NA
HETATM    9  H5  UNL     1      27.026   3.264  51.796  1.00  0.00     0.162 HD
ENDROOT
BRANCH   1  10
HETATM   10  N1  UNL     1      28.521   6.186  47.889  1.00  0.00    -0.188 N 
HETATM   11  H3  UNL     1      28.244   6.850  47.146  1.00  0.00     0.184 HD
BRANCH  10  12
HETATM   12  C4  UNL     1      29.900   6.011  48.166  1.00  0.00     0.050 A 
HETATM   13  C3  UNL     1      30.687   6.811  48.963  1.00  0.00     0.033 A 
HETATM   14  C2  UNL     1      32.022   6.590  49.191  1.00  0.00     0.045 A 
HETATM   15  C1  UNL     1      32.658   5.516  48.611  1.00  0.00     0.128 A 
HETATM   16  F1  UNL     1      33.963   5.284  48.822  1.00  0.00    -0.205 F 
HETATM   17  C19 UNL     1      31.932   4.669  47.799  1.00  0.00     0.046 A 
HETATM   18  C18 UNL     1      30.596   4.954  47.615  1.00  0.00     0.046 A 
BRANCH  17  19
HETATM   19  C20 UNL     1      32.585   3.500  47.155  1.00  0.00     0.389 C 
HETATM   20  F2  UNL     1      32.928   2.576  48.125  1.00  0.00    -0.209 F 
HETATM   21  F3  UNL     1      31.659   2.879  46.330  1.00  0.00    -0.209 F 
ENDBRANCH  17  19
ENDBRANCH  10  12
ENDBRANCH   1  10
BRANCH   5  22
HETATM   22  C8  UNL     1      24.138   2.845  52.206  1.00  0.00     0.061 C 
BRANCH  22  23
HETATM   23  C9  UNL     1      24.244   1.358  51.905  1.00  0.00     0.044 C 
BRANCH  23  24
HETATM   24  C10 UNL     1      23.415   0.636  52.879  1.00  0.00    -0.058 A 
HETATM   25  C11 UNL     1      22.090   1.042  52.993  1.00  0.00     0.007 A 
HETATM   26  C12 UNL     1      21.191   0.447  53.874  1.00  0.00     0.001 A 
HETATM   27  C13 UNL     1      21.612  -0.593  54.679  1.00  0.00     0.000 A 
HETATM   28  C14 UNL     1      22.924  -1.011  54.582  1.00  0.00     0.001 A 
HETATM   29  C15 UNL     1      23.789  -0.401  53.699  1.00  0.00     0.007 A 
ENDBRANCH  23  24
ENDBRANCH  22  23
ENDBRANCH   5  22
TORSDOF 6
ENDMDL
MODEL 2
REMARK VINA RESULT:      -8.7      4.306      8.822
REMARK  6 active torsions:
REMARK  status: ('A' for Active; 'I' for Inactive)
REMARK    1  A    between atoms: C4_5  and  N1_6 
REMARK    2  A    between atoms: N1_6  and  C5_7 
REMARK    3  A    between atoms: C7_11  and  C8_12 
REMARK    4  A    between atoms: C8_12  and  C9_13 
REMARK    5  A    between atoms: C9_13  and  C10_14 
REMARK    6  A    between atoms: C19_24  and  C20_25 
ROOT
HETATM    1  C5  UNL     1      25.758   3.138  50.593  1.00  0.00     0.725 A 
HETATM    2  N2  UNL     1      25.008   4.208  50.660  1.00  0.00    -0.073 NA
HETATM    3  C6  UNL     1      25.512   5.190  49.786  1.00  0.00     0.279 A 
HETATM    4  N3  UNL     1      26.059   6.399  50.302  1.00  0.00    -0.365 N 
HETATM    5  C7  UNL     1      26.765   6.845  49.104  1.00  0.00     0.009 C 
HETATM    6  C16 UNL     1      27.214   5.739  48.450  1.00  0.00     0.056 C 
HETATM    7  C17 UNL     1      26.788   4.570  49.250  1.00  0.00     0.100 A 
HETATM    8  N4  UNL     1      26.875   3.368  49.704  1.00  0.00    -0.064 NA
HETATM    9  H5  UNL     1      26.141   7.032  51.135  1.00  0.00     0.162 HD
ENDROOT
BRANCH   1  10
HETATM   10  N1  UNL     1      25.530   1.970  51.332  1.00  0.00    -0.188 N 
HETATM   11  H3  UNL     1      24.577   1.567  51.330  1.00  0.00     0.184 HD
BRANCH  10  12
HETATM   12  C4  UNL     1      26.543   1.319  52.078  1.00  0.00     0.050 A 
HETATM   13  C3  UNL     1      27.566   1.919  52.777  1.00  0.00     0.033 A 
HETATM   14  C2  UNL     1      28.522   1.231  53.481  1.00  0.00     0.045 A 
HETATM   15  C1  UNL     1      28.500  -0.145  53.521  1.00  0.00     0.128 A 
HETATM   16  F1  UNL     1      29.426  -0.835  54.204  1.00  0.00    -0.205 F 
HETATM   17  C19 UNL     1      27.503  -0.816  52.844  1.00  0.00     0.046 A 
HETATM   18  C18 UNL     1      26.578  -0.059  52.158  1.00  0.00     0.046 A 
BRANCH  17  19
HETATM   19  C20 UNL     1      27.447  -2.301  52.865  1.00  0.00     0.389 C 
HETATM   20  F2  UNL     1      26.657  -2.744  51.820  1.00  0.00    -0.209 F 
HETATM   21  F3  UNL     1      28.723  -2.792  52.630  1.00  0.00    -0.209 F 
ENDBRANCH  17  19
ENDBRANCH  10  12
ENDBRANCH   1  10
BRANCH   5  22
HETATM   22  C8  UNL     1      27.031   8.237  48.598  1.00  0.00     0.061 C 
BRANCH  22  23
HETATM   23  C9  UNL     1      27.578   9.104  49.722  1.00  0.00     0.044 C 
BRANCH  23  24
HETATM   24  C10 UNL     1      28.846   9.691  49.269  1.00  0.00    -0.058 A 
HETATM   25  C11 UNL     1      28.810  11.022  48.871  1.00  0.00     0.007 A 
HETATM   26  C12 UNL     1      29.936  11.706  48.420  1.00  0.00     0.001 A 
HETATM   27  C13 UNL     1      31.151  11.053  48.358  1.00  0.00     0.000 A 
HETATM   28  C14 UNL     1      31.208   9.731  48.748  1.00  0.00     0.001 A 
HETATM   29  C15 UNL     1      30.075   9.082  49.190  1.00  0.00     0.007 A 
ENDBRANCH  23  24
ENDBRANCH  22  23
ENDBRANCH   5  22
TORSDOF 6
ENDMDL
MODEL 3
REMARK VINA RESULT:      -8.7      3.551      8.454
REMARK  6 active torsions:
REMARK  status: ('A' for Active; 'I' for Inactive)
REMARK    1  A    between atoms: C4_5  and  N1_6 
REMARK    2  A    between atoms: N1_6  and  C5_7 
REMARK    3  A    between atoms: C7_11  and  C8_12 
REMARK    4  A    between atoms: C8_12  and  C9_13 
REMARK    5  A    between atoms: C9_13  and  C10_14 
REMARK    6  A    between atoms: C19_24  and  C20_25 
ROOT
HETATM    1  C5  UNL     1      25.547   2.300  51.345  1.00  0.00     0.725 A 
HETATM    2  N2  UNL     1      24.715   3.284  51.118  1.00  0.00    -0.073 NA
HETATM    3  C6  UNL     1      25.250   4.132  50.130  1.00  0.00     0.279 A 
HETATM    4  N3  UNL     1      25.632   5.464  50.457  1.00  0.00    -0.365 N 
HETATM    5  C7  UNL     1      26.450   5.749  49.280  1.00  0.00     0.009 C 
HETATM    6  C16 UNL     1      27.061   4.592  48.909  1.00  0.00     0.056 C 
HETATM    7  C17 UNL     1      26.627   3.554  49.870  1.00  0.00     0.100 A 
HETATM    8  N4  UNL     1      26.748   2.471  50.557  1.00  0.00    -0.064 NA
HETATM    9  H5  UNL     1      25.559   6.246  51.153  1.00  0.00     0.162 HD
ENDROOT
BRANCH   1  10
HETATM   10  N1  UNL     1      25.317   1.272  52.268  1.00  0.00    -0.188 N 
HETATM   11  H3  UNL     1      24.424   1.274  52.792  1.00  0.00     0.184 HD
BRANCH  10  12
HETATM   12  C4  UNL     1      26.249   0.234  52.515  1.00  0.00     0.050 A 
HETATM   13  C3  UNL     1      26.111  -1.094  52.177  1.00  0.00     0.033 A 
HETATM   14  C2  UNL     1      27.051  -2.056  52.446  1.00  0.00     0.045 A 
HETATM   15  C1  UNL     1      28.221  -1.723  53.093  1.00  0.00     0.128 A 
HETATM   16  F1  UNL     1      29.152  -2.650  53.366  1.00  0.00    -0.205 F 
HETATM   17  C19 UNL     1      28.429  -0.410  53.462  1.00  0.00     0.046 A 
HETATM   18  C18 UNL     1      27.441   0.501  53.159  1.00  0.00     0.046 A 
BRANCH  17  19
HETATM   19  C20 UNL     1      29.678  -0.014  54.162  1.00  0.00     0.389 C 
HETATM   20  F2  UNL     1      30.745  -0.116  53.287  1.00  0.00    -0.209 F 
HETATM   21  F3  UNL     1      29.581   1.325  54.511  1.00  0.00    -0.209 F 
ENDBRANCH  17  19
ENDBRANCH  10  12
ENDBRANCH   1  10
BRANCH   5  22
HETATM   22  C8  UNL     1      26.671   7.043  48.543  1.00  0.00     0.061 C 
BRANCH  22  23
HETATM   23  C9  UNL     1      27.867   6.913  47.613  1.00  0.00     0.044 C 
BRANCH  23  24
HETATM   24  C10 UNL     1      29.016   7.565  48.256  1.00  0.00    -0.058 A 
HETATM   25  C11 UNL     1      28.812   8.850  48.745  1.00  0.00     0.007 A 
HETATM   26  C12 UNL     1      29.811   9.584  49.378  1.00  0.00     0.001 A 
HETATM   27  C13 UNL     1      31.067   9.032  49.536  1.00  0.00     0.000 A 
HETATM   28  C14 UNL     1      31.290   7.758  49.057  1.00  0.00     0.001 A 
HETATM   29  C15 UNL     1      30.280   7.056  48.436  1.00  0.00     0.007 A 
ENDBRANCH  23  24
ENDBRANCH  22  23
ENDBRANCH   5  22
TORSDOF 6
ENDMDL
MODEL 4
REMARK VINA RESULT:      -8.7      1.628      2.267
REMARK  6 active torsions:
REMARK  status: ('A' for Active; 'I' for Inactive)
REMARK    1  A    between atoms: C4_5  and  N1_6 
REMARK    2  A    between atoms: N1_6  and  C5_7 
REMARK    3  A    between atoms: C7_11  and  C8_12 
REMARK    4  A    between atoms: C8_12  and  C9_13 
REMARK    5  A    between atoms: C9_13  and  C10_14 
REMARK    6  A    between atoms: C19_24  and  C20_25 
ROOT
HETATM    1  C5  UNL     1      27.684   5.645  48.469  1.00  0.00     0.725 A 
HETATM    2  N2  UNL     1      27.832   4.401  48.846  1.00  0.00    -0.073 NA
HETATM    3  C6  UNL     1      26.619   3.924  49.378  1.00  0.00     0.279 A 
HETATM    4  N3  UNL     1      26.521   3.593  50.759  1.00  0.00    -0.365 N 
HETATM    5  C7  UNL     1      25.065   3.559  50.871  1.00  0.00     0.009 C 
HETATM    6  C16 UNL     1      24.562   4.500  50.025  1.00  0.00     0.056 C 
HETATM    7  C17 UNL     1      25.720   5.145  49.368  1.00  0.00     0.100 A 
HETATM    8  N4  UNL     1      26.353   6.110  48.797  1.00  0.00    -0.064 NA
HETATM    9  H5  UNL     1      27.045   3.384  51.645  1.00  0.00     0.162 HD
ENDROOT
BRANCH   1  10
HETATM   10  N1  UNL     1      28.697   6.417  47.889  1.00  0.00    -0.188 N 
HETATM   11  H3  UNL     1      28.424   7.194  47.262  1.00  0.00     0.184 HD
BRANCH  10  12
HETATM   12  C4  UNL     1      30.076   6.183  48.122  1.00  0.00     0.050 A 
HETATM   13  C3  UNL     1      30.936   6.979  48.844  1.00  0.00     0.033 A 
HETATM   14  C2  UNL     1      32.265   6.699  49.033  1.00  0.00     0.045 A 
HETATM   15  C1  UNL     1      32.821   5.563  48.486  1.00  0.00     0.128 A 
HETATM   16  F1  UNL     1      34.120   5.273  48.660  1.00  0.00    -0.205 F 
HETATM   17  C19 UNL     1      32.019   4.717  47.749  1.00  0.00     0.046 A 
HETATM   18  C18 UNL     1      30.693   5.063  47.602  1.00  0.00     0.046 A 
BRANCH  17  19
HETATM   19  C20 UNL     1      32.583   3.483  47.145  1.00  0.00     0.389 C 
HETATM   20  F2  UNL     1      32.899   2.584  48.148  1.00  0.00    -0.209 F 
HETATM   21  F3  UNL     1      31.600   2.882  46.372  1.00  0.00    -0.209 F 
ENDBRANCH  17  19
ENDBRANCH  10  12
ENDBRANCH   1  10
BRANCH   5  22
HETATM   22  C8  UNL     1      24.178   2.707  51.738  1.00  0.00     0.061 C 
BRANCH  22  23
HETATM   23  C9  UNL     1      24.777   2.584  53.131  1.00  0.00     0.044 C 
BRANCH  23  24
HETATM   24  C10 UNL     1      25.696   1.438  53.133  1.00  0.00    -0.058 A 
HETATM   25  C11 UNL     1      26.915   1.618  53.776  1.00  0.00     0.007 A 
HETATM   26  C12 UNL     1      27.881   0.618  53.856  1.00  0.00     0.001 A 
HETATM   27  C13 UNL     1      27.638  -0.612  53.278  1.00  0.00     0.000 A 
HETATM   28  C14 UNL     1      26.434  -0.811  52.634  1.00  0.00     0.001 A 
HETATM   29  C15 UNL     1      25.498   0.200  52.573  1.00  0.00     0.007 A 
ENDBRANCH  23  24
ENDBRANCH  22  23
ENDBRANCH   5  22
TORSDOF 6
ENDMDL
MODEL 5
REMARK VINA RESULT:      -8.7      5.438      7.142
REMARK  6 active torsions:
REMARK  status: ('A' for Active; 'I' for Inactive)
REMARK    1  A    between atoms: C4_5  and  N1_6 
REMARK    2  A    between atoms: N1_6  and  C5_7 
REMARK    3  A    between atoms: C7_11  and  C8_12 
REMARK    4  A    between atoms: C8_12  and  C9_13 
REMARK    5  A    between atoms: C9_13  and  C10_14 
REMARK    6  A    between atoms: C19_24  and  C20_25 
ROOT
HETATM    1  C5  UNL     1      24.399   1.474  52.405  1.00  0.00     0.725 A 
HETATM    2  N2  UNL     1      23.772   0.808  53.339  1.00  0.00    -0.073 NA
HETATM    3  C6  UNL     1      22.556   0.315  52.829  1.00  0.00     0.279 A 
HETATM    4  N3  UNL     1      21.316   0.805  53.329  1.00  0.00    -0.365 N 
HETATM    5  C7  UNL     1      20.446   0.322  52.260  1.00  0.00     0.009 C 
HETATM    6  C16 UNL     1      21.150   0.373  51.096  1.00  0.00     0.056 C 
HETATM    7  C17 UNL     1      22.490   0.902  51.433  1.00  0.00     0.100 A 
HETATM    8  N4  UNL     1      23.592   1.531  51.206  1.00  0.00    -0.064 NA
HETATM    9  H5  UNL     1      20.833   1.330  54.099  1.00  0.00     0.162 HD
ENDROOT
BRANCH   1  10
HETATM   10  N1  UNL     1      25.644   2.091  52.579  1.00  0.00    -0.188 N 
HETATM   11  H3  UNL     1      25.707   3.115  52.446  1.00  0.00     0.184 HD
BRANCH  10  12
HETATM   12  C4  UNL     1      26.818   1.375  52.926  1.00  0.00     0.050 A 
HETATM   13  C3  UNL     1      28.010   1.910  53.360  1.00  0.00     0.033 A 
HETATM   14  C2  UNL     1      29.115   1.163  53.679  1.00  0.00     0.045 A 
HETATM   15  C1  UNL     1      29.079  -0.210  53.576  1.00  0.00     0.128 A 
HETATM   16  F1  UNL     1      30.151  -0.958  53.883  1.00  0.00    -0.205 F 
HETATM   17  C19 UNL     1      27.917  -0.817  53.147  1.00  0.00     0.046 A 
HETATM   18  C18 UNL     1      26.848  -0.003  52.844  1.00  0.00     0.046 A 
BRANCH  17  19
HETATM   19  C20 UNL     1      27.842  -2.296  53.023  1.00  0.00     0.389 C 
HETATM   20  F2  UNL     1      26.904  -2.627  52.062  1.00  0.00    -0.209 F 
HETATM   21  F3  UNL     1      29.064  -2.760  52.558  1.00  0.00    -0.209 F 
ENDBRANCH  17  19
ENDBRANCH  10  12
ENDBRANCH   1  10
BRANCH   5  22
HETATM   22  C8  UNL     1      19.017  -0.148  52.310  1.00  0.00     0.061 C 
BRANCH  22  23
HETATM   23  C9  UNL     1      18.802  -1.028  53.531  1.00  0.00     0.044 C 
BRANCH  23  24
HETATM   24  C10 UNL     1      17.684  -1.938  53.246  1.00  0.00    -0.058 A 
HETATM   25  C11 UNL     1      16.641  -1.425  52.483  1.00  0.00     0.007 A 
HETATM   26  C12 UNL     1      15.520  -2.174  52.136  1.00  0.00     0.001 A 
HETATM   27  C13 UNL     1      15.419  -3.485  52.557  1.00  0.00     0.000 A 
HETATM   28  C14 UNL     1      16.444  -4.014  53.315  1.00  0.00     0.001 A 
HETATM   29  C15 UNL     1      17.541  -3.245  53.642  1.00  0.00     0.007 A 
ENDBRANCH  23  24
ENDBRANCH  22  23
ENDBRANCH   5  22
TORSDOF 6
ENDMDL
MODEL 6
REMARK VINA RESULT:      -8.6      3.097      4.255
REMARK  6 active torsions:
REMARK  status: ('A' for Active; 'I' for Inactive)
REMARK    1  A    between atoms: C4_5  and  N1_6 
REMARK    2  A    between atoms: N1_6  and  C5_7 
REMARK    3  A    between atoms: C7_11  and  C8_12 
REMARK    4  A    between atoms: C8_12  and  C9_13 
REMARK    5  A    between atoms: C9_13  and  C10_14 
REMARK    6  A    between atoms: C19_24  and  C20_25 
ROOT
HETATM    1  C5  UNL     1      26.609   5.218  48.989  1.00  0.00     0.725 A 
HETATM    2  N2  UNL     1      27.222   4.087  49.221  1.00  0.00    -0.073 NA
HETATM    3  C6  UNL     1      26.460   3.315  50.118  1.00  0.00     0.279 A 
HETATM    4  N3  UNL     1      26.951   3.038  51.425  1.00  0.00    -0.365 N 
HETATM    5  C7  UNL     1      25.699   2.601  52.039  1.00  0.00     0.009 C 
HETATM    6  C16 UNL     1      24.689   3.320  51.477  1.00  0.00     0.056 C 
HETATM    7  C17 UNL     1      25.311   4.232  50.492  1.00  0.00     0.100 A 
HETATM    8  N4  UNL     1      25.406   5.306  49.788  1.00  0.00    -0.064 NA
HETATM    9  H5  UNL     1      27.789   3.028  52.057  1.00  0.00     0.162 HD
ENDROOT
BRANCH   1  10
HETATM   10  N1  UNL     1      27.094   6.215  48.134  1.00  0.00    -0.188 N 
HETATM   11  H3  UNL     1      26.842   6.167  47.132  1.00  0.00     0.184 HD
BRANCH  10  12
HETATM   12  C4  UNL     1      27.913   7.283  48.580  1.00  0.00     0.050 A 
HETATM   13  C3  UNL     1      27.495   8.431  49.214  1.00  0.00     0.033 A 
HETATM   14  C2  UNL     1      28.339   9.434  49.621  1.00  0.00     0.045 A 
HETATM   15  C1  UNL     1      29.695   9.332  49.402  1.00  0.00     0.128 A 
HETATM   16  F1  UNL     1      30.536  10.303  49.792  1.00  0.00    -0.205 F 
HETATM   17  C19 UNL     1      30.187   8.209  48.771  1.00  0.00     0.046 A 
HETATM   18  C18 UNL     1      29.280   7.244  48.391  1.00  0.00     0.046 A 
BRANCH  17  19
HETATM   19  C20 UNL     1      31.644   8.065  48.519  1.00  0.00     0.389 C 
HETATM   20  F2  UNL     1      32.097   9.166  47.815  1.00  0.00    -0.209 F 
HETATM   21  F3  UNL     1      32.305   8.077  49.738  1.00  0.00    -0.209 F 
ENDBRANCH  17  19
ENDBRANCH  10  12
ENDBRANCH   1  10
BRANCH   5  22
HETATM   22  C8  UNL     1      25.451   1.578  53.114  1.00  0.00     0.061 C 
BRANCH  22  23
HETATM   23  C9  UNL     1      25.678   0.179  52.561  1.00  0.00     0.044 C 
BRANCH  23  24
HETATM   24  C10 UNL     1      27.018  -0.261  52.972  1.00  0.00    -0.058 A 
HETATM   25  C11 UNL     1      27.382  -1.557  52.626  1.00  0.00     0.007 A 
HETATM   26  C12 UNL     1      28.620  -2.105  52.949  1.00  0.00     0.001 A 
HETATM   27  C13 UNL     1      29.541  -1.347  53.644  1.00  0.00     0.000 A 
HETATM   28  C14 UNL     1      29.199  -0.058  53.997  1.00  0.00     0.001 A 
HETATM   29  C15 UNL     1      27.965   0.456  53.662  1.00  0.00     0.007 A 
ENDBRANCH  23  24
ENDBRANCH  22  23
ENDBRANCH   5  22
TORSDOF 6
ENDMDL
MODEL 7
REMARK VINA RESULT:      -8.4      4.257      9.216
REMARK  6 active torsions:
REMARK  status: ('A' for Active; 'I' for Inactive)
REMARK    1  A    between atoms: C4_5  and  N1_6 
REMARK    2  A    between atoms: N1_6  and  C5_7 
REMARK    3  A    between atoms: C7_11  and  C8_12 
REMARK    4  A    between atoms: C8_12  and  C9_13 
REMARK    5  A    between atoms: C9_13  and  C10_14 
REMARK    6  A    between atoms: C19_24  and  C20_25 
ROOT
HETATM    1  C5  UNL     1      21.392   1.224  50.979  1.00  0.00     0.725 A 
HETATM    2  N2  UNL     1      21.384   2.475  51.361  1.00  0.00    -0.073 NA
HETATM    3  C6  UNL     1      21.749   3.298  50.279  1.00  0.00     0.279 A 
HETATM    4  N3  UNL     1      22.970   4.030  50.311  1.00  0.00    -0.365 N 
HETATM    5  C7  UNL     1      23.063   4.358  48.891  1.00  0.00     0.009 C 
HETATM    6  C16 UNL     1      22.534   3.320  48.189  1.00  0.00     0.056 C 
HETATM    7  C17 UNL     1      22.099   2.312  49.182  1.00  0.00     0.100 A 
HETATM    8  N4  UNL     1      21.840   1.124  49.607  1.00  0.00    -0.064 NA
HETATM    9  H5  UNL     1      23.754   4.389  50.909  1.00  0.00     0.162 HD
ENDROOT
BRANCH   1  10
HETATM   10  N1  UNL     1      21.069   0.146  51.812  1.00  0.00    -0.188 N 
HETATM   11  H3  UNL     1      20.192  -0.372  51.626  1.00  0.00     0.184 HD
BRANCH  10  12
HETATM   12  C4  UNL     1      21.887  -0.267  52.893  1.00  0.00     0.050 A 
HETATM   13  C3  UNL     1      21.464  -0.825  54.079  1.00  0.00     0.033 A 
HETATM   14  C2  UNL     1      22.308  -1.202  55.093  1.00  0.00     0.045 A 
HETATM   15  C1  UNL     1      23.668  -1.032  54.965  1.00  0.00     0.128 A 
HETATM   16  F1  UNL     1      24.509  -1.395  55.946  1.00  0.00    -0.205 F 
HETATM   17  C19 UNL     1      24.165  -0.478  53.803  1.00  0.00     0.046 A 
HETATM   18  C18 UNL     1      23.259  -0.123  52.828  1.00  0.00     0.046 A 
BRANCH  17  19
HETATM   19  C20 UNL     1      25.627  -0.279  53.630  1.00  0.00     0.389 C 
HETATM   20  F2  UNL     1      25.930  -0.262  52.280  1.00  0.00    -0.209 F 
HETATM   21  F3  UNL     1      25.963   0.972  54.126  1.00  0.00    -0.209 F 
ENDBRANCH  17  19
ENDBRANCH  10  12
ENDBRANCH   1  10
BRANCH   5  22
HETATM   22  C8  UNL     1      23.638   5.573  48.213  1.00  0.00     0.061 C 
BRANCH  22  23
HETATM   23  C9  UNL     1      24.478   6.370  49.198  1.00  0.00     0.044 C 
BRANCH  23  24
HETATM   24  C10 UNL     1      25.885   6.260  48.791  1.00  0.00    -0.058 A 
HETATM   25  C11 UNL     1      26.509   5.040  49.028  1.00  0.00     0.007 A 
HETATM   26  C12 UNL     1      27.838   4.795  48.692  1.00  0.00     0.001 A 
HETATM   27  C13 UNL     1      28.587   5.791  48.099  1.00  0.00     0.000 A 
HETATM   28  C14 UNL     1      27.986   7.010  47.856  1.00  0.00     0.001 A 
HETATM   29  C15 UNL     1      26.668   7.221  48.200  1.00  0.00     0.007 A 
ENDBRANCH  23  24
ENDBRANCH  22  23
ENDBRANCH   5  22
TORSDOF 6
ENDMDL
MODEL 8
REMARK VINA RESULT:      -8.4      3.543      8.860
REMARK  6 active torsions:
REMARK  status: ('A' for Active; 'I' for Inactive)
REMARK    1  A    between atoms: C4_5  and  N1_6 
REMARK    2  A    between atoms: N1_6  and  C5_7 
REMARK    3  A    between atoms: C7_11  and  C8_12 
REMARK    4  A    between atoms: C8_12  and  C9_13 
REMARK    5  A    between atoms: C9_13  and  C10_14 
REMARK    6  A    between atoms: C19_24  and  C20_25 
ROOT
HETATM    1  C5  UNL     1      23.933   4.789  51.446  1.00  0.00     0.725 A 
HETATM    2  N2  UNL     1      23.992   6.092  51.539  1.00  0.00    -0.073 NA
HETATM    3  C6  UNL     1      24.749   6.606  50.469  1.00  0.00     0.279 A 
HETATM    4  N3  UNL     1      26.002   7.236  50.712  1.00  0.00    -0.365 N 
HETATM    5  C7  UNL     1      26.526   7.209  49.349  1.00  0.00     0.009 C 
HETATM    6  C16 UNL     1      26.073   6.073  48.753  1.00  0.00     0.056 C 
HETATM    7  C17 UNL     1      25.249   5.364  49.757  1.00  0.00     0.100 A 
HETATM    8  N4  UNL     1      24.723   4.333  50.323  1.00  0.00    -0.064 NA
HETATM    9  H5  UNL     1      26.633   7.672  51.428  1.00  0.00     0.162 HD
ENDROOT
BRANCH   1  10
HETATM   10  N1  UNL     1      23.250   3.965  52.349  1.00  0.00    -0.188 N 
HETATM   11  H3  UNL     1      22.389   4.331  52.791  1.00  0.00     0.184 HD
BRANCH  10  12
HETATM   12  C4  UNL     1      23.685   2.658  52.683  1.00  0.00     0.050 A 
HETATM   13  C3  UNL     1      22.935   1.505  52.639  1.00  0.00     0.033 A 
HETATM   14  C2  UNL     1      23.414   0.265  52.978  1.00  0.00     0.045 A 
HETATM   15  C1  UNL     1      24.717   0.113  53.395  1.00  0.00     0.128 A 
HETATM   16  F1  UNL     1      25.204  -1.092  53.732  1.00  0.00    -0.205 F 
HETATM   17  C19 UNL     1      25.530   1.226  53.464  1.00  0.00     0.046 A 
HETATM   18  C18 UNL     1      24.980   2.438  53.108  1.00  0.00     0.046 A 
BRANCH  17  19
HETATM   19  C20 UNL     1      26.941   1.100  53.909  1.00  0.00     0.389 C 
HETATM   20  F2  UNL     1      27.520   2.356  53.956  1.00  0.00    -0.209 F 
HETATM   21  F3  UNL     1      26.951   0.613  55.208  1.00  0.00    -0.209 F 
ENDBRANCH  17  19
ENDBRANCH  10  12
ENDBRANCH   1  10
BRANCH   5  22
HETATM   22  C8  UNL     1      27.425   8.183  48.636  1.00  0.00     0.061 C 
BRANCH  22  23
HETATM   23  C9  UNL     1      28.237   7.459  47.574  1.00  0.00     0.044 C 
BRANCH  23  24
HETATM   24  C10 UNL     1      29.563   7.165  48.136  1.00  0.00    -0.058 A 
HETATM   25  C11 UNL     1      30.052   5.879  47.940  1.00  0.00     0.007 A 
HETATM   26  C12 UNL     1      31.292   5.462  48.416  1.00  0.00     0.001 A 
HETATM   27  C13 UNL     1      32.086   6.348  49.116  1.00  0.00     0.000 A 
HETATM   28  C14 UNL     1      31.619   7.630  49.321  1.00  0.00     0.001 A 
HETATM   29  C15 UNL     1      30.386   8.012  48.837  1.00  0.00     0.007 A 
ENDBRANCH  23  24
ENDBRANCH  22  23
ENDBRANCH   5  22
TORSDOF 6
ENDMDL
MODEL 9
REMARK VINA RESULT:      -8.3      3.671      7.943
REMARK  6 active torsions:
REMARK  status: ('A' for Active; 'I' for Inactive)
REMARK    1  A    between atoms: C4_5  and  N1_6 
REMARK    2  A    between atoms: N1_6  and  C5_7 
REMARK    3  A    between atoms: C7_11  and  C8_12 
REMARK    4  A    between atoms: C8_12  and  C9_13 
REMARK    5  A    between atoms: C9_13  and  C10_14 
REMARK    6  A    between atoms: C19_24  and  C20_25 
ROOT
HETATM    1  C5  UNL     1      24.163   1.302  52.738  1.00  0.00     0.725 A 
HETATM    2  N2  UNL     1      24.422   2.489  53.224  1.00  0.00    -0.073 NA
HETATM    3  C6  UNL     1      23.944   3.473  52.339  1.00  0.00     0.279 A 
HETATM    4  N3  UNL     1      24.854   4.328  51.655  1.00  0.00    -0.365 N 
HETATM    5  C7  UNL     1      23.946   4.835  50.630  1.00  0.00     0.009 C 
HETATM    6  C16 UNL     1      23.076   3.837  50.315  1.00  0.00     0.056 C 
HETATM    7  C17 UNL     1      23.442   2.674  51.153  1.00  0.00     0.100 A 
HETATM    8  N4  UNL     1      23.545   1.421  51.436  1.00  0.00    -0.064 NA
HETATM    9  H5  UNL     1      25.835   4.699  51.610  1.00  0.00     0.162 HD
ENDROOT
BRANCH   1  10
HETATM   10  N1  UNL     1      24.500   0.101  53.374  1.00  0.00    -0.188 N 
HETATM   11  H3  UNL     1      23.785  -0.359  53.964  1.00  0.00     0.184 HD
BRANCH  10  12
HETATM   12  C4  UNL     1      25.772  -0.511  53.246  1.00  0.00     0.050 A 
HETATM   13  C3  UNL     1      26.053  -1.702  52.616  1.00  0.00     0.033 A 
HETATM   14  C2  UNL     1      27.310  -2.245  52.527  1.00  0.00     0.045 A 
HETATM   15  C1  UNL     1      28.388  -1.597  53.086  1.00  0.00     0.128 A 
HETATM   16  F1  UNL     1      29.625  -2.113  53.009  1.00  0.00    -0.205 F 
HETATM   17  C19 UNL     1      28.183  -0.397  53.734  1.00  0.00     0.046 A 
HETATM   18  C18 UNL     1      26.894   0.088  53.784  1.00  0.00     0.046 A 
BRANCH  17  19
HETATM   19  C20 UNL     1      29.323   0.331  54.349  1.00  0.00     0.389 C 
HETATM   20  F2  UNL     1      30.402   0.307  53.484  1.00  0.00    -0.209 F 
HETATM   21  F3  UNL     1      28.966   1.663  54.498  1.00  0.00    -0.209 F 
ENDBRANCH  17  19
ENDBRANCH  10  12
ENDBRANCH   1  10
BRANCH   5  22
HETATM   22  C8  UNL     1      23.898   6.181  49.956  1.00  0.00     0.061 C 
BRANCH  22  23
HETATM   23  C9  UNL     1      24.240   6.035  48.481  1.00  0.00     0.044 C 
BRANCH  23  24
HETATM   24  C10 UNL     1      25.676   6.302  48.318  1.00  0.00    -0.058 A 
HETATM   25  C11 UNL     1      26.542   5.262  48.635  1.00  0.00     0.007 A 
HETATM   26  C12 UNL     1      27.926   5.374  48.527  1.00  0.00     0.001 A 
HETATM   27  C13 UNL     1      28.483   6.558  48.089  1.00  0.00     0.000 A 
HETATM   28  C14 UNL     1      27.639   7.603  47.769  1.00  0.00     0.001 A 
HETATM   29  C15 UNL     1      26.273   7.461  47.887  1.00  0.00     0.007 A 
ENDBRANCH  23  24
ENDBRANCH  22  23
ENDBRANCH   5  22
TORSDOF 6
ENDMDL
