MODEL 1
REMARK VINA RESULT:      -8.9      0.000      0.000
REMARK  4 active torsions:
REMARK  status: ('A' for Active; 'I' for Inactive)
REMARK    1  A    between atoms: C2_2  and  C19_23 
REMARK    2  A    between atoms: C7_7  and  N1_8 
REMARK    3  A    between atoms: N1_8  and  C8_9 
REMARK    4  A    between atoms: C11_13  and  C12_14 
ROOT
HETATM    1  N1  UNL     1      22.174   2.664  52.402  1.00  0.00    -0.188 N 
HETATM    2  H6  UNL     1      21.296   3.110  52.743  1.00  0.00     0.184 HD
ENDROOT
BRANCH   1   3
HETATM    3  C7  UNL     1      23.104   3.099  51.406  1.00  0.00     0.052 A 
HETATM    4  C6  UNL     1      23.400   2.431  50.178  1.00  0.00     0.027 A 
HETATM    5  C5  UNL     1      24.303   3.089  49.518  1.00  0.00    -0.010 A 
HETATM    6  C4  UNL     1      24.725   4.307  50.246  1.00  0.00     0.009 A 
HETATM    7  C3  UNL     1      25.668   5.256  49.992  1.00  0.00     0.019 A 
HETATM    8  C17 UNL     1      23.862   4.175  51.445  1.00  0.00    -0.044 A 
HETATM    9  C1  UNL     1      25.861   5.168  49.646  1.00  0.00     0.039 A 
HETATM   10  C2  UNL     1      26.434   4.904  48.619  1.00  0.00     0.006 A 
HETATM   11  C18 UNL     1      23.803   5.115  52.599  1.00  0.00     0.047 C 
BRANCH  10  12
HETATM   12  C19 UNL     1      27.657   5.793  48.394  1.00  0.00    -0.048 A 
HETATM   13  C20 UNL     1      27.753   7.051  48.104  1.00  0.00     0.008 A 
HETATM   14  C21 UNL     1      29.237   7.018  48.082  1.00  0.00     0.001 A 
HETATM   15  C22 UNL     1      29.120   5.707  48.385  1.00  0.00     0.008 A 
ENDBRANCH  10  12
ENDBRANCH   1   3
BRANCH   1  16
HETATM   16  C8  UNL     1      22.782   1.387  52.847  1.00  0.00     0.727 A 
HETATM   17  N2  UNL     1      22.179   0.288  53.074  1.00  0.00    -0.075 NA
HETATM   18  C9  UNL     1      22.923  -0.786  53.575  1.00  0.00     0.139 A 
HETATM   19  C10 UNL     1      24.310  -0.666  53.832  1.00  0.00     0.053 A 
HETATM   20  C11 UNL     1      24.863   0.595  53.547  1.00  0.00     0.089 A 
HETATM   21  N4  UNL     1      24.133   1.650  53.051  1.00  0.00    -0.062 NA
BRANCH  20  22
HETATM   22  C12 UNL     1      26.252   0.870  53.841  1.00  0.00     0.011 A 
HETATM   23  C13 UNL     1      26.903   1.895  53.217  1.00  0.00     0.017 A 
HETATM   24  C14 UNL     1      28.163   2.399  53.303  1.00  0.00     0.020 A 
HETATM   25  C15 UNL     1      28.925   1.646  54.274  1.00  0.00     0.116 A 
HETATM   26  N3  UNL     1      28.428   0.556  55.017  1.00  0.00    -0.272 NA
HETATM   27  C16 UNL     1      27.088   0.286  54.695  1.00  0.00     0.130 A 
ENDBRANCH  20  22
ENDBRANCH   1  16
TORSDOF 4
ENDMDL
MODEL 2
REMARK VINA RESULT:      -8.7      2.136      3.002
REMARK  4 active torsions:
REMARK  status: ('A' for Active; 'I' for Inactive)
REMARK    1  A    between atoms: C2_2  and  C19_23 
REMARK    2  A    between atoms: C7_7  and  N1_8 
REMARK    3  A    between atoms: N1_8  and  C8_9 
REMARK    4  A    between atoms: C11_13  and  C12_14 
ROOT
HETATM    1  N1  UNL     1      24.321   2.423  50.228  1.00  0.00    -0.188 N 
HETATM    2  H6  UNL     1      23.526   1.945  49.754  1.00  0.00     0.184 HD
ENDROOT
BRANCH   1   3
HETATM    3  C7  UNL     1      25.253   3.384  49.723  1.00  0.00     0.052 A 
HETATM    4  C6  UNL     1      26.643   3.163  49.476  1.00  0.00     0.027 A 
HETATM    5  C5  UNL     1      27.198   4.252  49.039  1.00  0.00    -0.010 A 
HETATM    6  C4  UNL     1      26.217   5.356  48.936  1.00  0.00     0.009 A 
HETATM    7  C3  UNL     1      26.333   6.669  48.597  1.00  0.00     0.019 A 
HETATM    8  C17 UNL     1      25.008   4.640  49.412  1.00  0.00    -0.044 A 
HETATM    9  C1  UNL     1      26.722   6.755  48.514  1.00  0.00     0.039 A 
HETATM   10  C2  UNL     1      27.875   7.007  48.267  1.00  0.00     0.006 A 
HETATM   11  C18 UNL     1      23.639   5.211  49.547  1.00  0.00     0.047 C 
BRANCH  10  12
HETATM   12  C19 UNL     1      28.116   8.508  48.108  1.00  0.00    -0.048 A 
HETATM   13  C20 UNL     1      28.394   9.422  48.982  1.00  0.00     0.008 A 
HETATM   14  C21 UNL     1      28.441  10.501  47.962  1.00  0.00     0.001 A 
HETATM   15  C22 UNL     1      28.151   9.534  47.063  1.00  0.00     0.008 A 
ENDBRANCH  10  12
ENDBRANCH   1   3
BRANCH   1  16
HETATM   16  C8  UNL     1      24.774   2.269  51.630  1.00  0.00     0.727 A 
HETATM   17  N2  UNL     1      24.548   3.063  52.601  1.00  0.00    -0.075 NA
HETATM   18  C9  UNL     1      25.140   2.786  53.837  1.00  0.00     0.139 A 
HETATM   19  C10 UNL     1      25.975   1.656  54.019  1.00  0.00     0.053 A 
HETATM   20  C11 UNL     1      26.154   0.857  52.876  1.00  0.00     0.089 A 
HETATM   21  N4  UNL     1      25.568   1.128  51.660  1.00  0.00    -0.062 NA
BRANCH  20  22
HETATM   22  C12 UNL     1      27.047  -0.280  52.908  1.00  0.00     0.011 A 
HETATM   23  C13 UNL     1      28.343  -0.132  53.312  1.00  0.00     0.017 A 
HETATM   24  C14 UNL     1      29.383  -0.995  53.468  1.00  0.00     0.020 A 
HETATM   25  C15 UNL     1      28.964  -2.332  53.113  1.00  0.00     0.116 A 
HETATM   26  N3  UNL     1      27.672  -2.682  52.675  1.00  0.00    -0.272 NA
HETATM   27  C16 UNL     1      26.828  -1.560  52.621  1.00  0.00     0.130 A 
ENDBRANCH  20  22
ENDBRANCH   1  16
TORSDOF 4
ENDMDL
MODEL 3
REMARK VINA RESULT:      -8.7      2.434      3.700
REMARK  4 active torsions:
REMARK  status: ('A' for Active; 'I' for Inactive)
REMARK    1  A    between atoms: C2_2  and  C19_23 
REMARK    2  A    between atoms: C7_7  and  N1_8 
REMARK    3  A    between atoms: N1_8  and  C8_9 
REMARK    4  A    between atoms: C11_13  and  C12_14 
ROOT
HETATM    1  N1  UNL     1      23.095   4.382  51.174  1.00  0.00    -0.188 N 
HETATM    2  H6  UNL     1      22.629   5.105  51.763  1.00  0.00     0.184 HD
ENDROOT
BRANCH   1   3
HETATM    3  C7  UNL     1      24.372   4.400  50.529  1.00  0.00     0.052 A 
HETATM    4  C6  UNL     1      25.358   3.368  50.581  1.00  0.00     0.027 A 
HETATM    5  C5  UNL     1      26.406   3.716  49.900  1.00  0.00    -0.010 A 
HETATM    6  C4  UNL     1      26.237   5.057  49.294  1.00  0.00     0.009 A 
HETATM    7  C3  UNL     1      27.065   5.854  48.565  1.00  0.00     0.019 A 
HETATM    8  C17 UNL     1      24.874   5.368  49.790  1.00  0.00    -0.044 A 
HETATM    9  C1  UNL     1      27.425   5.670  48.518  1.00  0.00     0.039 A 
HETATM   10  C2  UNL     1      28.491   5.125  48.379  1.00  0.00     0.006 A 
HETATM   11  C18 UNL     1      24.099   6.610  49.522  1.00  0.00     0.047 C 
BRANCH  10  12
HETATM   12  C19 UNL     1      29.542   6.057  47.775  1.00  0.00    -0.048 A 
HETATM   13  C20 UNL     1      30.831   5.953  47.704  1.00  0.00     0.008 A 
HETATM   14  C21 UNL     1      30.980   7.251  46.998  1.00  0.00     0.001 A 
HETATM   15  C22 UNL     1      29.634   7.344  47.081  1.00  0.00     0.008 A 
ENDBRANCH  10  12
ENDBRANCH   1   3
BRANCH   1  16
HETATM   16  C8  UNL     1      22.582   3.045  50.793  1.00  0.00     0.727 A 
HETATM   17  N2  UNL     1      22.041   2.717  49.687  1.00  0.00    -0.075 NA
HETATM   18  C9  UNL     1      21.539   1.419  49.552  1.00  0.00     0.139 A 
HETATM   19  C10 UNL     1      21.620   0.483  50.612  1.00  0.00     0.053 A 
HETATM   20  C11 UNL     1      22.235   0.959  51.783  1.00  0.00     0.089 A 
HETATM   21  N4  UNL     1      22.732   2.236  51.915  1.00  0.00    -0.062 NA
BRANCH  20  22
HETATM   22  C12 UNL     1      22.309   0.128  52.963  1.00  0.00     0.011 A 
HETATM   23  C13 UNL     1      23.517  -0.193  53.512  1.00  0.00     0.017 A 
HETATM   24  C14 UNL     1      23.894  -0.912  54.603  1.00  0.00     0.020 A 
HETATM   25  C15 UNL     1      22.722  -1.420  55.280  1.00  0.00     0.116 A 
HETATM   26  N3  UNL     1      21.393  -1.198  54.867  1.00  0.00    -0.272 NA
HETATM   27  C16 UNL     1      21.344  -0.414  53.702  1.00  0.00     0.130 A 
ENDBRANCH  20  22
ENDBRANCH   1  16
TORSDOF 4
ENDMDL
MODEL 4
REMARK VINA RESULT:      -8.7      1.444      2.224
REMARK  4 active torsions:
REMARK  status: ('A' for Active; 'I' for Inactive)
REMARK    1  A    between atoms: C2_2  and  C19_23 
REMARK    2  A    between atoms: C7_7  and  N1_8 
REMARK    3  A    between atoms: N1_8  and  C8_9 
REMARK    4  A    between atoms: C11_13  and  C12_14 
ROOT
HETATM    1  N1  UNL     1      20.802   1.465  51.439  1.00  0.00    -0.188 N 
HETATM    2  H6  UNL     1      19.882   1.453  50.950  1.00  0.00     0.184 HD
ENDROOT
BRANCH   1   3
HETATM    3  C7  UNL     1      21.923   2.338  51.275  1.00  0.00     0.052 A 
HETATM    4  C6  UNL     1      22.475   3.199  52.274  1.00  0.00     0.027 A 
HETATM    5  C5  UNL     1      23.475   3.866  51.785  1.00  0.00    -0.010 A 
HETATM    6  C4  UNL     1      23.717   3.518  50.366  1.00  0.00     0.009 A 
HETATM    7  C3  UNL     1      24.589   3.988  49.433  1.00  0.00     0.019 A 
HETATM    8  C17 UNL     1      22.635   2.519  50.183  1.00  0.00    -0.044 A 
HETATM    9  C1  UNL     1      24.817   4.284  49.596  1.00  0.00     0.039 A 
HETATM   10  C2  UNL     1      25.492   5.158  50.079  1.00  0.00     0.006 A 
HETATM   11  C18 UNL     1      22.331   1.765  48.935  1.00  0.00     0.047 C 
BRANCH  10  12
HETATM   12  C19 UNL     1      26.327   5.889  49.029  1.00  0.00    -0.048 A 
HETATM   13  C20 UNL     1      27.496   5.627  48.537  1.00  0.00     0.008 A 
HETATM   14  C21 UNL     1      27.482   6.817  47.648  1.00  0.00     0.001 A 
HETATM   15  C22 UNL     1      26.264   7.076  48.172  1.00  0.00     0.008 A 
ENDBRANCH  10  12
ENDBRANCH   1   3
BRANCH   1  16
HETATM   16  C8  UNL     1      21.280   0.555  52.507  1.00  0.00     0.727 A 
HETATM   17  N2  UNL     1      20.577  -0.006  53.409  1.00  0.00    -0.075 NA
HETATM   18  C9  UNL     1      21.231  -0.764  54.386  1.00  0.00     0.139 A 
HETATM   19  C10 UNL     1      22.641  -0.909  54.386  1.00  0.00     0.053 A 
HETATM   20  C11 UNL     1      23.309  -0.242  53.344  1.00  0.00     0.089 A 
HETATM   21  N4  UNL     1      22.665   0.501  52.382  1.00  0.00    -0.062 NA
BRANCH  20  22
HETATM   22  C12 UNL     1      24.753  -0.245  53.279  1.00  0.00     0.011 A 
HETATM   23  C13 UNL     1      25.407   0.503  52.342  1.00  0.00     0.017 A 
HETATM   24  C14 UNL     1      26.719   0.718  52.060  1.00  0.00     0.020 A 
HETATM   25  C15 UNL     1      27.545  -0.034  52.977  1.00  0.00     0.116 A 
HETATM   26  N3  UNL     1      27.057  -0.862  54.007  1.00  0.00    -0.272 NA
HETATM   27  C16 UNL     1      25.652  -0.869  54.035  1.00  0.00     0.130 A 
ENDBRANCH  20  22
ENDBRANCH   1  16
TORSDOF 4
ENDMDL
MODEL 5
REMARK VINA RESULT:      -8.5      3.342      7.289
REMARK  4 active torsions:
REMARK  status: ('A' for Active; 'I' for Inactive)
REMARK    1  A    between atoms: C2_2  and  C19_23 
REMARK    2  A    between atoms: C7_7  and  N1_8 
REMARK    3  A    between atoms: N1_8  and  C8_9 
REMARK    4  A    between atoms: C11_13  and  C12_14 
ROOT
HETATM    1  N1  UNL     1      21.878   3.098  52.284  1.00  0.00    -0.188 N 
HETATM    2  H6  UNL     1      21.681   4.004  52.759  1.00  0.00     0.184 HD
ENDROOT
BRANCH   1   3
HETATM    3  C7  UNL     1      22.888   2.119  52.546  1.00  0.00     0.052 A 
HETATM    4  C6  UNL     1      22.705   0.883  53.239  1.00  0.00     0.027 A 
HETATM    5  C5  UNL     1      23.831   0.243  53.317  1.00  0.00    -0.010 A 
HETATM    6  C4  UNL     1      24.927   0.995  52.665  1.00  0.00     0.009 A 
HETATM    7  C3  UNL     1      26.264   0.767  52.548  1.00  0.00     0.019 A 
HETATM    8  C17 UNL     1      24.161   2.183  52.215  1.00  0.00    -0.044 A 
HETATM    9  C1  UNL     1      26.361   0.421  52.739  1.00  0.00     0.039 A 
HETATM   10  C2  UNL     1      26.646  -0.604  53.304  1.00  0.00     0.006 A 
HETATM   11  C18 UNL     1      24.702   3.352  51.468  1.00  0.00     0.047 C 
BRANCH  10  12
HETATM   12  C19 UNL     1      28.158  -0.801  53.415  1.00  0.00    -0.048 A 
HETATM   13  C20 UNL     1      28.906  -1.820  53.134  1.00  0.00     0.008 A 
HETATM   14  C21 UNL     1      30.152  -1.124  53.544  1.00  0.00     0.001 A 
HETATM   15  C22 UNL     1      29.357  -0.070  53.832  1.00  0.00     0.008 A 
ENDBRANCH  10  12
ENDBRANCH   1   3
BRANCH   1  16
HETATM   16  C8  UNL     1      21.159   2.492  51.139  1.00  0.00     0.727 A 
HETATM   17  N2  UNL     1      21.300   2.777  49.905  1.00  0.00    -0.075 NA
HETATM   18  C9  UNL     1      20.459   2.151  48.979  1.00  0.00     0.139 A 
HETATM   19  C10 UNL     1      19.469   1.225  49.388  1.00  0.00     0.053 A 
HETATM   20  C11 UNL     1      19.405   0.994  50.774  1.00  0.00     0.089 A 
HETATM   21  N4  UNL     1      20.234   1.607  51.685  1.00  0.00    -0.062 NA
BRANCH  20  22
HETATM   22  C12 UNL     1      18.386   0.131  51.327  1.00  0.00     0.011 A 
HETATM   23  C13 UNL     1      18.606  -0.544  52.493  1.00  0.00     0.017 A 
HETATM   24  C14 UNL     1      17.851  -1.383  53.251  1.00  0.00     0.020 A 
HETATM   25  C15 UNL     1      16.553  -1.559  52.638  1.00  0.00     0.116 A 
HETATM   26  N3  UNL     1      16.140  -0.948  51.437  1.00  0.00    -0.272 NA
HETATM   27  C16 UNL     1      17.155  -0.138  50.900  1.00  0.00     0.130 A 
ENDBRANCH  20  22
ENDBRANCH   1  16
TORSDOF 4
ENDMDL
MODEL 6
REMARK VINA RESULT:      -8.5      4.013      7.826
REMARK  4 active torsions:
REMARK  status: ('A' for Active; 'I' for Inactive)
REMARK    1  A    between atoms: C2_2  and  C19_23 
REMARK    2  A    between atoms: C7_7  and  N1_8 
REMARK    3  A    between atoms: N1_8  and  C8_9 
REMARK    4  A    between atoms: C11_13  and  C12_14 
ROOT
HETATM    1  N1  UNL     1      22.965   1.385  50.618  1.00  0.00    -0.188 N 
HETATM    2  H6  UNL     1      23.182   1.483  49.604  1.00  0.00     0.184 HD
ENDROOT
BRANCH   1   3
HETATM    3  C7  UNL     1      21.812   0.838  51.267  1.00  0.00     0.052 A 
HETATM    4  C6  UNL     1      21.786   0.203  52.546  1.00  0.00     0.027 A 
HETATM    5  C5  UNL     1      20.582  -0.192  52.824  1.00  0.00    -0.010 A 
HETATM    6  C4  UNL     1      19.636   0.144  51.735  1.00  0.00     0.009 A 
HETATM    7  C3  UNL     1      18.314  -0.115  51.544  1.00  0.00     0.019 A 
HETATM    8  C17 UNL     1      20.581   0.807  50.802  1.00  0.00    -0.044 A 
HETATM    9  C1  UNL     1      18.171  -0.331  51.858  1.00  0.00     0.039 A 
HETATM   10  C2  UNL     1      17.746  -0.969  52.788  1.00  0.00     0.006 A 
HETATM   11  C18 UNL     1      20.246   1.395  49.475  1.00  0.00     0.047 C 
BRANCH  10  12
HETATM   12  C19 UNL     1      16.334  -1.495  52.531  1.00  0.00    -0.048 A 
HETATM   13  C20 UNL     1      15.866  -2.703  52.514  1.00  0.00     0.008 A 
HETATM   14  C21 UNL     1      14.487  -2.252  52.195  1.00  0.00     0.001 A 
HETATM   15  C22 UNL     1      14.992  -0.999  52.216  1.00  0.00     0.008 A 
ENDBRANCH  10  12
ENDBRANCH   1   3
BRANCH   1  16
HETATM   16  C8  UNL     1      23.801   1.786  51.774  1.00  0.00     0.727 A 
HETATM   17  N2  UNL     1      23.701   2.856  52.459  1.00  0.00    -0.075 NA
HETATM   18  C9  UNL     1      24.647   3.093  53.461  1.00  0.00     0.139 A 
HETATM   19  C10 UNL     1      25.697   2.177  53.717  1.00  0.00     0.053 A 
HETATM   20  C11 UNL     1      25.706   1.036  52.897  1.00  0.00     0.089 A 
HETATM   21  N4  UNL     1      24.773   0.801  51.912  1.00  0.00    -0.062 NA
BRANCH  20  22
HETATM   22  C12 UNL     1      26.771   0.064  53.004  1.00  0.00     0.011 A 
HETATM   23  C13 UNL     1      28.039   0.457  53.322  1.00  0.00     0.017 A 
HETATM   24  C14 UNL     1      29.209  -0.209  53.515  1.00  0.00     0.020 A 
HETATM   25  C15 UNL     1      29.000  -1.627  53.327  1.00  0.00     0.116 A 
HETATM   26  N3  UNL     1      27.767  -2.222  52.995  1.00  0.00    -0.272 NA
HETATM   27  C16 UNL     1      26.752  -1.259  52.866  1.00  0.00     0.130 A 
ENDBRANCH  20  22
ENDBRANCH   1  16
TORSDOF 4
ENDMDL
MODEL 7
REMARK VINA RESULT:      -8.1      2.579      6.571
REMARK  4 active torsions:
REMARK  status: ('A' for Active; 'I' for Inactive)
REMARK    1  A    between atoms: C2_2  and  C19_23 
REMARK    2  A    between atoms: C7_7  and  N1_8 
REMARK    3  A    between atoms: N1_8  and  C8_9 
REMARK    4  A    between atoms: C11_13  and  C12_14 
ROOT
HETATM    1  N1  UNL     1      21.899   4.841  50.195  1.00  0.00    -0.188 N 
HETATM    2  H6  UNL     1      20.956   4.651  49.796  1.00  0.00     0.184 HD
ENDROOT
BRANCH   1   3
HETATM    3  C7  UNL     1      22.735   4.020  51.017  1.00  0.00     0.052 A 
HETATM    4  C6  UNL     1      23.136   4.301  52.359  1.00  0.00     0.027 A 
HETATM    5  C5  UNL     1      23.909   3.357  52.801  1.00  0.00    -0.010 A 
HETATM    6  C4  UNL     1      24.117   2.304  51.781  1.00  0.00     0.009 A 
HETATM    7  C3  UNL     1      24.879   1.177  51.756  1.00  0.00     0.019 A 
HETATM    8  C17 UNL     1      23.295   2.875  50.686  1.00  0.00    -0.044 A 
HETATM    9  C1  UNL     1      25.083   1.143  52.106  1.00  0.00     0.039 A 
HETATM   10  C2  UNL     1      25.689   1.042  53.143  1.00  0.00     0.006 A 
HETATM   11  C18 UNL     1      23.079   2.277  49.339  1.00  0.00     0.047 C 
BRANCH  10  12
HETATM   12  C19 UNL     1      26.738  -0.069  53.094  1.00  0.00    -0.048 A 
HETATM   13  C20 UNL     1      28.016  -0.041  53.297  1.00  0.00     0.008 A 
HETATM   14  C21 UNL     1      28.173  -1.495  53.040  1.00  0.00     0.001 A 
HETATM   15  C22 UNL     1      26.838  -1.507  52.831  1.00  0.00     0.008 A 
ENDBRANCH  10  12
ENDBRANCH   1   3
BRANCH   1  16
HETATM   16  C8  UNL     1      22.727   6.061  50.045  1.00  0.00     0.727 A 
HETATM   17  N2  UNL     1      22.336   7.270  50.142  1.00  0.00    -0.075 NA
HETATM   18  C9  UNL     1      23.257   8.288  49.877  1.00  0.00     0.139 A 
HETATM   19  C10 UNL     1      24.593   7.997  49.506  1.00  0.00     0.053 A 
HETATM   20  C11 UNL     1      24.906   6.628  49.428  1.00  0.00     0.089 A 
HETATM   21  N4  UNL     1      24.000   5.626  49.692  1.00  0.00    -0.062 NA
BRANCH  20  22
HETATM   22  C12 UNL     1      26.212   6.199  48.983  1.00  0.00     0.011 A 
HETATM   23  C13 UNL     1      27.084   7.091  48.427  1.00  0.00     0.017 A 
HETATM   24  C14 UNL     1      28.354   6.993  47.952  1.00  0.00     0.020 A 
HETATM   25  C15 UNL     1      28.822   5.632  48.090  1.00  0.00     0.116 A 
HETATM   26  N3  UNL     1      28.071   4.573  48.636  1.00  0.00    -0.272 NA
HETATM   27  C16 UNL     1      26.794   5.004  49.035  1.00  0.00     0.130 A 
ENDBRANCH  20  22
ENDBRANCH   1  16
TORSDOF 4
ENDMDL
MODEL 8
REMARK VINA RESULT:      -8.0      3.032      7.161
REMARK  4 active torsions:
REMARK  status: ('A' for Active; 'I' for Inactive)
REMARK    1  A    between atoms: C2_2  and  C19_23 
REMARK    2  A    between atoms: C7_7  and  N1_8 
REMARK    3  A    between atoms: N1_8  and  C8_9 
REMARK    4  A    between atoms: C11_13  and  C12_14 
ROOT
HETATM    1  N1  UNL     1      22.186   3.096  51.599  1.00  0.00    -0.188 N 
HETATM    2  H6  UNL     1      21.747   3.870  52.141  1.00  0.00     0.184 HD
ENDROOT
BRANCH   1   3
HETATM    3  C7  UNL     1      23.136   2.106  52.006  1.00  0.00     0.052 A 
HETATM    4  C6  UNL     1      22.858   0.937  52.778  1.00  0.00     0.027 A 
HETATM    5  C5  UNL     1      23.950   0.266  52.983  1.00  0.00    -0.010 A 
HETATM    6  C4  UNL     1      25.116   0.925  52.353  1.00  0.00     0.009 A 
HETATM    7  C3  UNL     1      26.448   0.642  52.347  1.00  0.00     0.019 A 
HETATM    8  C17 UNL     1      24.430   2.099  51.760  1.00  0.00    -0.044 A 
HETATM    9  C1  UNL     1      26.517   0.309  52.570  1.00  0.00     0.039 A 
HETATM   10  C2  UNL     1      26.723  -0.677  53.231  1.00  0.00     0.006 A 
HETATM   11  C18 UNL     1      25.066   3.185  50.963  1.00  0.00     0.047 C 
BRANCH  10  12
HETATM   12  C19 UNL     1      28.215  -0.917  53.462  1.00  0.00    -0.048 A 
HETATM   13  C20 UNL     1      29.081  -0.270  54.175  1.00  0.00     0.008 A 
HETATM   14  C21 UNL     1      30.193  -1.181  53.801  1.00  0.00     0.001 A 
HETATM   15  C22 UNL     1      29.277  -1.845  53.063  1.00  0.00     0.008 A 
ENDBRANCH  10  12
ENDBRANCH   1   3
BRANCH   1  16
HETATM   16  C8  UNL     1      21.971   2.741  50.176  1.00  0.00     0.727 A 
HETATM   17  N2  UNL     1      21.707   1.588  49.704  1.00  0.00    -0.075 NA
HETATM   18  C9  UNL     1      21.626   1.441  48.316  1.00  0.00     0.139 A 
HETATM   19  C10 UNL     1      21.833   2.538  47.444  1.00  0.00     0.053 A 
HETATM   20  C11 UNL     1      22.120   3.759  48.080  1.00  0.00     0.089 A 
HETATM   21  N4  UNL     1      22.197   3.904  49.446  1.00  0.00    -0.062 NA
BRANCH  20  22
HETATM   22  C12 UNL     1      22.430   4.936  47.301  1.00  0.00     0.011 A 
HETATM   23  C13 UNL     1      23.177   5.946  47.837  1.00  0.00     0.017 A 
HETATM   24  C14 UNL     1      23.640   7.130  47.355  1.00  0.00     0.020 A 
HETATM   25  C15 UNL     1      23.216   7.298  45.983  1.00  0.00     0.116 A 
HETATM   26  N3  UNL     1      22.442   6.369  45.260  1.00  0.00    -0.272 NA
HETATM   27  C16 UNL     1      22.126   5.246  46.043  1.00  0.00     0.130 A 
ENDBRANCH  20  22
ENDBRANCH   1  16
TORSDOF 4
ENDMDL
MODEL 9
REMARK VINA RESULT:      -8.0      3.302      8.159
REMARK  4 active torsions:
REMARK  status: ('A' for Active; 'I' for Inactive)
REMARK    1  A    between atoms: C2_2  and  C19_23 
REMARK    2  A    between atoms: C7_7  and  N1_8 
REMARK    3  A    between atoms: N1_8  and  C8_9 
REMARK    4  A    between atoms: C11_13  and  C12_14 
ROOT
HETATM    1  N1  UNL     1      26.136   3.948  48.934  1.00  0.00    -0.188 N 
HETATM    2  H6  UNL     1      26.429   3.615  47.992  1.00  0.00     0.184 HD
ENDROOT
BRANCH   1   3
HETATM    3  C7  UNL     1      25.677   3.211  50.072  1.00  0.00     0.052 A 
HETATM    4  C6  UNL     1      26.462   2.831  51.204  1.00  0.00     0.027 A 
HETATM    5  C5  UNL     1      25.739   2.156  52.043  1.00  0.00    -0.010 A 
HETATM    6  C4  UNL     1      24.347   2.005  51.559  1.00  0.00     0.009 A 
HETATM    7  C3  UNL     1      23.264   1.341  52.048  1.00  0.00     0.019 A 
HETATM    8  C17 UNL     1      24.465   2.740  50.276  1.00  0.00    -0.044 A 
HETATM    9  C1  UNL     1      23.365   1.151  52.394  1.00  0.00     0.039 A 
HETATM   10  C2  UNL     1      23.664   0.590  53.418  1.00  0.00     0.006 A 
HETATM   11  C18 UNL     1      23.378   2.962  49.283  1.00  0.00     0.047 C 
BRANCH  10  12
HETATM   12  C19 UNL     1      22.568  -0.362  53.896  1.00  0.00    -0.048 A 
HETATM   13  C20 UNL     1      22.550  -1.220  54.866  1.00  0.00     0.008 A 
HETATM   14  C21 UNL     1      21.159  -1.648  54.572  1.00  0.00     0.001 A 
HETATM   15  C22 UNL     1      21.195  -0.749  53.564  1.00  0.00     0.008 A 
ENDBRANCH  10  12
ENDBRANCH   1   3
BRANCH   1  16
HETATM   16  C8  UNL     1      26.094   5.341  49.439  1.00  0.00     0.727 A 
HETATM   17  N2  UNL     1      25.225   5.849  50.220  1.00  0.00    -0.075 NA
HETATM   18  C9  UNL     1      25.311   7.214  50.511  1.00  0.00     0.139 A 
HETATM   19  C10 UNL     1      26.332   8.024  49.956  1.00  0.00     0.053 A 
HETATM   20  C11 UNL     1      27.230   7.354  49.107  1.00  0.00     0.089 A 
HETATM   21  N4  UNL     1      27.147   6.010  48.823  1.00  0.00    -0.062 NA
BRANCH  20  22
HETATM   22  C12 UNL     1      28.268   8.084  48.414  1.00  0.00     0.011 A 
HETATM   23  C13 UNL     1      28.647   7.722  47.153  1.00  0.00     0.017 A 
HETATM   24  C14 UNL     1      29.548   8.218  46.264  1.00  0.00     0.020 A 
HETATM   25  C15 UNL     1      30.215   9.367  46.834  1.00  0.00     0.116 A 
HETATM   26  N3  UNL     1      29.962   9.890  48.118  1.00  0.00    -0.272 NA
HETATM   27  C16 UNL     1      28.972   9.149  48.786  1.00  0.00     0.130 A 
ENDBRANCH  20  22
ENDBRANCH   1  16
TORSDOF 4
ENDMDL
