MODEL 1
REMARK VINA RESULT:      -9.1      0.000      0.000
REMARK  7 active torsions:
REMARK  status: ('A' for Active; 'I' for Inactive)
REMARK    1  A    between atoms: C2_2  and  C3_3 
REMARK    2  A    between atoms: C2_2  and  C6_8 
REMARK    3  A    between atoms: C3_3  and  C4_4 
REMARK    4  A    between atoms: C4_4  and  C5_5 
REMARK    5  A    between atoms: C5_5  and  O2_7 
REMARK    6  A    between atoms: C6_8  and  O3_9 
REMARK    7  A    between atoms: C14_19  and  C15_20 
ROOT
HETATM    1  C6  UNL     1      21.272   4.163  50.778  1.00  0.00     0.076 C 
HETATM    2  C8  UNL     1      22.079   3.421  51.551  1.00  0.00     0.059 C 
HETATM    3  C9  UNL     1      21.504   2.289  52.312  1.00  0.00     0.049 C 
HETATM    4  C10 UNL     1      22.092   1.239  52.860  1.00  0.00     0.047 A 
HETATM    5  C11 UNL     1      21.379   0.204  53.581  1.00  0.00     0.257 A 
HETATM    6  O4  UNL     1      20.154   0.111  53.809  1.00  0.00    -0.267 OA
HETATM    7  N1  UNL     1      22.452  -0.679  53.959  1.00  0.00    -0.322 N 
HETATM    8  C12 UNL     1      23.698  -0.197  53.494  1.00  0.00     0.047 A 
HETATM    9  C13 UNL     1      24.986  -0.717  53.624  1.00  0.00     0.042 A 
HETATM   10  C14 UNL     1      26.033  -0.004  53.052  1.00  0.00    -0.023 A 
HETATM   11  C21 UNL     1      25.824   1.182  52.371  1.00  0.00     0.022 A 
HETATM   12  C22 UNL     1      24.560   1.713  52.231  1.00  0.00    -0.026 A 
HETATM   13  C23 UNL     1      23.544   0.975  52.815  1.00  0.00     0.014 A 
HETATM   14  C24 UNL     1      24.649   2.970  51.472  1.00  0.00     0.159 C 
HETATM   15  N2  UNL     1      23.438   3.793  51.575  1.00  0.00    -0.384 N 
HETATM   16  H14 UNL     1      22.327  -1.577  54.515  1.00  0.00     0.169 HD
HETATM   17  H24 UNL     1      23.625   4.822  51.688  1.00  0.00     0.160 HD
ENDROOT
BRANCH   1  18
HETATM   18  C2  UNL     1      21.669   5.308  49.963  1.00  0.00     0.041 C 
HETATM   19  C1  UNL     1      20.892   5.443  48.660  1.00  0.00     0.017 C 
BRANCH  18  20
HETATM   20  C3  UNL     1      21.526   6.622  50.720  1.00  0.00     0.021 C 
BRANCH  20  21
HETATM   21  C4  UNL     1      22.715   7.519  50.443  1.00  0.00     0.110 C 
BRANCH  21  22
HETATM   22  C5  UNL     1      23.894   6.943  51.131  1.00  0.00     0.139 C 
HETATM   23  O1  UNL     1      24.837   6.492  50.413  1.00  0.00    -0.650 OA
BRANCH  22  24
HETATM   24  O2  UNL     1      24.355   6.707  52.426  1.00  0.00    -0.776 OA
HETATM   25  H9  UNL     1      25.265   7.014  52.722  1.00  0.00     0.167 HD
ENDBRANCH  22  24
ENDBRANCH  21  22
ENDBRANCH  20  21
ENDBRANCH  18  20
ENDBRANCH   1  18
BRANCH   1  26
HETATM   26  O3  UNL     1      19.952   4.197  50.447  1.00  0.00    -0.358 OA
HETATM   27  C7  UNL     1      18.804   4.032  51.186  1.00  0.00     0.209 C 
ENDBRANCH   1  26
BRANCH  10  28
HETATM   28  C15 UNL     1      27.377  -0.542  53.179  1.00  0.00    -0.026 A 
HETATM   29  C16 UNL     1      27.661  -1.873  52.968  1.00  0.00     0.012 A 
HETATM   30  C17 UNL     1      28.883  -2.506  53.055  1.00  0.00     0.001 A 
HETATM   31  C18 UNL     1      29.941  -1.668  53.401  1.00  0.00     0.000 A 
HETATM   32  C19 UNL     1      29.759  -0.318  53.632  1.00  0.00     0.001 A 
HETATM   33  C20 UNL     1      28.489   0.234  53.522  1.00  0.00     0.012 A 
ENDBRANCH  10  28
TORSDOF 7
ENDMDL
MODEL 2
REMARK VINA RESULT:      -9.1      3.555      7.218
REMARK  7 active torsions:
REMARK  status: ('A' for Active; 'I' for Inactive)
REMARK    1  A    between atoms: C2_2  and  C3_3 
REMARK    2  A    between atoms: C2_2  and  C6_8 
REMARK    3  A    between atoms: C3_3  and  C4_4 
REMARK    4  A    between atoms: C4_4  and  C5_5 
REMARK    5  A    between atoms: C5_5  and  O2_7 
REMARK    6  A    between atoms: C6_8  and  O3_9 
REMARK    7  A    between atoms: C14_19  and  C15_20 
ROOT
HETATM    1  C6  UNL     1      24.625   0.140  53.232  1.00  0.00     0.076 C 
HETATM    2  C8  UNL     1      24.732   0.949  52.167  1.00  0.00     0.059 C 
HETATM    3  C9  UNL     1      23.521   1.640  51.667  1.00  0.00     0.049 C 
HETATM    4  C10 UNL     1      23.402   2.701  50.886  1.00  0.00     0.047 A 
HETATM    5  C11 UNL     1      22.130   3.263  50.482  1.00  0.00     0.257 A 
HETATM    6  O4  UNL     1      20.976   2.880  50.774  1.00  0.00    -0.267 OA
HETATM    7  N1  UNL     1      22.548   4.371  49.663  1.00  0.00    -0.322 N 
HETATM    8  C12 UNL     1      23.958   4.451  49.593  1.00  0.00     0.047 A 
HETATM    9  C13 UNL     1      24.791   5.349  48.924  1.00  0.00     0.042 A 
HETATM   10  C14 UNL     1      26.164   5.169  49.043  1.00  0.00    -0.023 A 
HETATM   11  C21 UNL     1      26.705   4.141  49.794  1.00  0.00     0.022 A 
HETATM   12  C22 UNL     1      25.900   3.243  50.462  1.00  0.00    -0.026 A 
HETATM   13  C23 UNL     1      24.539   3.454  50.320  1.00  0.00     0.014 A 
HETATM   14  C24 UNL     1      26.749   2.268  51.166  1.00  0.00     0.159 C 
HETATM   15  N2  UNL     1      26.016   1.074  51.601  1.00  0.00    -0.384 N 
HETATM   16  H14 UNL     1      21.885   5.043  49.174  1.00  0.00     0.169 HD
HETATM   17  H24 UNL     1      26.539   0.173  51.461  1.00  0.00     0.160 HD
ENDROOT
BRANCH   1  18
HETATM   18  C2  UNL     1      25.710  -0.615  53.855  1.00  0.00     0.041 C 
HETATM   19  C1  UNL     1      26.532  -1.444  52.879  1.00  0.00     0.017 C 
BRANCH  18  20
HETATM   20  C3  UNL     1      26.672   0.293  54.611  1.00  0.00     0.021 C 
BRANCH  20  21
HETATM   21  C4  UNL     1      28.105  -0.103  54.320  1.00  0.00     0.110 C 
BRANCH  21  22
HETATM   22  C5  UNL     1      28.899   1.136  54.156  1.00  0.00     0.139 C 
HETATM   23  O1  UNL     1      29.232   1.769  55.204  1.00  0.00    -0.650 OA
BRANCH  22  24
HETATM   24  O2  UNL     1      29.453   1.914  53.139  1.00  0.00    -0.776 OA
HETATM   25  H9  UNL     1      29.017   1.985  52.237  1.00  0.00     0.167 HD
ENDBRANCH  22  24
ENDBRANCH  21  22
ENDBRANCH  20  21
ENDBRANCH  18  20
ENDBRANCH   1  18
BRANCH   1  26
HETATM   26  O3  UNL     1      23.647  -0.284  54.077  1.00  0.00    -0.358 OA
HETATM   27  C7  UNL     1      22.551  -1.097  53.897  1.00  0.00     0.209 C 
ENDBRANCH   1  26
BRANCH  10  28
HETATM   28  C15 UNL     1      27.038   6.102  48.354  1.00  0.00    -0.026 A 
HETATM   29  C16 UNL     1      28.398   5.901  48.252  1.00  0.00     0.012 A 
HETATM   30  C17 UNL     1      29.331   6.702  47.629  1.00  0.00     0.001 A 
HETATM   31  C18 UNL     1      28.803   7.850  47.041  1.00  0.00     0.000 A 
HETATM   32  C19 UNL     1      27.454   8.142  47.089  1.00  0.00     0.001 A 
HETATM   33  C20 UNL     1      26.585   7.275  47.740  1.00  0.00     0.012 A 
ENDBRANCH  10  28
TORSDOF 7
ENDMDL
MODEL 3
REMARK VINA RESULT:      -8.7      3.609      7.874
REMARK  7 active torsions:
REMARK  status: ('A' for Active; 'I' for Inactive)
REMARK    1  A    between atoms: C2_2  and  C3_3 
REMARK    2  A    between atoms: C2_2  and  C6_8 
REMARK    3  A    between atoms: C3_3  and  C4_4 
REMARK    4  A    between atoms: C4_4  and  C5_5 
REMARK    5  A    between atoms: C5_5  and  O2_7 
REMARK    6  A    between atoms: C6_8  and  O3_9 
REMARK    7  A    between atoms: C14_19  and  C15_20 
ROOT
HETATM    1  C6  UNL     1      25.187   0.990  53.037  1.00  0.00     0.076 C 
HETATM    2  C8  UNL     1      23.858   0.912  53.202  1.00  0.00     0.059 C 
HETATM    3  C9  UNL     1      23.002   1.986  52.647  1.00  0.00     0.049 C 
HETATM    4  C10 UNL     1      21.706   1.996  52.381  1.00  0.00     0.047 A 
HETATM    5  C11 UNL     1      21.008   3.141  51.832  1.00  0.00     0.257 A 
HETATM    6  O4  UNL     1      21.464   4.263  51.525  1.00  0.00    -0.267 OA
HETATM    7  N1  UNL     1      19.660   2.641  51.737  1.00  0.00    -0.322 N 
HETATM    8  C12 UNL     1      19.577   1.306  52.195  1.00  0.00     0.047 A 
HETATM    9  C13 UNL     1      18.491   0.435  52.285  1.00  0.00     0.042 A 
HETATM   10  C14 UNL     1      18.722  -0.840  52.788  1.00  0.00    -0.023 A 
HETATM   11  C21 UNL     1      19.980  -1.250  53.191  1.00  0.00     0.022 A 
HETATM   12  C22 UNL     1      21.067  -0.406  53.111  1.00  0.00    -0.026 A 
HETATM   13  C23 UNL     1      20.798   0.855  52.605  1.00  0.00     0.014 A 
HETATM   14  C24 UNL     1      22.259  -1.110  53.610  1.00  0.00     0.159 C 
HETATM   15  N2  UNL     1      23.379  -0.209  53.908  1.00  0.00    -0.384 N 
HETATM   16  H14 UNL     1      18.834   3.200  51.369  1.00  0.00     0.169 HD
HETATM   17  H24 UNL     1      23.896  -0.444  54.792  1.00  0.00     0.160 HD
ENDROOT
BRANCH   1  18
HETATM   18  C2  UNL     1      26.174   0.025  53.514  1.00  0.00     0.041 C 
HETATM   19  C1  UNL     1      27.113  -0.491  52.432  1.00  0.00     0.017 C 
BRANCH  18  20
HETATM   20  C3  UNL     1      27.035   0.598  54.633  1.00  0.00     0.021 C 
BRANCH  20  21
HETATM   21  C4  UNL     1      28.502   0.485  54.276  1.00  0.00     0.110 C 
BRANCH  21  22
HETATM   22  C5  UNL     1      29.033   1.855  54.086  1.00  0.00     0.139 C 
HETATM   23  O1  UNL     1      29.722   2.360  55.024  1.00  0.00    -0.650 OA
BRANCH  22  24
HETATM   24  O2  UNL     1      29.028   2.871  53.130  1.00  0.00    -0.776 OA
HETATM   25  H9  UNL     1      29.698   2.890  52.382  1.00  0.00     0.167 HD
ENDBRANCH  22  24
ENDBRANCH  21  22
ENDBRANCH  20  21
ENDBRANCH  18  20
ENDBRANCH   1  18
BRANCH   1  26
HETATM   26  O3  UNL     1      26.079   1.839  52.459  1.00  0.00    -0.358 OA
HETATM   27  C7  UNL     1      26.038   2.584  51.302  1.00  0.00     0.209 C 
ENDBRANCH   1  26
BRANCH  10  28
HETATM   28  C15 UNL     1      17.596  -1.753  52.880  1.00  0.00    -0.026 A 
HETATM   29  C16 UNL     1      17.688  -2.976  53.509  1.00  0.00     0.012 A 
HETATM   30  C17 UNL     1      16.703  -3.927  53.666  1.00  0.00     0.001 A 
HETATM   31  C18 UNL     1      15.475  -3.580  53.108  1.00  0.00     0.000 A 
HETATM   32  C19 UNL     1      15.281  -2.378  52.456  1.00  0.00     0.001 A 
HETATM   33  C20 UNL     1      16.333  -1.478  52.346  1.00  0.00     0.012 A 
ENDBRANCH  10  28
TORSDOF 7
ENDMDL
MODEL 4
REMARK VINA RESULT:      -8.6      1.522      1.985
REMARK  7 active torsions:
REMARK  status: ('A' for Active; 'I' for Inactive)
REMARK    1  A    between atoms: C2_2  and  C3_3 
REMARK    2  A    between atoms: C2_2  and  C6_8 
REMARK    3  A    between atoms: C3_3  and  C4_4 
REMARK    4  A    between atoms: C4_4  and  C5_5 
REMARK    5  A    between atoms: C5_5  and  O2_7 
REMARK    6  A    between atoms: C6_8  and  O3_9 
REMARK    7  A    between atoms: C14_19  and  C15_20 
ROOT
HETATM    1  C6  UNL     1      22.759   5.313  49.734  1.00  0.00     0.076 C 
HETATM    2  C8  UNL     1      23.301   4.450  50.607  1.00  0.00     0.059 C 
HETATM    3  C9  UNL     1      22.410   3.550  51.373  1.00  0.00     0.049 C 
HETATM    4  C10 UNL     1      22.678   2.427  52.020  1.00  0.00     0.047 A 
HETATM    5  C11 UNL     1      21.682   1.652  52.730  1.00  0.00     0.257 A 
HETATM    6  O4  UNL     1      20.460   1.879  52.862  1.00  0.00    -0.267 OA
HETATM    7  N1  UNL     1      22.472   0.559  53.239  1.00  0.00    -0.322 N 
HETATM    8  C12 UNL     1      23.826   0.687  52.854  1.00  0.00     0.047 A 
HETATM    9  C13 UNL     1      24.932  -0.124  53.115  1.00  0.00     0.042 A 
HETATM   10  C14 UNL     1      26.160   0.268  52.595  1.00  0.00    -0.023 A 
HETATM   11  C21 UNL     1      26.301   1.419  51.842  1.00  0.00     0.022 A 
HETATM   12  C22 UNL     1      25.223   2.234  51.572  1.00  0.00    -0.026 A 
HETATM   13  C23 UNL     1      24.017   1.812  52.107  1.00  0.00     0.014 A 
HETATM   14  C24 UNL     1      25.675   3.376  50.761  1.00  0.00     0.159 C 
HETATM   15  N2  UNL     1      24.705   4.477  50.724  1.00  0.00    -0.384 N 
HETATM   16  H14 UNL     1      22.088  -0.240  53.826  1.00  0.00     0.169 HD
HETATM   17  H24 UNL     1      25.136   5.432  50.800  1.00  0.00     0.160 HD
ENDROOT
BRANCH   1  18
HETATM   18  C2  UNL     1      23.484   6.266  48.898  1.00  0.00     0.041 C 
HETATM   19  C1  UNL     1      23.010   6.311  47.452  1.00  0.00     0.017 C 
BRANCH  18  20
HETATM   20  C3  UNL     1      23.404   7.684  49.451  1.00  0.00     0.021 C 
BRANCH  20  21
HETATM   21  C4  UNL     1      24.556   8.516  48.929  1.00  0.00     0.110 C 
BRANCH  21  22
HETATM   22  C5  UNL     1      25.601   8.561  49.978  1.00  0.00     0.139 C 
HETATM   23  O1  UNL     1      26.036   7.458  50.429  1.00  0.00    -0.650 OA
BRANCH  22  24
HETATM   24  O2  UNL     1      26.335   9.500  50.705  1.00  0.00    -0.776 OA
HETATM   25  H9  UNL     1      26.905  10.188  50.246  1.00  0.00     0.167 HD
ENDBRANCH  22  24
ENDBRANCH  21  22
ENDBRANCH  20  21
ENDBRANCH  18  20
ENDBRANCH   1  18
BRANCH   1  26
HETATM   26  O3  UNL     1      21.516   5.648  49.295  1.00  0.00    -0.358 OA
HETATM   27  C7  UNL     1      20.331   5.886  49.952  1.00  0.00     0.209 C 
ENDBRANCH   1  26
BRANCH  10  28
HETATM   28  C15 UNL     1      27.314  -0.574  52.859  1.00  0.00    -0.026 A 
HETATM   29  C16 UNL     1      28.510  -0.064  53.314  1.00  0.00     0.012 A 
HETATM   30  C17 UNL     1      29.671  -0.748  53.602  1.00  0.00     0.001 A 
HETATM   31  C18 UNL     1      29.594  -2.124  53.397  1.00  0.00     0.000 A 
HETATM   32  C19 UNL     1      28.440  -2.732  52.943  1.00  0.00     0.001 A 
HETATM   33  C20 UNL     1      27.315  -1.961  52.678  1.00  0.00     0.012 A 
ENDBRANCH  10  28
TORSDOF 7
ENDMDL
MODEL 5
REMARK VINA RESULT:      -8.3      3.739      8.135
REMARK  7 active torsions:
REMARK  status: ('A' for Active; 'I' for Inactive)
REMARK    1  A    between atoms: C2_2  and  C3_3 
REMARK    2  A    between atoms: C2_2  and  C6_8 
REMARK    3  A    between atoms: C3_3  and  C4_4 
REMARK    4  A    between atoms: C4_4  and  C5_5 
REMARK    5  A    between atoms: C5_5  and  O2_7 
REMARK    6  A    between atoms: C6_8  and  O3_9 
REMARK    7  A    between atoms: C14_19  and  C15_20 
ROOT
HETATM    1  C6  UNL     1      25.140   1.211  51.942  1.00  0.00     0.076 C 
HETATM    2  C8  UNL     1      23.815   1.372  51.806  1.00  0.00     0.059 C 
HETATM    3  C9  UNL     1      23.305   2.215  50.701  1.00  0.00     0.049 C 
HETATM    4  C10 UNL     1      22.101   2.273  50.154  1.00  0.00     0.047 A 
HETATM    5  C11 UNL     1      21.756   3.163  49.064  1.00  0.00     0.257 A 
HETATM    6  O4  UNL     1      22.479   3.992  48.471  1.00  0.00    -0.267 OA
HETATM    7  N1  UNL     1      20.369   2.837  48.850  1.00  0.00    -0.322 N 
HETATM    8  C12 UNL     1      19.937   1.833  49.747  1.00  0.00     0.047 A 
HETATM    9  C13 UNL     1      18.694   1.218  49.902  1.00  0.00     0.042 A 
HETATM   10  C14 UNL     1      18.570   0.248  50.890  1.00  0.00    -0.023 A 
HETATM   11  C21 UNL     1      19.630  -0.109  51.702  1.00  0.00     0.022 A 
HETATM   12  C22 UNL     1      20.866   0.486  51.567  1.00  0.00    -0.026 A 
HETATM   13  C23 UNL     1      20.952   1.447  50.573  1.00  0.00     0.014 A 
HETATM   14  C24 UNL     1      21.787  -0.088  52.560  1.00  0.00     0.159 C 
HETATM   15  N2  UNL     1      23.003   0.711  52.750  1.00  0.00    -0.384 N 
HETATM   16  H14 UNL     1      19.750   3.291  48.115  1.00  0.00     0.169 HD
HETATM   17  H24 UNL     1      23.307   0.802  53.752  1.00  0.00     0.160 HD
ENDROOT
BRANCH   1  18
HETATM   18  C2  UNL     1      25.813   0.417  52.967  1.00  0.00     0.041 C 
HETATM   19  C1  UNL     1      26.835  -0.569  52.419  1.00  0.00     0.017 C 
BRANCH  18  20
HETATM   20  C3  UNL     1      26.524   1.294  53.990  1.00  0.00     0.021 C 
BRANCH  20  21
HETATM   21  C4  UNL     1      27.968   0.862  54.138  1.00  0.00     0.110 C 
BRANCH  21  22
HETATM   22  C5  UNL     1      28.824   2.058  53.960  1.00  0.00     0.139 C 
HETATM   23  O1  UNL     1      29.618   2.364  54.901  1.00  0.00    -0.650 OA
BRANCH  22  24
HETATM   24  O2  UNL     1      29.072   3.054  53.014  1.00  0.00    -0.776 OA
HETATM   25  H9  UNL     1      28.372   3.732  52.772  1.00  0.00     0.167 HD
ENDBRANCH  22  24
ENDBRANCH  21  22
ENDBRANCH  20  21
ENDBRANCH  18  20
ENDBRANCH   1  18
BRANCH   1  26
HETATM   26  O3  UNL     1      26.272   1.628  51.313  1.00  0.00    -0.358 OA
HETATM   27  C7  UNL     1      26.586   2.783  50.635  1.00  0.00     0.209 C 
ENDBRANCH   1  26
BRANCH  10  28
HETATM   28  C15 UNL     1      17.280  -0.400  51.053  1.00  0.00    -0.026 A 
HETATM   29  C16 UNL     1      16.334  -0.422  50.051  1.00  0.00     0.012 A 
HETATM   30  C17 UNL     1      15.082  -0.999  50.077  1.00  0.00     0.001 A 
HETATM   31  C18 UNL     1      14.763  -1.629  51.278  1.00  0.00     0.000 A 
HETATM   32  C19 UNL     1      15.643  -1.662  52.342  1.00  0.00     0.001 A 
HETATM   33  C20 UNL     1      16.886  -1.052  52.226  1.00  0.00     0.012 A 
ENDBRANCH  10  28
TORSDOF 7
ENDMDL
MODEL 6
REMARK VINA RESULT:      -8.3      3.520      7.443
REMARK  7 active torsions:
REMARK  status: ('A' for Active; 'I' for Inactive)
REMARK    1  A    between atoms: C2_2  and  C3_3 
REMARK    2  A    between atoms: C2_2  and  C6_8 
REMARK    3  A    between atoms: C3_3  and  C4_4 
REMARK    4  A    between atoms: C4_4  and  C5_5 
REMARK    5  A    between atoms: C5_5  and  O2_7 
REMARK    6  A    between atoms: C6_8  and  O3_9 
REMARK    7  A    between atoms: C14_19  and  C15_20 
ROOT
HETATM    1  C6  UNL     1      24.304   2.181  52.038  1.00  0.00     0.076 C 
HETATM    2  C8  UNL     1      23.253   1.349  51.999  1.00  0.00     0.059 C 
HETATM    3  C9  UNL     1      23.001   0.457  53.154  1.00  0.00     0.049 C 
HETATM    4  C10 UNL     1      21.905  -0.191  53.512  1.00  0.00     0.047 A 
HETATM    5  C11 UNL     1      21.818  -1.034  54.687  1.00  0.00     0.257 A 
HETATM    6  O4  UNL     1      22.702  -1.296  55.530  1.00  0.00    -0.267 OA
HETATM    7  N1  UNL     1      20.451  -1.485  54.620  1.00  0.00    -0.322 N 
HETATM    8  C12 UNL     1      19.790  -0.946  53.493  1.00  0.00     0.047 A 
HETATM    9  C13 UNL     1      18.481  -1.106  53.036  1.00  0.00     0.042 A 
HETATM   10  C14 UNL     1      18.114  -0.438  51.874  1.00  0.00    -0.023 A 
HETATM   11  C21 UNL     1      19.002   0.364  51.180  1.00  0.00     0.022 A 
HETATM   12  C22 UNL     1      20.299   0.536  51.613  1.00  0.00    -0.026 A 
HETATM   13  C23 UNL     1      20.628  -0.145  52.773  1.00  0.00     0.014 A 
HETATM   14  C24 UNL     1      21.003   1.430  50.680  1.00  0.00     0.159 C 
HETATM   15  N2  UNL     1      22.462   1.393  50.834  1.00  0.00    -0.384 N 
HETATM   16  H14 UNL     1      19.997  -2.138  55.326  1.00  0.00     0.169 HD
HETATM   17  H24 UNL     1      22.991   1.397  49.926  1.00  0.00     0.160 HD
ENDROOT
BRANCH   1  18
HETATM   18  C2  UNL     1      24.698   3.125  50.994  1.00  0.00     0.041 C 
HETATM   19  C1  UNL     1      24.235   4.554  51.241  1.00  0.00     0.017 C 
BRANCH  18  20
HETATM   20  C3  UNL     1      26.208   3.160  50.799  1.00  0.00     0.021 C 
BRANCH  20  21
HETATM   21  C4  UNL     1      26.545   3.232  49.324  1.00  0.00     0.110 C 
BRANCH  21  22
HETATM   22  C5  UNL     1      27.214   4.530  49.071  1.00  0.00     0.139 C 
HETATM   23  O1  UNL     1      26.496   5.502  48.686  1.00  0.00    -0.650 OA
BRANCH  22  24
HETATM   24  O2  UNL     1      28.491   5.091  49.117  1.00  0.00    -0.776 OA
HETATM   25  H9  UNL     1      29.170   4.909  48.399  1.00  0.00     0.167 HD
ENDBRANCH  22  24
ENDBRANCH  21  22
ENDBRANCH  20  21
ENDBRANCH  18  20
ENDBRANCH   1  18
BRANCH   1  26
HETATM   26  O3  UNL     1      25.311   2.488  52.900  1.00  0.00    -0.358 OA
HETATM   27  C7  UNL     1      26.024   1.733  53.802  1.00  0.00     0.209 C 
ENDBRANCH   1  26
BRANCH  10  28
HETATM   28  C15 UNL     1      16.752  -0.596  51.396  1.00  0.00    -0.026 A 
HETATM   29  C16 UNL     1      15.688  -0.792  52.250  1.00  0.00     0.012 A 
HETATM   30  C17 UNL     1      14.358  -0.954  51.928  1.00  0.00     0.001 A 
HETATM   31  C18 UNL     1      14.087  -0.910  50.562  1.00  0.00     0.000 A 
HETATM   32  C19 UNL     1      15.084  -0.718  49.625  1.00  0.00     0.001 A 
HETATM   33  C20 UNL     1      16.400  -0.564  50.042  1.00  0.00     0.012 A 
ENDBRANCH  10  28
TORSDOF 7
ENDMDL
MODEL 7
REMARK VINA RESULT:      -8.1      5.640      9.062
REMARK  7 active torsions:
REMARK  status: ('A' for Active; 'I' for Inactive)
REMARK    1  A    between atoms: C2_2  and  C3_3 
REMARK    2  A    between atoms: C2_2  and  C6_8 
REMARK    3  A    between atoms: C3_3  and  C4_4 
REMARK    4  A    between atoms: C4_4  and  C5_5 
REMARK    5  A    between atoms: C5_5  and  O2_7 
REMARK    6  A    between atoms: C6_8  and  O3_9 
REMARK    7  A    between atoms: C14_19  and  C15_20 
ROOT
HETATM    1  C6  UNL     1      30.208   8.007  47.700  1.00  0.00     0.076 C 
HETATM    2  C8  UNL     1      29.156   7.513  48.370  1.00  0.00     0.059 C 
HETATM    3  C9  UNL     1      28.066   8.431  48.773  1.00  0.00     0.049 C 
HETATM    4  C10 UNL     1      26.818   8.174  49.128  1.00  0.00     0.047 A 
HETATM    5  C11 UNL     1      25.861   9.197  49.498  1.00  0.00     0.257 A 
HETATM    6  O4  UNL     1      26.019  10.435  49.550  1.00  0.00    -0.267 OA
HETATM    7  N1  UNL     1      24.690   8.409  49.786  1.00  0.00    -0.322 N 
HETATM    8  C12 UNL     1      24.943   7.031  49.598  1.00  0.00     0.047 A 
HETATM    9  C13 UNL     1      24.115   5.918  49.757  1.00  0.00     0.042 A 
HETATM   10  C14 UNL     1      24.657   4.666  49.496  1.00  0.00    -0.023 A 
HETATM   11  C21 UNL     1      25.969   4.506  49.090  1.00  0.00     0.022 A 
HETATM   12  C22 UNL     1      26.804   5.591  48.927  1.00  0.00    -0.026 A 
HETATM   13  C23 UNL     1      26.230   6.822  49.197  1.00  0.00     0.014 A 
HETATM   14  C24 UNL     1      28.129   5.117  48.497  1.00  0.00     0.159 C 
HETATM   15  N2  UNL     1      29.180   6.131  48.643  1.00  0.00    -0.384 N 
HETATM   16  H14 UNL     1      23.756   8.810  50.098  1.00  0.00     0.169 HD
HETATM   17  H24 UNL     1      30.090   5.757  49.013  1.00  0.00     0.160 HD
ENDROOT
BRANCH   1  18
HETATM   18  C2  UNL     1      31.364   7.250  47.227  1.00  0.00     0.041 C 
HETATM   19  C1  UNL     1      31.642   7.406  45.738  1.00  0.00     0.017 C 
BRANCH  18  20
HETATM   20  C3  UNL     1      32.636   7.629  47.974  1.00  0.00     0.021 C 
BRANCH  20  21
HETATM   21  C4  UNL     1      33.355   6.384  48.452  1.00  0.00     0.110 C 
BRANCH  21  22
HETATM   22  C5  UNL     1      32.381   5.550  49.194  1.00  0.00     0.139 C 
HETATM   23  O1  UNL     1      31.995   4.469  48.655  1.00  0.00    -0.650 OA
BRANCH  22  24
HETATM   24  O2  UNL     1      31.681   5.558  50.401  1.00  0.00    -0.776 OA
HETATM   25  H9  UNL     1      32.144   5.739  51.274  1.00  0.00     0.167 HD
ENDBRANCH  22  24
ENDBRANCH  21  22
ENDBRANCH  20  21
ENDBRANCH  18  20
ENDBRANCH   1  18
BRANCH   1  26
HETATM   26  O3  UNL     1      30.622   9.215  47.231  1.00  0.00    -0.358 OA
HETATM   27  C7  UNL     1      29.938  10.336  46.819  1.00  0.00     0.209 C 
ENDBRANCH   1  26
BRANCH  10  28
HETATM   28  C15 UNL     1      23.799   3.504  49.654  1.00  0.00    -0.026 A 
HETATM   29  C16 UNL     1      23.735   2.791  50.832  1.00  0.00     0.012 A 
HETATM   30  C17 UNL     1      22.968   1.680  51.111  1.00  0.00     0.001 A 
HETATM   31  C18 UNL     1      22.172   1.249  50.052  1.00  0.00     0.000 A 
HETATM   32  C19 UNL     1      22.165   1.896  48.832  1.00  0.00     0.001 A 
HETATM   33  C20 UNL     1      22.972   3.010  48.640  1.00  0.00     0.012 A 
ENDBRANCH  10  28
TORSDOF 7
ENDMDL
MODEL 8
REMARK VINA RESULT:      -8.1      4.240      7.529
REMARK  7 active torsions:
REMARK  status: ('A' for Active; 'I' for Inactive)
REMARK    1  A    between atoms: C2_2  and  C3_3 
REMARK    2  A    between atoms: C2_2  and  C6_8 
REMARK    3  A    between atoms: C3_3  and  C4_4 
REMARK    4  A    between atoms: C4_4  and  C5_5 
REMARK    5  A    between atoms: C5_5  and  O2_7 
REMARK    6  A    between atoms: C6_8  and  O3_9 
REMARK    7  A    between atoms: C14_19  and  C15_20 
ROOT
HETATM    1  C6  UNL     1      23.104   2.494  51.358  1.00  0.00     0.076 C 
HETATM    2  C8  UNL     1      23.811   3.183  50.450  1.00  0.00     0.059 C 
HETATM    3  C9  UNL     1      23.284   4.477  49.961  1.00  0.00     0.049 C 
HETATM    4  C10 UNL     1      23.899   5.477  49.352  1.00  0.00     0.047 A 
HETATM    5  C11 UNL     1      23.234   6.693  48.932  1.00  0.00     0.257 A 
HETATM    6  O4  UNL     1      22.031   7.011  49.055  1.00  0.00    -0.267 OA
HETATM    7  N1  UNL     1      24.321   7.430  48.340  1.00  0.00    -0.322 N 
HETATM    8  C12 UNL     1      25.530   6.700  48.409  1.00  0.00     0.047 A 
HETATM    9  C13 UNL     1      26.816   7.016  47.970  1.00  0.00     0.042 A 
HETATM   10  C14 UNL     1      27.821   6.079  48.180  1.00  0.00    -0.023 A 
HETATM   11  C21 UNL     1      27.574   4.869  48.802  1.00  0.00     0.022 A 
HETATM   12  C22 UNL     1      26.311   4.536  49.244  1.00  0.00    -0.026 A 
HETATM   13  C23 UNL     1      25.337   5.494  49.017  1.00  0.00     0.014 A 
HETATM   14  C24 UNL     1      26.353   3.199  49.856  1.00  0.00     0.159 C 
HETATM   15  N2  UNL     1      25.023   2.601  50.028  1.00  0.00    -0.384 N 
HETATM   16  H14 UNL     1      24.229   8.397  47.908  1.00  0.00     0.169 HD
HETATM   17  H24 UNL     1      24.978   1.578  49.793  1.00  0.00     0.160 HD
ENDROOT
BRANCH   1  18
HETATM   18  C2  UNL     1      23.473   1.209  51.947  1.00  0.00     0.041 C 
HETATM   19  C1  UNL     1      24.418   1.319  53.136  1.00  0.00     0.017 C 
BRANCH  18  20
HETATM   20  C3  UNL     1      22.252   0.420  52.403  1.00  0.00     0.021 C 
BRANCH  20  21
HETATM   21  C4  UNL     1      22.680  -0.804  53.184  1.00  0.00     0.110 C 
BRANCH  21  22
HETATM   22  C5  UNL     1      21.733  -0.983  54.310  1.00  0.00     0.139 C 
HETATM   23  O1  UNL     1      22.139  -1.616  55.331  1.00  0.00    -0.650 OA
BRANCH  22  24
HETATM   24  O2  UNL     1      20.420  -0.659  54.652  1.00  0.00    -0.776 OA
HETATM   25  H9  UNL     1      19.984  -1.039  55.474  1.00  0.00     0.167 HD
ENDBRANCH  22  24
ENDBRANCH  21  22
ENDBRANCH  20  21
ENDBRANCH  18  20
ENDBRANCH   1  18
BRANCH   1  26
HETATM   26  O3  UNL     1      21.932   2.634  52.035  1.00  0.00    -0.358 OA
HETATM   27  C7  UNL     1      21.201   3.738  52.409  1.00  0.00     0.209 C 
ENDBRANCH   1  26
BRANCH  10  28
HETATM   28  C15 UNL     1      29.163   6.403  47.729  1.00  0.00    -0.026 A 
HETATM   29  C16 UNL     1      30.253   5.616  48.033  1.00  0.00     0.012 A 
HETATM   30  C17 UNL     1      31.569   5.810  47.669  1.00  0.00     0.001 A 
HETATM   31  C18 UNL     1      31.791   6.950  46.900  1.00  0.00     0.000 A 
HETATM   32  C19 UNL     1      30.765   7.803  46.543  1.00  0.00     0.001 A 
HETATM   33  C20 UNL     1      29.467   7.528  46.955  1.00  0.00     0.012 A 
ENDBRANCH  10  28
TORSDOF 7
ENDMDL
MODEL 9
REMARK VINA RESULT:      -8.1      3.630      8.077
REMARK  7 active torsions:
REMARK  status: ('A' for Active; 'I' for Inactive)
REMARK    1  A    between atoms: C2_2  and  C3_3 
REMARK    2  A    between atoms: C2_2  and  C6_8 
REMARK    3  A    between atoms: C3_3  and  C4_4 
REMARK    4  A    between atoms: C4_4  and  C5_5 
REMARK    5  A    between atoms: C5_5  and  O2_7 
REMARK    6  A    between atoms: C6_8  and  O3_9 
REMARK    7  A    between atoms: C14_19  and  C15_20 
ROOT
HETATM    1  C6  UNL     1      25.478   1.660  52.982  1.00  0.00     0.076 C 
HETATM    2  C8  UNL     1      24.149   1.539  53.120  1.00  0.00     0.059 C 
HETATM    3  C9  UNL     1      23.267   2.543  52.485  1.00  0.00     0.049 C 
HETATM    4  C10 UNL     1      21.979   2.487  52.189  1.00  0.00     0.047 A 
HETATM    5  C11 UNL     1      21.251   3.569  51.559  1.00  0.00     0.257 A 
HETATM    6  O4  UNL     1      21.670   4.690  51.198  1.00  0.00    -0.267 OA
HETATM    7  N1  UNL     1      19.926   3.011  51.461  1.00  0.00    -0.322 N 
HETATM    8  C12 UNL     1      19.884   1.702  51.994  1.00  0.00     0.047 A 
HETATM    9  C13 UNL     1      18.829   0.795  52.109  1.00  0.00     0.042 A 
HETATM   10  C14 UNL     1      19.097  -0.439  52.690  1.00  0.00    -0.023 A 
HETATM   11  C21 UNL     1      20.360  -0.775  53.144  1.00  0.00     0.022 A 
HETATM   12  C22 UNL     1      21.415   0.106  53.041  1.00  0.00    -0.026 A 
HETATM   13  C23 UNL     1      21.110   1.324  52.457  1.00  0.00     0.014 A 
HETATM   14  C24 UNL     1      22.620  -0.520  53.607  1.00  0.00     0.159 C 
HETATM   15  N2  UNL     1      23.696   0.441  53.879  1.00  0.00    -0.384 N 
HETATM   16  H14 UNL     1      19.089   3.515  51.043  1.00  0.00     0.169 HD
HETATM   17  H24 UNL     1      24.200   0.277  54.786  1.00  0.00     0.160 HD
ENDROOT
BRANCH   1  18
HETATM   18  C2  UNL     1      26.490   0.764  53.537  1.00  0.00     0.041 C 
HETATM   19  C1  UNL     1      26.075   0.086  54.836  1.00  0.00     0.017 C 
BRANCH  18  20
HETATM   20  C3  UNL     1      26.880  -0.331  52.552  1.00  0.00     0.021 C 
BRANCH  20  21
HETATM   21  C4  UNL     1      28.177  -0.984  52.981  1.00  0.00     0.110 C 
BRANCH  21  22
HETATM   22  C5  UNL     1      28.012  -2.452  52.864  1.00  0.00     0.139 C 
HETATM   23  O1  UNL     1      27.085  -2.885  52.113  1.00  0.00    -0.650 OA
BRANCH  22  24
HETATM   24  O2  UNL     1      28.587  -3.627  53.349  1.00  0.00    -0.776 OA
HETATM   25  H9  UNL     1      29.163  -3.626  54.173  1.00  0.00     0.167 HD
ENDBRANCH  22  24
ENDBRANCH  21  22
ENDBRANCH  20  21
ENDBRANCH  18  20
ENDBRANCH   1  18
BRANCH   1  26
HETATM   26  O3  UNL     1      26.351   2.510  52.376  1.00  0.00    -0.358 OA
HETATM   27  C7  UNL     1      26.558   2.845  51.058  1.00  0.00     0.209 C 
ENDBRANCH   1  26
BRANCH  10  28
HETATM   28  C15 UNL     1      18.006  -1.390  52.808  1.00  0.00    -0.026 A 
HETATM   29  C16 UNL     1      18.120  -2.558  53.531  1.00  0.00     0.012 A 
HETATM   30  C17 UNL     1      17.168  -3.536  53.723  1.00  0.00     0.001 A 
HETATM   31  C18 UNL     1      15.951  -3.284  53.094  1.00  0.00     0.000 A 
HETATM   32  C19 UNL     1      15.736  -2.143  52.346  1.00  0.00     0.001 A 
HETATM   33  C20 UNL     1      16.756  -1.210  52.208  1.00  0.00     0.012 A 
ENDBRANCH  10  28
TORSDOF 7
ENDMDL
