MODEL 1
REMARK VINA RESULT:      -8.8      0.000      0.000
REMARK  7 active torsions:
REMARK  status: ('A' for Active; 'I' for Inactive)
REMARK    1  A    between atoms: N1_1  and  C1_2 
REMARK    2  A    between atoms: C1_2  and  C2_3 
REMARK    3  A    between atoms: C4_6  and  C5_7 
REMARK    4  A    between atoms: N4_10  and  C7_11 
REMARK    5  A    between atoms: C14_19  and  O1_20 
REMARK    6  A    between atoms: O1_20  and  C15_21 
REMARK    7  A    between atoms: C15_21  and  C16_22 
ROOT
HETATM    1  C2  UNL     1      19.654  -0.646  53.222  1.00  0.00     0.095 A 
HETATM    2  N2  UNL     1      20.189  -1.606  54.031  1.00  0.00    -0.260 NA
HETATM    3  C3  UNL     1      21.468  -1.606  54.373  1.00  0.00     0.129 A 
HETATM    4  C4  UNL     1      22.301  -0.629  53.919  1.00  0.00    -0.003 A 
HETATM    5  C13 UNL     1      21.798   0.357  53.099  1.00  0.00     0.052 A 
HETATM    6  C14 UNL     1      20.470   0.378  52.728  1.00  0.00     0.096 A 
ENDROOT
BRANCH   4   7
HETATM    7  C5  UNL     1      23.683  -0.651  54.313  1.00  0.00     0.012 A 
HETATM    8  C6  UNL     1      24.330  -1.251  55.357  1.00  0.00     0.152 A 
HETATM    9  N3  UNL     1      25.647  -0.986  55.299  1.00  0.00    -0.184 NA
HETATM   10  N4  UNL     1      25.876  -0.222  54.235  1.00  0.00    -0.276 N 
HETATM   11  C12 UNL     1      24.709  -0.012  53.633  1.00  0.00     0.126 A 
BRANCH  10  12
HETATM   12  C7  UNL     1      27.173   0.251  53.856  1.00  0.00     0.113 C 
HETATM   13  C8  UNL     1      28.254  -0.027  54.877  1.00  0.00     0.057 C 
HETATM   14  C9  UNL     1      29.574   0.121  54.108  1.00  0.00     0.271 C 
HETATM   15  N5  UNL     1      29.639   1.350  53.371  1.00  0.00     0.083 N 
HETATM   16  C10 UNL     1      28.599   2.292  53.671  1.00  0.00     0.271 C 
HETATM   17  H12 UNL     1      30.552   1.817  53.656  1.00  0.00     0.315 HD
HETATM   18  C11 UNL     1      27.209   1.740  53.596  1.00  0.00     0.057 C 
ENDBRANCH  10  12
ENDBRANCH   4   7
BRANCH   6  19
HETATM   19  O1  UNL     1      19.795   1.262  51.934  1.00  0.00    -0.344 OA
BRANCH  19  20
HETATM   20  C15 UNL     1      20.174   2.569  51.595  1.00  0.00     0.218 C 
BRANCH  20  21
HETATM   21  C16 UNL     1      20.931   2.570  50.295  1.00  0.00     0.012 A 
HETATM   22  C17 UNL     1      20.239   2.350  49.110  1.00  0.00     0.044 A 
HETATM   23 CL1  UNL     1      18.517   2.084  49.219  1.00  0.00    -0.084 Cl
HETATM   24  C18 UNL     1      20.920   2.348  47.911  1.00  0.00     0.027 A 
HETATM   25  C19 UNL     1      22.276   2.555  47.815  1.00  0.00     0.046 A 
HETATM   26  C20 UNL     1      22.954   2.773  48.996  1.00  0.00     0.138 A 
HETATM   27  F1  UNL     1      24.293   2.991  49.023  1.00  0.00    -0.204 F 
HETATM   28  C21 UNL     1      22.296   2.782  50.226  1.00  0.00     0.082 A 
HETATM   29 CL2  UNL     1      23.144   3.061  51.746  1.00  0.00    -0.080 Cl
ENDBRANCH  20  21
ENDBRANCH  19  20
ENDBRANCH   6  19
BRANCH   1  30
HETATM   30  C1  UNL     1      18.188  -0.724  52.897  1.00  0.00     0.328 C 
BRANCH  30  31
HETATM   31  N1  UNL     1      17.611  -1.652  53.872  1.00  0.00     0.084 N 
HETATM   32  H1  UNL     1      17.069  -1.078  54.567  1.00  0.00     0.313 HD
HETATM   33  H2  UNL     1      18.414  -2.048  54.434  1.00  0.00     0.313 HD
ENDBRANCH  30  31
ENDBRANCH   1  30
TORSDOF 7
ENDMDL
MODEL 2
REMARK VINA RESULT:      -8.8      3.574      8.582
REMARK  7 active torsions:
REMARK  status: ('A' for Active; 'I' for Inactive)
REMARK    1  A    between atoms: N1_1  and  C1_2 
REMARK    2  A    between atoms: C1_2  and  C2_3 
REMARK    3  A    between atoms: C4_6  and  C5_7 
REMARK    4  A    between atoms: N4_10  and  C7_11 
REMARK    5  A    between atoms: C14_19  and  O1_20 
REMARK    6  A    between atoms: O1_20  and  C15_21 
REMARK    7  A    between atoms: C15_21  and  C16_22 
ROOT
HETATM    1  C2  UNL     1      24.221  -0.509  54.349  1.00  0.00     0.095 A 
HETATM    2  N2  UNL     1      23.036  -1.166  54.513  1.00  0.00    -0.260 NA
HETATM    3  C3  UNL     1      21.989  -0.931  53.738  1.00  0.00     0.129 A 
HETATM    4  C4  UNL     1      22.065  -0.010  52.737  1.00  0.00    -0.003 A 
HETATM    5  C13 UNL     1      23.245   0.674  52.542  1.00  0.00     0.052 A 
HETATM    6  C14 UNL     1      24.350   0.447  53.335  1.00  0.00     0.096 A 
ENDROOT
BRANCH   4   7
HETATM    7  C5  UNL     1      20.914   0.218  51.908  1.00  0.00     0.012 A 
HETATM    8  C6  UNL     1      20.777   0.724  50.646  1.00  0.00     0.152 A 
HETATM    9  N3  UNL     1      19.481   0.733  50.289  1.00  0.00    -0.184 NA
HETATM   10  N4  UNL     1      18.764   0.241  51.295  1.00  0.00    -0.276 N 
HETATM   11  C12 UNL     1      19.608  -0.073  52.273  1.00  0.00     0.126 A 
BRANCH  10  12
HETATM   12  C7  UNL     1      17.340   0.095  51.263  1.00  0.00     0.113 C 
HETATM   13  C8  UNL     1      16.810  -0.988  52.176  1.00  0.00     0.057 C 
HETATM   14  C9  UNL     1      15.317  -0.672  52.342  1.00  0.00     0.271 C 
HETATM   15  N5  UNL     1      14.662  -0.468  51.083  1.00  0.00     0.083 N 
HETATM   16  C10 UNL     1      15.439  -0.823  49.931  1.00  0.00     0.271 C 
HETATM   17  H12 UNL     1      13.817  -1.116  51.082  1.00  0.00     0.315 HD
HETATM   18  C11 UNL     1      16.807  -0.217  49.883  1.00  0.00     0.057 C 
ENDBRANCH  10  12
ENDBRANCH   4   7
BRANCH   6  19
HETATM   19  O1  UNL     1      25.591   1.019  53.295  1.00  0.00    -0.344 OA
BRANCH  19  20
HETATM   20  C15 UNL     1      26.560   0.889  52.290  1.00  0.00     0.218 C 
BRANCH  20  21
HETATM   21  C16 UNL     1      27.772   0.177  52.827  1.00  0.00     0.012 A 
HETATM   22  C17 UNL     1      28.806   0.926  53.378  1.00  0.00     0.044 A 
HETATM   23 CL1  UNL     1      28.619   2.660  53.408  1.00  0.00    -0.084 Cl
HETATM   24  C18 UNL     1      29.923   0.286  53.874  1.00  0.00     0.027 A 
HETATM   25  C19 UNL     1      30.079  -1.080  53.854  1.00  0.00     0.046 A 
HETATM   26  C20 UNL     1      29.048  -1.813  53.305  1.00  0.00     0.138 A 
HETATM   27  F1  UNL     1      29.093  -3.168  53.234  1.00  0.00    -0.204 F 
HETATM   28  C21 UNL     1      27.905  -1.199  52.795  1.00  0.00     0.082 A 
HETATM   29 CL2  UNL     1      26.575  -2.118  52.092  1.00  0.00    -0.080 Cl
ENDBRANCH  20  21
ENDBRANCH  19  20
ENDBRANCH   6  19
BRANCH   1  30
HETATM   30  C1  UNL     1      25.359  -0.851  55.271  1.00  0.00     0.328 C 
BRANCH  30  31
HETATM   31  N1  UNL     1      24.740  -1.361  56.497  1.00  0.00     0.084 N 
HETATM   32  H1  UNL     1      24.556  -0.534  57.121  1.00  0.00     0.313 HD
HETATM   33  H2  UNL     1      25.481  -1.913  57.011  1.00  0.00     0.313 HD
ENDBRANCH  30  31
ENDBRANCH   1  30
TORSDOF 7
ENDMDL
MODEL 3
REMARK VINA RESULT:      -8.7      2.822      7.040
REMARK  7 active torsions:
REMARK  status: ('A' for Active; 'I' for Inactive)
REMARK    1  A    between atoms: N1_1  and  C1_2 
REMARK    2  A    between atoms: C1_2  and  C2_3 
REMARK    3  A    between atoms: C4_6  and  C5_7 
REMARK    4  A    between atoms: N4_10  and  C7_11 
REMARK    5  A    between atoms: C14_19  and  O1_20 
REMARK    6  A    between atoms: O1_20  and  C15_21 
REMARK    7  A    between atoms: C15_21  and  C16_22 
ROOT
HETATM    1  C2  UNL     1      26.400   1.017  53.140  1.00  0.00     0.095 A 
HETATM    2  N2  UNL     1      26.151   0.011  54.027  1.00  0.00    -0.260 NA
HETATM    3  C3  UNL     1      24.931  -0.462  54.230  1.00  0.00     0.129 A 
HETATM    4  C4  UNL     1      23.871   0.052  53.548  1.00  0.00    -0.003 A 
HETATM    5  C13 UNL     1      24.083   1.071  52.645  1.00  0.00     0.052 A 
HETATM    6  C14 UNL     1      25.343   1.580  52.415  1.00  0.00     0.096 A 
ENDROOT
BRANCH   4   7
HETATM    7  C5  UNL     1      22.560  -0.486  53.784  1.00  0.00     0.012 A 
HETATM    8  C6  UNL     1      22.109  -1.469  54.619  1.00  0.00     0.152 A 
HETATM    9  N3  UNL     1      20.778  -1.611  54.490  1.00  0.00    -0.184 NA
HETATM   10  N4  UNL     1      20.347  -0.738  53.585  1.00  0.00    -0.276 N 
HETATM   11  C12 UNL     1      21.403  -0.056  53.152  1.00  0.00     0.126 A 
BRANCH  10  12
HETATM   12  C7  UNL     1      18.976  -0.602  53.196  1.00  0.00     0.113 C 
HETATM   13  C8  UNL     1      18.183  -1.888  53.271  1.00  0.00     0.057 C 
HETATM   14  C9  UNL     1      16.713  -1.447  53.276  1.00  0.00     0.271 C 
HETATM   15  N5  UNL     1      16.416  -0.530  52.214  1.00  0.00     0.083 N 
HETATM   16  C10 UNL     1      17.451  -0.387  51.231  1.00  0.00     0.271 C 
HETATM   17  H12 UNL     1      15.575  -0.934  51.702  1.00  0.00     0.315 HD
HETATM   18  C11 UNL     1      18.808  -0.083  51.786  1.00  0.00     0.057 C 
ENDBRANCH  10  12
ENDBRANCH   4   7
BRANCH   6  19
HETATM   19  O1  UNL     1      25.747   2.575  51.569  1.00  0.00    -0.344 OA
BRANCH  19  20
HETATM   20  C15 UNL     1      25.094   3.036  50.417  1.00  0.00     0.218 C 
BRANCH  20  21
HETATM   21  C16 UNL     1      25.093   4.541  50.387  1.00  0.00     0.012 A 
HETATM   22  C17 UNL     1      24.090   5.229  51.061  1.00  0.00     0.044 A 
HETATM   23 CL1  UNL     1      22.890   4.283  51.904  1.00  0.00    -0.084 Cl
HETATM   24  C18 UNL     1      24.077   6.607  51.043  1.00  0.00     0.027 A 
HETATM   25  C19 UNL     1      25.019   7.360  50.381  1.00  0.00     0.046 A 
HETATM   26  C20 UNL     1      26.008   6.669  49.716  1.00  0.00     0.138 A 
HETATM   27  F1  UNL     1      26.990   7.307  49.030  1.00  0.00    -0.204 F 
HETATM   28  C21 UNL     1      26.052   5.275  49.714  1.00  0.00     0.082 A 
HETATM   29 CL2  UNL     1      27.310   4.372  48.872  1.00  0.00    -0.080 Cl
ENDBRANCH  20  21
ENDBRANCH  19  20
ENDBRANCH   6  19
BRANCH   1  30
HETATM   30  C1  UNL     1      27.821   1.481  52.969  1.00  0.00     0.328 C 
BRANCH  30  31
HETATM   31  N1  UNL     1      27.960   2.664  53.821  1.00  0.00     0.084 N 
HETATM   32  H1  UNL     1      28.556   2.388  54.643  1.00  0.00     0.313 HD
HETATM   33  H2  UNL     1      27.010   2.856  54.243  1.00  0.00     0.313 HD
ENDBRANCH  30  31
ENDBRANCH   1  30
TORSDOF 7
ENDMDL
MODEL 4
REMARK VINA RESULT:      -8.6      1.747      2.256
REMARK  7 active torsions:
REMARK  status: ('A' for Active; 'I' for Inactive)
REMARK    1  A    between atoms: N1_1  and  C1_2 
REMARK    2  A    between atoms: C1_2  and  C2_3 
REMARK    3  A    between atoms: C4_6  and  C5_7 
REMARK    4  A    between atoms: N4_10  and  C7_11 
REMARK    5  A    between atoms: C14_19  and  O1_20 
REMARK    6  A    between atoms: O1_20  and  C15_21 
REMARK    7  A    between atoms: C15_21  and  C16_22 
ROOT
HETATM    1  C2  UNL     1      19.875   0.067  51.973  1.00  0.00     0.095 A 
HETATM    2  N2  UNL     1      20.044  -0.516  53.195  1.00  0.00    -0.260 NA
HETATM    3  C3  UNL     1      21.235  -0.626  53.763  1.00  0.00     0.129 A 
HETATM    4  C4  UNL     1      22.345  -0.153  53.132  1.00  0.00    -0.003 A 
HETATM    5  C13 UNL     1      22.214   0.441  51.896  1.00  0.00     0.052 A 
HETATM    6  C14 UNL     1      20.985   0.568  51.284  1.00  0.00     0.096 A 
ENDROOT
BRANCH   4   7
HETATM    7  C5  UNL     1      23.623  -0.281  53.777  1.00  0.00     0.012 A 
HETATM    8  C6  UNL     1      24.070  -1.102  54.773  1.00  0.00     0.152 A 
HETATM    9  N3  UNL     1      25.365  -0.850  55.034  1.00  0.00    -0.184 NA
HETATM   10  N4  UNL     1      25.775   0.123  54.227  1.00  0.00    -0.276 N 
HETATM   11  C12 UNL     1      24.743   0.475  53.466  1.00  0.00     0.126 A 
BRANCH  10  12
HETATM   12  C7  UNL     1      27.108   0.647  54.222  1.00  0.00     0.113 C 
HETATM   13  C8  UNL     1      27.351   1.706  53.169  1.00  0.00     0.057 C 
HETATM   14  C9  UNL     1      28.623   2.434  53.625  1.00  0.00     0.271 C 
HETATM   15  N5  UNL     1      29.690   1.525  53.930  1.00  0.00     0.083 N 
HETATM   16  C10 UNL     1      29.459   0.165  53.534  1.00  0.00     0.271 C 
HETATM   17  H12 UNL     1      30.530   1.858  53.369  1.00  0.00     0.315 HD
HETATM   18  C11 UNL     1      28.161  -0.415  54.005  1.00  0.00     0.057 C 
ENDBRANCH  10  12
ENDBRANCH   4   7
BRANCH   6  19
HETATM   19  O1  UNL     1      20.659   1.120  50.077  1.00  0.00    -0.344 OA
BRANCH  19  20
HETATM   20  C15 UNL     1      20.676   2.478  49.725  1.00  0.00     0.218 C 
BRANCH  20  21
HETATM   21  C16 UNL     1      22.039   3.063  49.980  1.00  0.00     0.012 A 
HETATM   22  C17 UNL     1      23.040   2.882  49.033  1.00  0.00     0.044 A 
HETATM   23 CL1  UNL     1      22.637   1.975  47.597  1.00  0.00    -0.084 Cl
HETATM   24  C18 UNL     1      24.293   3.413  49.254  1.00  0.00     0.027 A 
HETATM   25  C19 UNL     1      24.619   4.128  50.382  1.00  0.00     0.046 A 
HETATM   26  C20 UNL     1      23.620   4.303  51.315  1.00  0.00     0.138 A 
HETATM   27  F1  UNL     1      23.827   4.992  52.466  1.00  0.00    -0.204 F 
HETATM   28  C21 UNL     1      22.341   3.779  51.124  1.00  0.00     0.082 A 
HETATM   29 CL2  UNL     1      21.049   3.993  52.303  1.00  0.00    -0.080 Cl
ENDBRANCH  20  21
ENDBRANCH  19  20
ENDBRANCH   6  19
BRANCH   1  30
HETATM   30  C1  UNL     1      18.482   0.156  51.413  1.00  0.00     0.328 C 
BRANCH  30  31
HETATM   31  N1  UNL     1      18.045   1.534  51.646  1.00  0.00     0.084 N 
HETATM   32  H1  UNL     1      18.532   2.141  50.938  1.00  0.00     0.313 HD
HETATM   33  H2  UNL     1      18.456   1.837  52.572  1.00  0.00     0.313 HD
ENDBRANCH  30  31
ENDBRANCH   1  30
TORSDOF 7
ENDMDL
MODEL 5
REMARK VINA RESULT:      -8.5      3.662      8.618
REMARK  7 active torsions:
REMARK  status: ('A' for Active; 'I' for Inactive)
REMARK    1  A    between atoms: N1_1  and  C1_2 
REMARK    2  A    between atoms: C1_2  and  C2_3 
REMARK    3  A    between atoms: C4_6  and  C5_7 
REMARK    4  A    between atoms: N4_10  and  C7_11 
REMARK    5  A    between atoms: C14_19  and  O1_20 
REMARK    6  A    between atoms: O1_20  and  C15_21 
REMARK    7  A    between atoms: C15_21  and  C16_22 
ROOT
HETATM    1  C2  UNL     1      24.954   2.576  50.756  1.00  0.00     0.095 A 
HETATM    2  N2  UNL     1      23.788   2.582  50.046  1.00  0.00    -0.260 NA
HETATM    3  C3  UNL     1      22.674   2.046  50.520  1.00  0.00     0.129 A 
HETATM    4  C4  UNL     1      22.659   1.463  51.751  1.00  0.00    -0.003 A 
HETATM    5  C13 UNL     1      23.817   1.438  52.496  1.00  0.00     0.052 A 
HETATM    6  C14 UNL     1      24.990   1.989  52.026  1.00  0.00     0.096 A 
ENDROOT
BRANCH   4   7
HETATM    7  C5  UNL     1      21.432   0.897  52.240  1.00  0.00     0.012 A 
HETATM    8  C6  UNL     1      21.115   0.270  53.412  1.00  0.00     0.152 A 
HETATM    9  N3  UNL     1      19.817  -0.081  53.412  1.00  0.00    -0.184 NA
HETATM   10  N4  UNL     1      19.277   0.304  52.260  1.00  0.00    -0.276 N 
HETATM   11  C12 UNL     1      20.232   0.892  51.546  1.00  0.00     0.126 A 
BRANCH  10  12
HETATM   12  C7  UNL     1      17.903   0.099  51.915  1.00  0.00     0.113 C 
HETATM   13  C8  UNL     1      17.317  -1.189  52.450  1.00  0.00     0.057 C 
HETATM   14  C9  UNL     1      15.797  -0.993  52.380  1.00  0.00     0.271 C 
HETATM   15  N5  UNL     1      15.366  -0.539  51.089  1.00  0.00     0.083 N 
HETATM   16  C10 UNL     1      16.371  -0.584  50.066  1.00  0.00     0.271 C 
HETATM   17  H12 UNL     1      14.600  -1.211  50.781  1.00  0.00     0.315 HD
HETATM   18  C11 UNL     1      17.662   0.084  50.422  1.00  0.00     0.057 C 
ENDBRANCH  10  12
ENDBRANCH   4   7
BRANCH   6  19
HETATM   19  O1  UNL     1      26.223   2.061  52.612  1.00  0.00    -0.344 OA
BRANCH  19  20
HETATM   20  C15 UNL     1      26.620   1.510  53.838  1.00  0.00     0.218 C 
BRANCH  20  21
HETATM   21  C16 UNL     1      27.678   0.462  53.619  1.00  0.00     0.012 A 
HETATM   22  C17 UNL     1      29.016   0.818  53.744  1.00  0.00     0.044 A 
HETATM   23 CL1  UNL     1      29.375   2.476  54.151  1.00  0.00    -0.084 Cl
HETATM   24  C18 UNL     1      29.996  -0.132  53.546  1.00  0.00     0.027 A 
HETATM   25  C19 UNL     1      29.722  -1.441  53.224  1.00  0.00     0.046 A 
HETATM   26  C20 UNL     1      28.393  -1.783  53.102  1.00  0.00     0.138 A 
HETATM   27  F1  UNL     1      28.004  -3.045  52.789  1.00  0.00    -0.204 F 
HETATM   28  C21 UNL     1      27.376  -0.848  53.296  1.00  0.00     0.082 A 
HETATM   29 CL2  UNL     1      25.670  -1.266  53.148  1.00  0.00    -0.080 Cl
ENDBRANCH  20  21
ENDBRANCH  19  20
ENDBRANCH   6  19
BRANCH   1  30
HETATM   30  C1  UNL     1      26.165   3.219  50.139  1.00  0.00     0.328 C 
BRANCH  30  31
HETATM   31  N1  UNL     1      26.052   4.650  50.434  1.00  0.00     0.084 N 
HETATM   32  H1  UNL     1      26.743   5.151  49.818  1.00  0.00     0.313 HD
HETATM   33  H2  UNL     1      26.426   4.795  51.412  1.00  0.00     0.313 HD
ENDBRANCH  30  31
ENDBRANCH   1  30
TORSDOF 7
ENDMDL
MODEL 6
REMARK VINA RESULT:      -8.4      3.679      7.383
REMARK  7 active torsions:
REMARK  status: ('A' for Active; 'I' for Inactive)
REMARK    1  A    between atoms: N1_1  and  C1_2 
REMARK    2  A    between atoms: C1_2  and  C2_3 
REMARK    3  A    between atoms: C4_6  and  C5_7 
REMARK    4  A    between atoms: N4_10  and  C7_11 
REMARK    5  A    between atoms: C14_19  and  O1_20 
REMARK    6  A    between atoms: O1_20  and  C15_21 
REMARK    7  A    between atoms: C15_21  and  C16_22 
ROOT
HETATM    1  C2  UNL     1      22.950  -0.925  54.684  1.00  0.00     0.095 A 
HETATM    2  N2  UNL     1      21.667  -0.558  54.971  1.00  0.00    -0.260 NA
HETATM    3  C3  UNL     1      21.021   0.355  54.262  1.00  0.00     0.129 A 
HETATM    4  C4  UNL     1      21.630   0.966  53.208  1.00  0.00    -0.003 A 
HETATM    5  C13 UNL     1      22.925   0.623  52.889  1.00  0.00     0.052 A 
HETATM    6  C14 UNL     1      23.619  -0.325  53.611  1.00  0.00     0.096 A 
ENDROOT
BRANCH   4   7
HETATM    7  C5  UNL     1      20.901   1.948  52.453  1.00  0.00     0.012 A 
HETATM    8  C6  UNL     1      19.648   1.941  51.908  1.00  0.00     0.152 A 
HETATM    9  N3  UNL     1      19.405   3.113  51.293  1.00  0.00    -0.184 NA
HETATM   10  N4  UNL     1      20.478   3.887  51.426  1.00  0.00    -0.276 N 
HETATM   11  C12 UNL     1      21.383   3.204  52.119  1.00  0.00     0.126 A 
BRANCH  10  12
HETATM   12  C7  UNL     1      20.572   5.215  50.899  1.00  0.00     0.113 C 
HETATM   13  C8  UNL     1      20.549   5.283  49.388  1.00  0.00     0.057 C 
HETATM   14  C9  UNL     1      20.195   6.741  49.061  1.00  0.00     0.271 C 
HETATM   15  N5  UNL     1      21.026   7.673  49.768  1.00  0.00     0.083 N 
HETATM   16  C10 UNL     1      22.153   7.092  50.438  1.00  0.00     0.271 C 
HETATM   17  H12 UNL     1      21.425   8.329  49.031  1.00  0.00     0.315 HD
HETATM   18  C11 UNL     1      21.827   5.938  51.335  1.00  0.00     0.057 C 
ENDBRANCH  10  12
ENDBRANCH   4   7
BRANCH   6  19
HETATM   19  O1  UNL     1      24.893  -0.793  53.448  1.00  0.00    -0.344 OA
BRANCH  19  20
HETATM   20  C15 UNL     1      25.757  -0.563  52.368  1.00  0.00     0.218 C 
BRANCH  20  21
HETATM   21  C16 UNL     1      27.103  -0.111  52.868  1.00  0.00     0.012 A 
HETATM   22  C17 UNL     1      28.096  -1.060  53.084  1.00  0.00     0.044 A 
HETATM   23 CL1  UNL     1      27.703  -2.728  52.756  1.00  0.00    -0.084 Cl
HETATM   24  C18 UNL     1      29.334  -0.660  53.542  1.00  0.00     0.027 A 
HETATM   25  C19 UNL     1      29.652   0.652  53.803  1.00  0.00     0.046 A 
HETATM   26  C20 UNL     1      28.661   1.585  53.585  1.00  0.00     0.138 A 
HETATM   27  F1  UNL     1      28.862   2.909  53.808  1.00  0.00    -0.204 F 
HETATM   28  C21 UNL     1      27.398   1.216  53.123  1.00  0.00     0.082 A 
HETATM   29 CL2  UNL     1      26.118   2.393  52.836  1.00  0.00    -0.080 Cl
ENDBRANCH  20  21
ENDBRANCH  19  20
ENDBRANCH   6  19
BRANCH   1  30
HETATM   30  C1  UNL     1      23.597  -1.979  55.539  1.00  0.00     0.328 C 
BRANCH  30  31
HETATM   31  N1  UNL     1      24.731  -1.323  56.193  1.00  0.00     0.084 N 
HETATM   32  H1  UNL     1      25.291  -0.844  55.442  1.00  0.00     0.313 HD
HETATM   33  H2  UNL     1      25.371  -2.088  56.544  1.00  0.00     0.313 HD
ENDBRANCH  30  31
ENDBRANCH   1  30
TORSDOF 7
ENDMDL
MODEL 7
REMARK VINA RESULT:      -8.3      1.959      2.505
REMARK  7 active torsions:
REMARK  status: ('A' for Active; 'I' for Inactive)
REMARK    1  A    between atoms: N1_1  and  C1_2 
REMARK    2  A    between atoms: C1_2  and  C2_3 
REMARK    3  A    between atoms: C4_6  and  C5_7 
REMARK    4  A    between atoms: N4_10  and  C7_11 
REMARK    5  A    between atoms: C14_19  and  O1_20 
REMARK    6  A    between atoms: O1_20  and  C15_21 
REMARK    7  A    between atoms: C15_21  and  C16_22 
ROOT
HETATM    1  C2  UNL     1      18.911   0.278  51.436  1.00  0.00     0.095 A 
HETATM    2  N2  UNL     1      18.815  -0.277  52.678  1.00  0.00    -0.260 NA
HETATM    3  C3  UNL     1      19.885  -0.558  53.407  1.00  0.00     0.129 A 
HETATM    4  C4  UNL     1      21.132  -0.297  52.928  1.00  0.00    -0.003 A 
HETATM    5  C13 UNL     1      21.268   0.262  51.677  1.00  0.00     0.052 A 
HETATM    6  C14 UNL     1      20.171   0.564  50.899  1.00  0.00     0.096 A 
ENDROOT
BRANCH   4   7
HETATM    7  C5  UNL     1      22.273  -0.607  53.745  1.00  0.00     0.012 A 
HETATM    8  C6  UNL     1      22.387  -1.123  55.005  1.00  0.00     0.152 A 
HETATM    9  N3  UNL     1      23.683  -1.241  55.342  1.00  0.00    -0.184 NA
HETATM   10  N4  UNL     1      24.423  -0.811  54.324  1.00  0.00    -0.276 N 
HETATM   11  C12 UNL     1      23.593  -0.428  53.359  1.00  0.00     0.126 A 
BRANCH  10  12
HETATM   12  C7  UNL     1      25.855  -0.798  54.328  1.00  0.00     0.113 C 
HETATM   13  C8  UNL     1      26.459   0.567  54.573  1.00  0.00     0.057 C 
HETATM   14  C9  UNL     1      27.909   0.290  54.993  1.00  0.00     0.271 C 
HETATM   15  N5  UNL     1      28.579  -0.593  54.083  1.00  0.00     0.083 N 
HETATM   16  C10 UNL     1      27.874  -0.853  52.861  1.00  0.00     0.271 C 
HETATM   17  H12 UNL     1      29.481  -0.102  53.806  1.00  0.00     0.315 HD
HETATM   18  C11 UNL     1      26.456  -1.301  53.035  1.00  0.00     0.057 C 
ENDBRANCH  10  12
ENDBRANCH   4   7
BRANCH   6  19
HETATM   19  O1  UNL     1      20.106   1.116  49.650  1.00  0.00    -0.344 OA
BRANCH  19  20
HETATM   20  C15 UNL     1      20.217   2.471  49.306  1.00  0.00     0.218 C 
BRANCH  20  21
HETATM   21  C16 UNL     1      21.511   3.035  49.827  1.00  0.00     0.012 A 
HETATM   22  C17 UNL     1      21.501   3.773  51.005  1.00  0.00     0.044 A 
HETATM   23 CL1  UNL     1      19.965   3.995  51.804  1.00  0.00    -0.084 Cl
HETATM   24  C18 UNL     1      22.679   4.295  51.494  1.00  0.00     0.027 A 
HETATM   25  C19 UNL     1      23.894   4.126  50.870  1.00  0.00     0.046 A 
HETATM   26  C20 UNL     1      23.894   3.392  49.703  1.00  0.00     0.138 A 
HETATM   27  F1  UNL     1      25.033   3.160  49.004  1.00  0.00    -0.204 F 
HETATM   28  C21 UNL     1      22.720   2.849  49.181  1.00  0.00     0.082 A 
HETATM   29 CL2  UNL     1      22.699   1.906  47.692  1.00  0.00    -0.080 Cl
ENDBRANCH  20  21
ENDBRANCH  19  20
ENDBRANCH   6  19
BRANCH   1  30
HETATM   30  C1  UNL     1      17.639   0.572  50.688  1.00  0.00     0.328 C 
BRANCH  30  31
HETATM   31  N1  UNL     1      17.251   1.929  51.078  1.00  0.00     0.084 N 
HETATM   32  H1  UNL     1      16.199   1.964  51.081  1.00  0.00     0.313 HD
HETATM   33  H2  UNL     1      17.528   2.570  50.284  1.00  0.00     0.313 HD
ENDBRANCH  30  31
ENDBRANCH   1  30
TORSDOF 7
ENDMDL
MODEL 8
REMARK VINA RESULT:      -8.2      3.576      8.126
REMARK  7 active torsions:
REMARK  status: ('A' for Active; 'I' for Inactive)
REMARK    1  A    between atoms: N1_1  and  C1_2 
REMARK    2  A    between atoms: C1_2  and  C2_3 
REMARK    3  A    between atoms: C4_6  and  C5_7 
REMARK    4  A    between atoms: N4_10  and  C7_11 
REMARK    5  A    between atoms: C14_19  and  O1_20 
REMARK    6  A    between atoms: O1_20  and  C15_21 
REMARK    7  A    between atoms: C15_21  and  C16_22 
ROOT
HETATM    1  C2  UNL     1      23.981  -0.419  54.138  1.00  0.00     0.095 A 
HETATM    2  N2  UNL     1      22.730  -0.950  54.258  1.00  0.00    -0.260 NA
HETATM    3  C3  UNL     1      21.714  -0.531  53.521  1.00  0.00     0.129 A 
HETATM    4  C4  UNL     1      21.890   0.462  52.605  1.00  0.00    -0.003 A 
HETATM    5  C13 UNL     1      23.139   1.024  52.456  1.00  0.00     0.052 A 
HETATM    6  C14 UNL     1      24.214   0.604  53.211  1.00  0.00     0.096 A 
ENDROOT
BRANCH   4   7
HETATM    7  C5  UNL     1      20.769   0.891  51.815  1.00  0.00     0.012 A 
HETATM    8  C6  UNL     1      19.684   0.222  51.323  1.00  0.00     0.152 A 
HETATM    9  N3  UNL     1      18.892   1.067  50.639  1.00  0.00    -0.184 NA
HETATM   10  N4  UNL     1      19.438   2.278  50.675  1.00  0.00    -0.276 N 
HETATM   11  C12 UNL     1      20.564   2.190  51.376  1.00  0.00     0.126 A 
BRANCH  10  12
HETATM   12  C7  UNL     1      18.861   3.432  50.054  1.00  0.00     0.113 C 
HETATM   13  C8  UNL     1      18.880   3.395  48.542  1.00  0.00     0.057 C 
HETATM   14  C9  UNL     1      17.843   4.438  48.106  1.00  0.00     0.271 C 
HETATM   15  N5  UNL     1      18.039   5.703  48.754  1.00  0.00     0.083 N 
HETATM   16  C10 UNL     1      19.270   5.827  49.480  1.00  0.00     0.271 C 
HETATM   17  H12 UNL     1      18.079   6.429  47.977  1.00  0.00     0.315 HD
HETATM   18  C11 UNL     1      19.540   4.723  50.454  1.00  0.00     0.057 C 
ENDBRANCH  10  12
ENDBRANCH   4   7
BRANCH   6  19
HETATM   19  O1  UNL     1      25.511   1.034  53.205  1.00  0.00    -0.344 OA
BRANCH  19  20
HETATM   20  C15 UNL     1      26.473   0.836  52.205  1.00  0.00     0.218 C 
BRANCH  20  21
HETATM   21  C16 UNL     1      27.685   0.152  52.777  1.00  0.00     0.012 A 
HETATM   22  C17 UNL     1      28.689   0.925  53.350  1.00  0.00     0.044 A 
HETATM   23 CL1  UNL     1      28.467   2.656  53.362  1.00  0.00    -0.084 Cl
HETATM   24  C18 UNL     1      29.805   0.311  53.879  1.00  0.00     0.027 A 
HETATM   25  C19 UNL     1      29.989  -1.052  53.873  1.00  0.00     0.046 A 
HETATM   26  C20 UNL     1      28.988  -1.809  53.303  1.00  0.00     0.138 A 
HETATM   27  F1  UNL     1      29.060  -3.163  53.242  1.00  0.00    -0.204 F 
HETATM   28  C21 UNL     1      27.846  -1.221  52.759  1.00  0.00     0.082 A 
HETATM   29 CL2  UNL     1      26.553  -2.171  52.028  1.00  0.00    -0.080 Cl
ENDBRANCH  20  21
ENDBRANCH  19  20
ENDBRANCH   6  19
BRANCH   1  30
HETATM   30  C1  UNL     1      25.076  -0.968  55.011  1.00  0.00     0.328 C 
BRANCH  30  31
HETATM   31  N1  UNL     1      24.403  -1.566  56.166  1.00  0.00     0.084 N 
HETATM   32  H1  UNL     1      23.368  -1.445  56.022  1.00  0.00     0.313 HD
HETATM   33  H2  UNL     1      24.621  -0.955  57.001  1.00  0.00     0.313 HD
ENDBRANCH  30  31
ENDBRANCH   1  30
TORSDOF 7
ENDMDL
MODEL 9
REMARK VINA RESULT:      -8.1      3.201      4.497
REMARK  7 active torsions:
REMARK  status: ('A' for Active; 'I' for Inactive)
REMARK    1  A    between atoms: N1_1  and  C1_2 
REMARK    2  A    between atoms: C1_2  and  C2_3 
REMARK    3  A    between atoms: C4_6  and  C5_7 
REMARK    4  A    between atoms: N4_10  and  C7_11 
REMARK    5  A    between atoms: C14_19  and  O1_20 
REMARK    6  A    between atoms: O1_20  and  C15_21 
REMARK    7  A    between atoms: C15_21  and  C16_22 
ROOT
HETATM    1  C2  UNL     1      18.971  -0.540  52.778  1.00  0.00     0.095 A 
HETATM    2  N2  UNL     1      19.921  -0.648  53.752  1.00  0.00    -0.260 NA
HETATM    3  C3  UNL     1      21.147  -0.171  53.594  1.00  0.00     0.129 A 
HETATM    4  C4  UNL     1      21.500   0.452  52.436  1.00  0.00    -0.003 A 
HETATM    5  C13 UNL     1      20.567   0.578  51.430  1.00  0.00     0.052 A 
HETATM    6  C14 UNL     1      19.285   0.091  51.569  1.00  0.00     0.096 A 
ENDROOT
BRANCH   4   7
HETATM    7  C5  UNL     1      22.835   0.965  52.297  1.00  0.00     0.012 A 
HETATM    8  C6  UNL     1      23.456   1.645  51.288  1.00  0.00     0.152 A 
HETATM    9  N3  UNL     1      24.727   1.923  51.631  1.00  0.00    -0.184 NA
HETATM   10  N4  UNL     1      24.949   1.437  52.849  1.00  0.00    -0.276 N 
HETATM   11  C12 UNL     1      23.825   0.860  53.262  1.00  0.00     0.126 A 
BRANCH  10  12
HETATM   12  C7  UNL     1      26.198   1.555  53.539  1.00  0.00     0.113 C 
HETATM   13  C8  UNL     1      27.387   1.778  52.630  1.00  0.00     0.057 C 
HETATM   14  C9  UNL     1      28.489   2.327  53.546  1.00  0.00     0.271 C 
HETATM   15  N5  UNL     1      28.675   1.519  54.717  1.00  0.00     0.083 N 
HETATM   16  C10 UNL     1      27.990   0.258  54.698  1.00  0.00     0.271 C 
HETATM   17  H12 UNL     1      29.714   1.290  54.756  1.00  0.00     0.315 HD
HETATM   18  C11 UNL     1      26.529   0.341  54.377  1.00  0.00     0.057 C 
ENDBRANCH  10  12
ENDBRANCH   4   7
BRANCH   6  19
HETATM   19  O1  UNL     1      18.235   0.122  50.695  1.00  0.00    -0.344 OA
BRANCH  19  20
HETATM   20  C15 UNL     1      17.732   1.232  50.001  1.00  0.00     0.218 C 
BRANCH  20  21
HETATM   21  C16 UNL     1      16.823   2.034  50.894  1.00  0.00     0.012 A 
HETATM   22  C17 UNL     1      17.250   3.275  51.352  1.00  0.00     0.044 A 
HETATM   23 CL1  UNL     1      18.831   3.819  50.851  1.00  0.00    -0.084 Cl
HETATM   24  C18 UNL     1      16.428   4.021  52.170  1.00  0.00     0.027 A 
HETATM   25  C19 UNL     1      15.181   3.600  52.569  1.00  0.00     0.046 A 
HETATM   26  C20 UNL     1      14.767   2.368  52.110  1.00  0.00     0.138 A 
HETATM   27  F1  UNL     1      13.556   1.851  52.439  1.00  0.00    -0.204 F 
HETATM   28  C21 UNL     1      15.573   1.587  51.281  1.00  0.00     0.082 A 
HETATM   29 CL2  UNL     1      15.061   0.011  50.681  1.00  0.00    -0.080 Cl
ENDBRANCH  20  21
ENDBRANCH  19  20
ENDBRANCH   6  19
BRANCH   1  30
HETATM   30  C1  UNL     1      17.604  -1.102  53.053  1.00  0.00     0.328 C 
BRANCH  30  31
HETATM   31  N1  UNL     1      17.805  -2.192  54.011  1.00  0.00     0.084 N 
HETATM   32  H1  UNL     1      18.561  -1.888  54.676  1.00  0.00     0.313 HD
HETATM   33  H2  UNL     1      18.237  -2.996  53.478  1.00  0.00     0.313 HD
ENDBRANCH  30  31
ENDBRANCH   1  30
TORSDOF 7
ENDMDL
