MODEL 1
REMARK VINA RESULT:      -8.4      0.000      0.000
REMARK  3 active torsions:
REMARK  status: ('A' for Active; 'I' for Inactive)
REMARK       I    between atoms: C3_3  and  N1_5 
REMARK    1  A    between atoms: N1_5  and  C4_6 
REMARK    2  A    between atoms: C7_9  and  N2_10 
REMARK    3  A    between atoms: N2_10  and  C8_11 
ROOT
HETATM    1  C1  UNL     1      30.120  -0.889  53.618  1.00  0.00     0.022 C 
HETATM    2  C2  UNL     1      28.954  -0.707  53.466  1.00  0.00    -0.016 C 
HETATM    3  C3  UNL     1      27.558  -0.507  53.302  1.00  0.00     0.301 C 
HETATM    4  O1  UNL     1      26.713  -0.854  52.452  1.00  0.00    -0.258 OA
HETATM    5  N1  UNL     1      26.816   0.260  54.280  1.00  0.00    -0.301 N 
HETATM    6  H2  UNL     1      27.272   0.683  55.127  1.00  0.00     0.171 HD
ENDROOT
BRANCH   5   7
HETATM    7  C4  UNL     1      25.443   0.347  53.928  1.00  0.00     0.131 A 
HETATM    8  C5  UNL     1      25.007   1.400  53.222  1.00  0.00     0.065 A 
HETATM    9  C6  UNL     1      23.658   1.667  52.770  1.00  0.00     0.014 A 
HETATM   10  C7  UNL     1      23.321   2.737  52.104  1.00  0.00     0.102 C 
HETATM   11  C14 UNL     1      22.628   0.672  53.116  1.00  0.00     0.098 A 
HETATM   12  N3  UNL     1      21.431   0.872  52.729  1.00  0.00    -0.172 NA
HETATM   13  C16 UNL     1      23.172  -0.432  53.877  1.00  0.00     0.152 A 
HETATM   14  C15 UNL     1      20.370   0.032  52.977  1.00  0.00     0.206 C 
HETATM   15  N4  UNL     1      19.495  -0.666  53.172  1.00  0.00    -0.170 NA
HETATM   16  N5  UNL     1      24.397  -0.559  54.223  1.00  0.00    -0.241 NA
BRANCH  10  17
HETATM   17  N2  UNL     1      23.627   3.966  51.496  1.00  0.00    -0.365 N 
HETATM   18  H5  UNL     1      23.074   4.849  51.600  1.00  0.00     0.165 HD
BRANCH  17  19
HETATM   19  C8  UNL     1      24.773   4.150  50.647  1.00  0.00     0.033 A 
HETATM   20  C9  UNL     1      25.600   3.147  50.232  1.00  0.00     0.029 A 
HETATM   21  C10 UNL     1      26.658   3.444  49.402  1.00  0.00     0.004 A 
HETATM   22  C11 UNL     1      26.801   4.786  49.044  1.00  0.00     0.019 A 
HETATM   23  C12 UNL     1      25.971   5.808  49.459  1.00  0.00     0.013 A 
HETATM   24 BR1  UNL     1      26.239   7.626  48.911  1.00  0.00    -0.051 Br
HETATM   25  C13 UNL     1      24.927   5.488  50.282  1.00  0.00     0.048 A 
ENDBRANCH  17  19
ENDBRANCH  10  17
ENDBRANCH   5   7
TORSDOF 3
ENDMDL
MODEL 2
REMARK VINA RESULT:      -8.1      1.826      4.905
REMARK  3 active torsions:
REMARK  status: ('A' for Active; 'I' for Inactive)
REMARK       I    between atoms: C3_3  and  N1_5 
REMARK    1  A    between atoms: N1_5  and  C4_6 
REMARK    2  A    between atoms: C7_9  and  N2_10 
REMARK    3  A    between atoms: N2_10  and  C8_11 
ROOT
HETATM    1  C1  UNL     1      18.297  -1.233  53.401  1.00  0.00     0.022 C 
HETATM    2  C2  UNL     1      19.420  -0.854  53.495  1.00  0.00    -0.016 C 
HETATM    3  C3  UNL     1      20.769  -0.426  53.612  1.00  0.00     0.301 C 
HETATM    4  O1  UNL     1      21.448   0.109  54.511  1.00  0.00    -0.258 OA
HETATM    5  N1  UNL     1      21.681  -0.594  52.500  1.00  0.00    -0.301 N 
HETATM    6  H2  UNL     1      21.385  -1.030  51.590  1.00  0.00     0.171 HD
ENDROOT
BRANCH   5   7
HETATM    7  C4  UNL     1      22.972  -0.097  52.817  1.00  0.00     0.131 A 
HETATM    8  C5  UNL     1      23.360   1.093  52.336  1.00  0.00     0.065 A 
HETATM    9  C6  UNL     1      24.625   1.765  52.545  1.00  0.00     0.014 A 
HETATM   10  C7  UNL     1      24.923   2.918  52.014  1.00  0.00     0.102 C 
HETATM   11  C14 UNL     1      25.617   1.074  53.387  1.00  0.00     0.098 A 
HETATM   12  N3  UNL     1      26.739   1.639  53.598  1.00  0.00    -0.172 NA
HETATM   13  C16 UNL     1      25.130  -0.201  53.868  1.00  0.00     0.152 A 
HETATM   14  C15 UNL     1      27.756   1.115  54.361  1.00  0.00     0.206 C 
HETATM   15  N4  UNL     1      28.594   0.688  55.000  1.00  0.00    -0.170 NA
HETATM   16  N5  UNL     1      23.978  -0.696  53.611  1.00  0.00    -0.241 NA
BRANCH  10  17
HETATM   17  N2  UNL     1      24.614   4.033  51.216  1.00  0.00    -0.365 N 
HETATM   18  H5  UNL     1      23.710   4.559  51.233  1.00  0.00     0.165 HD
BRANCH  17  19
HETATM   19  C8  UNL     1      25.540   4.592  50.268  1.00  0.00     0.033 A 
HETATM   20  C9  UNL     1      26.601   3.921  49.733  1.00  0.00     0.029 A 
HETATM   21  C10 UNL     1      27.410   4.557  48.817  1.00  0.00     0.004 A 
HETATM   22  C11 UNL     1      27.067   5.874  48.504  1.00  0.00     0.019 A 
HETATM   23  C12 UNL     1      25.996   6.562  49.040  1.00  0.00     0.013 A 
HETATM   24 BR1  UNL     1      25.595   8.370  48.547  1.00  0.00    -0.051 Br
HETATM   25  C13 UNL     1      25.208   5.908  49.947  1.00  0.00     0.048 A 
ENDBRANCH  17  19
ENDBRANCH  10  17
ENDBRANCH   5   7
TORSDOF 3
ENDMDL
MODEL 3
REMARK VINA RESULT:      -8.0      2.614      5.366
REMARK  3 active torsions:
REMARK  status: ('A' for Active; 'I' for Inactive)
REMARK       I    between atoms: C3_3  and  N1_5 
REMARK    1  A    between atoms: N1_5  and  C4_6 
REMARK    2  A    between atoms: C7_9  and  N2_10 
REMARK    3  A    between atoms: N2_10  and  C8_11 
ROOT
HETATM    1  C1  UNL     1      28.217   5.198  48.391  1.00  0.00     0.022 C 
HETATM    2  C2  UNL     1      27.181   4.833  48.850  1.00  0.00    -0.016 C 
HETATM    3  C3  UNL     1      25.959   4.381  49.413  1.00  0.00     0.301 C 
HETATM    4  O1  UNL     1      25.054   3.604  49.045  1.00  0.00    -0.258 OA
HETATM    5  N1  UNL     1      25.544   4.853  50.717  1.00  0.00    -0.301 N 
HETATM    6  H2  UNL     1      26.120   5.527  51.281  1.00  0.00     0.171 HD
ENDROOT
BRANCH   5   7
HETATM    7  C4  UNL     1      24.296   4.289  51.092  1.00  0.00     0.131 A 
HETATM    8  C5  UNL     1      24.270   3.223  51.906  1.00  0.00     0.065 A 
HETATM    9  C6  UNL     1      23.109   2.512  52.399  1.00  0.00     0.014 A 
HETATM   10  C7  UNL     1      23.182   1.466  53.173  1.00  0.00     0.102 C 
HETATM   11  C14 UNL     1      21.790   3.006  51.966  1.00  0.00     0.098 A 
HETATM   12  N3  UNL     1      20.746   2.408  52.385  1.00  0.00    -0.172 NA
HETATM   13  C16 UNL     1      21.898   4.153  51.091  1.00  0.00     0.152 A 
HETATM   14  C15 UNL     1      19.454   2.757  52.067  1.00  0.00     0.206 C 
HETATM   15  N4  UNL     1      18.386   3.050  51.813  1.00  0.00    -0.170 NA
HETATM   16  N5  UNL     1      22.994   4.699  50.720  1.00  0.00    -0.241 NA
BRANCH  10  17
HETATM   17  N2  UNL     1      23.912   0.509  53.899  1.00  0.00    -0.365 N 
HETATM   18  H5  UNL     1      23.579   0.017  54.761  1.00  0.00     0.165 HD
BRANCH  17  19
HETATM   19  C8  UNL     1      25.231   0.084  53.517  1.00  0.00     0.033 A 
HETATM   20  C9  UNL     1      25.518  -1.106  52.912  1.00  0.00     0.029 A 
HETATM   21  C10 UNL     1      26.822  -1.396  52.576  1.00  0.00     0.004 A 
HETATM   22  C11 UNL     1      27.770  -0.420  52.893  1.00  0.00     0.019 A 
HETATM   23  C12 UNL     1      27.491   0.785  53.506  1.00  0.00     0.013 A 
HETATM   24 BR1  UNL     1      28.858   2.071  53.898  1.00  0.00    -0.051 Br
HETATM   25  C13 UNL     1      26.188   1.050  53.829  1.00  0.00     0.048 A 
ENDBRANCH  17  19
ENDBRANCH  10  17
ENDBRANCH   5   7
TORSDOF 3
ENDMDL
MODEL 4
REMARK VINA RESULT:      -8.0      3.427      6.770
REMARK  3 active torsions:
REMARK  status: ('A' for Active; 'I' for Inactive)
REMARK       I    between atoms: C3_3  and  N1_5 
REMARK    1  A    between atoms: N1_5  and  C4_6 
REMARK    2  A    between atoms: C7_9  and  N2_10 
REMARK    3  A    between atoms: N2_10  and  C8_11 
ROOT
HETATM    1  C1  UNL     1      25.349   6.577  48.486  1.00  0.00     0.022 C 
HETATM    2  C2  UNL     1      25.484   5.525  49.026  1.00  0.00    -0.016 C 
HETATM    3  C3  UNL     1      25.668   4.278  49.680  1.00  0.00     0.301 C 
HETATM    4  O1  UNL     1      26.044   3.144  49.322  1.00  0.00    -0.258 OA
HETATM    5  N1  UNL     1      25.394   4.156  51.096  1.00  0.00    -0.301 N 
HETATM    6  H2  UNL     1      25.060   4.966  51.677  1.00  0.00     0.171 HD
ENDROOT
BRANCH   5   7
HETATM    7  C4  UNL     1      25.633   2.832  51.551  1.00  0.00     0.131 A 
HETATM    8  C5  UNL     1      24.635   2.136  52.114  1.00  0.00     0.065 A 
HETATM    9  C6  UNL     1      24.678   0.786  52.635  1.00  0.00     0.014 A 
HETATM   10  C7  UNL     1      23.657   0.196  53.190  1.00  0.00     0.102 C 
HETATM   11  C14 UNL     1      25.966   0.076  52.542  1.00  0.00     0.098 A 
HETATM   12  N3  UNL     1      26.040  -1.116  52.985  1.00  0.00    -0.172 NA
HETATM   13  C16 UNL     1      26.993   0.889  51.926  1.00  0.00     0.152 A 
HETATM   14  C15 UNL     1      27.171  -1.898  52.964  1.00  0.00     0.206 C 
HETATM   15  N4  UNL     1      28.102  -2.549  52.937  1.00  0.00    -0.170 NA
HETATM   16  N5  UNL     1      26.833   2.085  51.502  1.00  0.00    -0.241 NA
BRANCH  10  17
HETATM   17  N2  UNL     1      22.318   0.176  53.618  1.00  0.00    -0.365 N 
HETATM   18  H5  UNL     1      22.000   0.126  54.613  1.00  0.00     0.165 HD
BRANCH  17  19
HETATM   19  C8  UNL     1      21.209   0.232  52.705  1.00  0.00     0.033 A 
HETATM   20  C9  UNL     1      21.252   0.802  51.465  1.00  0.00     0.029 A 
HETATM   21  C10 UNL     1      20.127   0.778  50.671  1.00  0.00     0.004 A 
HETATM   22  C11 UNL     1      19.002   0.155  51.217  1.00  0.00     0.019 A 
HETATM   23  C12 UNL     1      18.948  -0.423  52.469  1.00  0.00     0.013 A 
HETATM   24 BR1  UNL     1      17.359  -1.264  53.136  1.00  0.00    -0.051 Br
HETATM   25  C13 UNL     1      20.078  -0.387  53.239  1.00  0.00     0.048 A 
ENDBRANCH  17  19
ENDBRANCH  10  17
ENDBRANCH   5   7
TORSDOF 3
ENDMDL
MODEL 5
REMARK VINA RESULT:      -7.8      2.310      5.286
REMARK  3 active torsions:
REMARK  status: ('A' for Active; 'I' for Inactive)
REMARK       I    between atoms: C3_3  and  N1_5 
REMARK    1  A    between atoms: N1_5  and  C4_6 
REMARK    2  A    between atoms: C7_9  and  N2_10 
REMARK    3  A    between atoms: N2_10  and  C8_11 
ROOT
HETATM    1  C1  UNL     1      17.794  -1.214  53.178  1.00  0.00     0.022 C 
HETATM    2  C2  UNL     1      18.930  -0.910  53.352  1.00  0.00    -0.016 C 
HETATM    3  C3  UNL     1      20.295  -0.571  53.554  1.00  0.00     0.301 C 
HETATM    4  O1  UNL     1      21.019  -0.395  54.554  1.00  0.00    -0.258 OA
HETATM    5  N1  UNL     1      21.163  -0.355  52.416  1.00  0.00    -0.301 N 
HETATM    6  H2  UNL     1      20.825  -0.441  51.425  1.00  0.00     0.171 HD
ENDROOT
BRANCH   5   7
HETATM    7  C4  UNL     1      22.479  -0.022  52.833  1.00  0.00     0.131 A 
HETATM    8  C5  UNL     1      22.884   1.256  52.785  1.00  0.00     0.065 A 
HETATM    9  C6  UNL     1      24.174   1.792  53.164  1.00  0.00     0.014 A 
HETATM   10  C7  UNL     1      24.487   3.054  53.061  1.00  0.00     0.102 C 
HETATM   11  C14 UNL     1      25.175   0.833  53.665  1.00  0.00     0.098 A 
HETATM   12  N3  UNL     1      26.320   1.271  54.012  1.00  0.00    -0.172 NA
HETATM   13  C16 UNL     1      24.668  -0.522  53.685  1.00  0.00     0.152 A 
HETATM   14  C15 UNL     1      27.347   0.495  54.497  1.00  0.00     0.206 C 
HETATM   15  N4  UNL     1      28.194  -0.142  54.908  1.00  0.00    -0.170 NA
HETATM   16  N5  UNL     1      23.494  -0.877  53.320  1.00  0.00    -0.241 NA
BRANCH  10  17
HETATM   17  N2  UNL     1      24.183   4.383  52.722  1.00  0.00    -0.365 N 
HETATM   18  H5  UNL     1      24.082   5.174  53.399  1.00  0.00     0.165 HD
BRANCH  17  19
HETATM   19  C8  UNL     1      23.980   4.812  51.365  1.00  0.00     0.033 A 
HETATM   20  C9  UNL     1      24.921   4.737  50.378  1.00  0.00     0.029 A 
HETATM   21  C10 UNL     1      24.603   5.163  49.108  1.00  0.00     0.004 A 
HETATM   22  C11 UNL     1      23.307   5.653  48.929  1.00  0.00     0.019 A 
HETATM   23  C12 UNL     1      22.349   5.734  49.920  1.00  0.00     0.013 A 
HETATM   24 BR1  UNL     1      20.588   6.415  49.583  1.00  0.00    -0.051 Br
HETATM   25  C13 UNL     1      22.688   5.304  51.174  1.00  0.00     0.048 A 
ENDBRANCH  17  19
ENDBRANCH  10  17
ENDBRANCH   5   7
TORSDOF 3
ENDMDL
MODEL 6
REMARK VINA RESULT:      -7.7      1.680      1.958
REMARK  3 active torsions:
REMARK  status: ('A' for Active; 'I' for Inactive)
REMARK       I    between atoms: C3_3  and  N1_5 
REMARK    1  A    between atoms: N1_5  and  C4_6 
REMARK    2  A    between atoms: C7_9  and  N2_10 
REMARK    3  A    between atoms: N2_10  and  C8_11 
ROOT
HETATM    1  C1  UNL     1      30.461  -1.039  53.865  1.00  0.00     0.022 C 
HETATM    2  C2  UNL     1      29.299  -0.787  53.843  1.00  0.00    -0.016 C 
HETATM    3  C3  UNL     1      27.917  -0.460  53.813  1.00  0.00     0.301 C 
HETATM    4  O1  UNL     1      27.030  -0.305  54.678  1.00  0.00    -0.258 OA
HETATM    5  N1  UNL     1      27.256  -0.223  52.548  1.00  0.00    -0.301 N 
HETATM    6  H2  UNL     1      27.763  -0.280  51.628  1.00  0.00     0.171 HD
ENDROOT
BRANCH   5   7
HETATM    7  C4  UNL     1      25.882   0.080  52.737  1.00  0.00     0.131 A 
HETATM    8  C5  UNL     1      25.462   1.348  52.615  1.00  0.00     0.065 A 
HETATM    9  C6  UNL     1      24.114   1.854  52.767  1.00  0.00     0.014 A 
HETATM   10  C7  UNL     1      23.802   3.115  52.652  1.00  0.00     0.102 C 
HETATM   11  C14 UNL     1      23.065   0.872  53.094  1.00  0.00     0.098 A 
HETATM   12  N3  UNL     1      21.866   1.282  53.230  1.00  0.00    -0.172 NA
HETATM   13  C16 UNL     1      23.593  -0.470  53.210  1.00  0.00     0.152 A 
HETATM   14  C15 UNL     1      20.788   0.482  53.531  1.00  0.00     0.206 C 
HETATM   15  N4  UNL     1      19.895  -0.178  53.770  1.00  0.00    -0.170 NA
HETATM   16  N5  UNL     1      24.819  -0.798  53.053  1.00  0.00    -0.241 NA
BRANCH  10  17
HETATM   17  N2  UNL     1      24.139   4.459  52.421  1.00  0.00    -0.365 N 
HETATM   18  H5  UNL     1      24.514   5.123  53.138  1.00  0.00     0.165 HD
BRANCH  17  19
HETATM   19  C8  UNL     1      24.009   5.084  51.132  1.00  0.00     0.033 A 
HETATM   20  C9  UNL     1      24.805   4.815  50.056  1.00  0.00     0.029 A 
HETATM   21  C10 UNL     1      24.571   5.464  48.864  1.00  0.00     0.004 A 
HETATM   22  C11 UNL     1      23.509   6.371  48.856  1.00  0.00     0.019 A 
HETATM   23  C12 UNL     1      22.699   6.651  49.939  1.00  0.00     0.013 A 
HETATM   24 BR1  UNL     1      21.256   7.909  49.835  1.00  0.00    -0.051 Br
HETATM   25  C13 UNL     1      22.951   5.992  51.111  1.00  0.00     0.048 A 
ENDBRANCH  17  19
ENDBRANCH  10  17
ENDBRANCH   5   7
TORSDOF 3
ENDMDL
MODEL 7
REMARK VINA RESULT:      -7.6      2.664      6.662
REMARK  3 active torsions:
REMARK  status: ('A' for Active; 'I' for Inactive)
REMARK       I    between atoms: C3_3  and  N1_5 
REMARK    1  A    between atoms: N1_5  and  C4_6 
REMARK    2  A    between atoms: C7_9  and  N2_10 
REMARK    3  A    between atoms: N2_10  and  C8_11 
ROOT
HETATM    1  C1  UNL     1      23.026   5.913  49.357  1.00  0.00     0.022 C 
HETATM    2  C2  UNL     1      23.579   4.982  49.850  1.00  0.00    -0.016 C 
HETATM    3  C3  UNL     1      24.262   3.884  50.437  1.00  0.00     0.301 C 
HETATM    4  O1  UNL     1      24.649   2.770  50.031  1.00  0.00    -0.258 OA
HETATM    5  N1  UNL     1      24.664   3.940  51.827  1.00  0.00    -0.301 N 
HETATM    6  H2  UNL     1      24.472   4.776  52.435  1.00  0.00     0.171 HD
ENDROOT
BRANCH   5   7
HETATM    7  C4  UNL     1      25.322   2.745  52.218  1.00  0.00     0.131 A 
HETATM    8  C5  UNL     1      24.615   1.753  52.779  1.00  0.00     0.065 A 
HETATM    9  C6  UNL     1      25.099   0.469  53.239  1.00  0.00     0.014 A 
HETATM   10  C7  UNL     1      24.337  -0.430  53.797  1.00  0.00     0.102 C 
HETATM   11  C14 UNL     1      26.540   0.202  53.080  1.00  0.00     0.098 A 
HETATM   12  N3  UNL     1      27.000  -0.920  53.469  1.00  0.00    -0.172 NA
HETATM   13  C16 UNL     1      27.235   1.315  52.470  1.00  0.00     0.152 A 
HETATM   14  C15 UNL     1      28.317  -1.306  53.382  1.00  0.00     0.206 C 
HETATM   15  N4  UNL     1      29.403  -1.632  53.301  1.00  0.00    -0.170 NA
HETATM   16  N5  UNL     1      26.693   2.414  52.102  1.00  0.00    -0.241 NA
BRANCH  10  17
HETATM   17  N2  UNL     1      23.090  -0.882  54.262  1.00  0.00    -0.365 N 
HETATM   18  H5  UNL     1      22.932  -1.431  55.138  1.00  0.00     0.165 HD
BRANCH  17  19
HETATM   19  C8  UNL     1      21.859  -0.623  53.564  1.00  0.00     0.033 A 
HETATM   20  C9  UNL     1      20.615  -0.846  54.080  1.00  0.00     0.029 A 
HETATM   21  C10 UNL     1      19.506  -0.541  53.322  1.00  0.00     0.004 A 
HETATM   22  C11 UNL     1      19.754  -0.014  52.052  1.00  0.00     0.019 A 
HETATM   23  C12 UNL     1      21.008   0.214  51.522  1.00  0.00     0.013 A 
HETATM   24 BR1  UNL     1      21.256   0.949  49.768  1.00  0.00    -0.051 Br
HETATM   25  C13 UNL     1      22.094  -0.097  52.294  1.00  0.00     0.048 A 
ENDBRANCH  17  19
ENDBRANCH  10  17
ENDBRANCH   5   7
TORSDOF 3
ENDMDL
MODEL 8
REMARK VINA RESULT:      -7.4      3.480      6.420
REMARK  3 active torsions:
REMARK  status: ('A' for Active; 'I' for Inactive)
REMARK       I    between atoms: C3_3  and  N1_5 
REMARK    1  A    between atoms: N1_5  and  C4_6 
REMARK    2  A    between atoms: C7_9  and  N2_10 
REMARK    3  A    between atoms: N2_10  and  C8_11 
ROOT
HETATM    1  C1  UNL     1      22.034   8.436  49.860  1.00  0.00     0.022 C 
HETATM    2  C2  UNL     1      22.126   7.375  50.392  1.00  0.00    -0.016 C 
HETATM    3  C3  UNL     1      22.212   6.103  51.016  1.00  0.00     0.301 C 
HETATM    4  O1  UNL     1      22.017   5.674  52.171  1.00  0.00    -0.258 OA
HETATM    5  N1  UNL     1      22.604   4.943  50.244  1.00  0.00    -0.301 N 
HETATM    6  H2  UNL     1      22.830   4.999  49.219  1.00  0.00     0.171 HD
ENDROOT
BRANCH   5   7
HETATM    7  C4  UNL     1      22.635   3.776  51.053  1.00  0.00     0.131 A 
HETATM    8  C5  UNL     1      23.740   3.490  51.757  1.00  0.00     0.065 A 
HETATM    9  C6  UNL     1      23.964   2.359  52.633  1.00  0.00     0.014 A 
HETATM   10  C7  UNL     1      25.086   2.149  53.263  1.00  0.00     0.102 C 
HETATM   11  C14 UNL     1      22.857   1.398  52.781  1.00  0.00     0.098 A 
HETATM   12  N3  UNL     1      23.018   0.394  53.547  1.00  0.00    -0.172 NA
HETATM   13  C16 UNL     1      21.703   1.772  51.991  1.00  0.00     0.152 A 
HETATM   14  C15 UNL     1      22.074  -0.580  53.781  1.00  0.00     0.206 C 
HETATM   15  N4  UNL     1      21.293  -1.379  53.985  1.00  0.00    -0.170 NA
HETATM   16  N5  UNL     1      21.622   2.808  51.245  1.00  0.00    -0.241 NA
BRANCH  10  17
HETATM   17  N2  UNL     1      26.407   2.498  53.594  1.00  0.00    -0.365 N 
HETATM   18  H5  UNL     1      26.730   3.453  53.874  1.00  0.00     0.165 HD
BRANCH  17  19
HETATM   19  C8  UNL     1      27.487   1.549  53.590  1.00  0.00     0.033 A 
HETATM   20  C9  UNL     1      28.767   1.830  53.971  1.00  0.00     0.029 A 
HETATM   21  C10 UNL     1      29.715   0.831  53.943  1.00  0.00     0.004 A 
HETATM   22  C11 UNL     1      29.274  -0.423  53.514  1.00  0.00     0.019 A 
HETATM   23  C12 UNL     1      27.983  -0.717  53.125  1.00  0.00     0.013 A 
HETATM   24 BR1  UNL     1      27.464  -2.472  52.555  1.00  0.00    -0.051 Br
HETATM   25  C13 UNL     1      27.059   0.292  53.163  1.00  0.00     0.048 A 
ENDBRANCH  17  19
ENDBRANCH  10  17
ENDBRANCH   5   7
TORSDOF 3
ENDMDL
MODEL 9
REMARK VINA RESULT:      -7.2      4.426      8.490
REMARK  3 active torsions:
REMARK  status: ('A' for Active; 'I' for Inactive)
REMARK       I    between atoms: C3_3  and  N1_5 
REMARK    1  A    between atoms: N1_5  and  C4_6 
REMARK    2  A    between atoms: C7_9  and  N2_10 
REMARK    3  A    between atoms: N2_10  and  C8_11 
ROOT
HETATM    1  C1  UNL     1      19.072   9.608  50.041  1.00  0.00     0.022 C 
HETATM    2  C2  UNL     1      20.031   8.922  49.891  1.00  0.00    -0.016 C 
HETATM    3  C3  UNL     1      21.192   8.121  49.722  1.00  0.00     0.301 C 
HETATM    4  O1  UNL     1      21.919   7.819  48.754  1.00  0.00    -0.258 OA
HETATM    5  N1  UNL     1      21.776   7.442  50.859  1.00  0.00    -0.301 N 
HETATM    6  H2  UNL     1      21.373   7.517  51.827  1.00  0.00     0.171 HD
ENDROOT
BRANCH   5   7
HETATM    7  C4  UNL     1      22.919   6.693  50.476  1.00  0.00     0.131 A 
HETATM    8  C5  UNL     1      22.894   5.355  50.566  1.00  0.00     0.065 A 
HETATM    9  C6  UNL     1      23.949   4.424  50.226  1.00  0.00     0.014 A 
HETATM   10  C7  UNL     1      23.842   3.132  50.369  1.00  0.00     0.102 C 
HETATM   11  C14 UNL     1      25.208   4.996  49.718  1.00  0.00     0.098 A 
HETATM   12  N3  UNL     1      26.156   4.206  49.404  1.00  0.00    -0.172 NA
HETATM   13  C16 UNL     1      25.161   6.441  49.651  1.00  0.00     0.152 A 
HETATM   14  C15 UNL     1      27.382   4.597  48.917  1.00  0.00     0.206 C 
HETATM   15  N4  UNL     1      28.391   4.917  48.504  1.00  0.00    -0.170 NA
HETATM   16  N5  UNL     1      24.159   7.164  49.985  1.00  0.00    -0.241 NA
BRANCH  10  17
HETATM   17  N2  UNL     1      23.126   1.981  50.740  1.00  0.00    -0.365 N 
HETATM   18  H5  UNL     1      22.257   1.631  50.274  1.00  0.00     0.165 HD
BRANCH  17  19
HETATM   19  C8  UNL     1      23.528   1.131  51.827  1.00  0.00     0.033 A 
HETATM   20  C9  UNL     1      24.808   1.015  52.289  1.00  0.00     0.029 A 
HETATM   21  C10 UNL     1      25.069   0.180  53.353  1.00  0.00     0.004 A 
HETATM   22  C11 UNL     1      23.971  -0.500  53.886  1.00  0.00     0.019 A 
HETATM   23  C12 UNL     1      22.674  -0.391  53.425  1.00  0.00     0.013 A 
HETATM   24 BR1  UNL     1      21.224  -1.359  54.223  1.00  0.00    -0.051 Br
HETATM   25  C13 UNL     1      22.440   0.446  52.368  1.00  0.00     0.048 A 
ENDBRANCH  17  19
ENDBRANCH  10  17
ENDBRANCH   5   7
TORSDOF 3
ENDMDL
