MODEL 1
REMARK VINA RESULT:      -6.9      0.000      0.000
REMARK  9 active torsions:
REMARK  status: ('A' for Active; 'I' for Inactive)
REMARK    1  A    between atoms: O1_2  and  C2_3 
REMARK    2  A    between atoms: C2_3  and  O2_4 
REMARK    3  A    between atoms: O2_4  and  N1_5 
REMARK    4  A    between atoms: C9_14  and  N3_15 
REMARK    5  A    between atoms: N3_15  and  C10_16 
REMARK    6  A    between atoms: C11_17  and  C12_18 
REMARK    7  A    between atoms: C13_19  and  C14_20 
REMARK    8  A    between atoms: C14_20  and  C15_22 
REMARK    9  A    between atoms: C15_22  and  C16_23 
ROOT
HETATM    1  N1  UNL     1      25.258   0.645  53.521  1.00  0.00    -0.139 N 
HETATM    2  N2  UNL     1      24.436  -0.376  54.004  1.00  0.00    -0.151 NA
HETATM    3  C3  UNL     1      23.153  -0.347  53.923  1.00  0.00     0.077 A 
HETATM    4  C4  UNL     1      22.343  -1.490  54.468  1.00  0.00     0.089 A 
HETATM    5  C5  UNL     1      20.901  -1.262  54.277  1.00  0.00    -0.020 A 
HETATM    6  C6  UNL     1      20.316  -0.206  53.704  1.00  0.00    -0.002 A 
HETATM    7  C7  UNL     1      21.180   0.861  53.200  1.00  0.00     0.020 A 
HETATM    8  C8  UNL     1      22.488   0.792  53.303  1.00  0.00     0.031 A 
HETATM    9  S1  UNL     1      23.328   2.210  52.616  1.00  0.00    -0.078 SA
HETATM   10  C9  UNL     1      25.104   1.849  52.727  1.00  0.00     0.302 C 
ENDROOT
BRANCH  10  11
HETATM   11  N3  UNL     1      25.630   1.693  51.372  1.00  0.00    -0.367 N 
HETATM   12  H12 UNL     1      25.508   0.857  50.743  1.00  0.00     0.161 HD
BRANCH  11  13
HETATM   13  C10 UNL     1      26.383   2.722  50.787  1.00  0.00     0.085 C 
HETATM   14  C11 UNL     1      26.333   3.210  49.558  1.00  0.00     0.017 C 
BRANCH  14  15
HETATM   15  C12 UNL     1      27.184   4.285  49.099  1.00  0.00     0.000 C 
HETATM   16  C13 UNL     1      26.731   5.505  48.870  1.00  0.00     0.010 C 
BRANCH  16  17
HETATM   17  C14 UNL     1      25.318   5.914  49.052  1.00  0.00     0.195 C 
HETATM   18  F1  UNL     1      24.901   6.707  48.006  1.00  0.00    -0.245 F 
BRANCH  17  19
HETATM   19  C15 UNL     1      25.098   6.596  50.389  1.00  0.00     0.072 C 
BRANCH  19  20
HETATM   20  C16 UNL     1      23.817   6.105  51.044  1.00  0.00     0.225 C 
HETATM   21  F2  UNL     1      23.529   4.860  50.475  1.00  0.00    -0.255 F 
ENDBRANCH  19  20
ENDBRANCH  17  19
ENDBRANCH  16  17
ENDBRANCH  14  15
ENDBRANCH  11  13
ENDBRANCH  10  11
BRANCH   1  22
HETATM   22  O2  UNL     1      26.557   0.506  53.875  1.00  0.00    -0.232 OA
BRANCH  22  23
HETATM   23  C2  UNL     1      27.143  -0.665  53.458  1.00  0.00     0.371 C 
BRANCH  23  24
HETATM   24  O1  UNL     1      28.325  -0.954  54.125  1.00  0.00    -0.369 OA
HETATM   25  C1  UNL     1      28.692   0.178  54.860  1.00  0.00     0.204 C 
ENDBRANCH  23  24
ENDBRANCH  22  23
ENDBRANCH   1  22
TORSDOF 9
ENDMDL
MODEL 2
REMARK VINA RESULT:      -6.6      3.979      6.144
REMARK  9 active torsions:
REMARK  status: ('A' for Active; 'I' for Inactive)
REMARK    1  A    between atoms: O1_2  and  C2_3 
REMARK    2  A    between atoms: C2_3  and  O2_4 
REMARK    3  A    between atoms: O2_4  and  N1_5 
REMARK    4  A    between atoms: C9_14  and  N3_15 
REMARK    5  A    between atoms: N3_15  and  C10_16 
REMARK    6  A    between atoms: C11_17  and  C12_18 
REMARK    7  A    between atoms: C13_19  and  C14_20 
REMARK    8  A    between atoms: C14_20  and  C15_22 
REMARK    9  A    between atoms: C15_22  and  C16_23 
ROOT
HETATM    1  N1  UNL     1      23.667   4.750  51.419  1.00  0.00    -0.139 N 
HETATM    2  N2  UNL     1      22.632   4.091  52.087  1.00  0.00    -0.151 NA
HETATM    3  C3  UNL     1      22.079   3.017  51.647  1.00  0.00     0.077 A 
HETATM    4  C4  UNL     1      20.970   2.371  52.430  1.00  0.00     0.089 A 
HETATM    5  C5  UNL     1      20.476   1.160  51.757  1.00  0.00    -0.020 A 
HETATM    6  C6  UNL     1      20.906   0.640  50.604  1.00  0.00    -0.002 A 
HETATM    7  C7  UNL     1      21.989   1.332  49.907  1.00  0.00     0.020 A 
HETATM    8  C8  UNL     1      22.528   2.429  50.392  1.00  0.00     0.031 A 
HETATM    9  S1  UNL     1      23.832   3.090  49.367  1.00  0.00    -0.078 SA
HETATM   10  C9  UNL     1      24.527   4.497  50.279  1.00  0.00     0.302 C 
ENDROOT
BRANCH  10  11
HETATM   11  N3  UNL     1      25.894   4.161  50.677  1.00  0.00    -0.367 N 
HETATM   12  H12 UNL     1      26.676   4.838  50.869  1.00  0.00     0.161 HD
BRANCH  11  13
HETATM   13  C10 UNL     1      26.269   2.818  50.836  1.00  0.00     0.085 C 
HETATM   14  C11 UNL     1      26.610   2.163  51.933  1.00  0.00     0.017 C 
BRANCH  14  15
HETATM   15  C12 UNL     1      26.977   0.764  51.937  1.00  0.00     0.000 C 
HETATM   16  C13 UNL     1      26.379  -0.128  52.707  1.00  0.00     0.010 C 
BRANCH  16  17
HETATM   17  C14 UNL     1      25.278   0.192  53.647  1.00  0.00     0.195 C 
HETATM   18  F1  UNL     1      25.375  -0.570  54.791  1.00  0.00    -0.245 F 
BRANCH  17  19
HETATM   19  C15 UNL     1      23.918   0.039  52.992  1.00  0.00     0.072 C 
BRANCH  19  20
HETATM   20  C16 UNL     1      22.925  -0.604  53.947  1.00  0.00     0.225 C 
HETATM   21  F2  UNL     1      22.123  -1.453  53.177  1.00  0.00    -0.255 F 
ENDBRANCH  19  20
ENDBRANCH  17  19
ENDBRANCH  16  17
ENDBRANCH  14  15
ENDBRANCH  11  13
ENDBRANCH  10  11
BRANCH   1  22
HETATM   22  O2  UNL     1      23.974   5.955  51.953  1.00  0.00    -0.232 OA
BRANCH  22  23
HETATM   23  C2  UNL     1      23.916   7.006  51.071  1.00  0.00     0.371 C 
BRANCH  23  24
HETATM   24  O1  UNL     1      22.619   7.420  50.796  1.00  0.00    -0.369 OA
HETATM   25  C1  UNL     1      22.672   8.313  49.721  1.00  0.00     0.204 C 
ENDBRANCH  23  24
ENDBRANCH  22  23
ENDBRANCH   1  22
TORSDOF 9
ENDMDL
MODEL 3
REMARK VINA RESULT:      -6.4      2.071      2.655
REMARK  9 active torsions:
REMARK  status: ('A' for Active; 'I' for Inactive)
REMARK    1  A    between atoms: O1_2  and  C2_3 
REMARK    2  A    between atoms: C2_3  and  O2_4 
REMARK    3  A    between atoms: O2_4  and  N1_5 
REMARK    4  A    between atoms: C9_14  and  N3_15 
REMARK    5  A    between atoms: N3_15  and  C10_16 
REMARK    6  A    between atoms: C11_17  and  C12_18 
REMARK    7  A    between atoms: C13_19  and  C14_20 
REMARK    8  A    between atoms: C14_20  and  C15_22 
REMARK    9  A    between atoms: C15_22  and  C16_23 
ROOT
HETATM    1  N1  UNL     1      24.672   2.092  52.488  1.00  0.00    -0.139 N 
HETATM    2  N2  UNL     1      24.609   0.902  53.218  1.00  0.00    -0.151 NA
HETATM    3  C3  UNL     1      23.505   0.314  53.516  1.00  0.00     0.077 A 
HETATM    4  C4  UNL     1      23.528  -0.966  54.305  1.00  0.00     0.089 A 
HETATM    5  C5  UNL     1      22.167  -1.473  54.539  1.00  0.00    -0.020 A 
HETATM    6  C6  UNL     1      21.017  -0.926  54.135  1.00  0.00    -0.002 A 
HETATM    7  C7  UNL     1      21.085   0.319  53.372  1.00  0.00     0.020 A 
HETATM    8  C8  UNL     1      22.236   0.888  53.088  1.00  0.00     0.031 A 
HETATM    9  S1  UNL     1      22.067   2.396  52.148  1.00  0.00    -0.078 SA
HETATM   10  C9  UNL     1      23.754   2.931  51.743  1.00  0.00     0.302 C 
ENDROOT
BRANCH  10  11
HETATM   11  N3  UNL     1      23.941   2.815  50.297  1.00  0.00    -0.367 N 
HETATM   12  H12 UNL     1      24.108   1.928  49.755  1.00  0.00     0.161 HD
BRANCH  11  13
HETATM   13  C10 UNL     1      23.908   3.962  49.489  1.00  0.00     0.085 C 
HETATM   14  C11 UNL     1      24.848   4.866  49.270  1.00  0.00     0.017 C 
BRANCH  14  15
HETATM   15  C12 UNL     1      24.661   6.006  48.400  1.00  0.00     0.000 C 
HETATM   16  C13 UNL     1      25.583   6.939  48.239  1.00  0.00     0.010 C 
BRANCH  16  17
HETATM   17  C14 UNL     1      26.899   6.932  48.920  1.00  0.00     0.195 C 
HETATM   18  F1  UNL     1      27.049   8.054  49.705  1.00  0.00    -0.245 F 
BRANCH  17  19
HETATM   19  C15 UNL     1      28.042   6.788  47.933  1.00  0.00     0.072 C 
BRANCH  19  20
HETATM   20  C16 UNL     1      28.955   5.637  48.323  1.00  0.00     0.225 C 
HETATM   21  F2  UNL     1      28.165   4.483  48.318  1.00  0.00    -0.255 F 
ENDBRANCH  19  20
ENDBRANCH  17  19
ENDBRANCH  16  17
ENDBRANCH  14  15
ENDBRANCH  11  13
ENDBRANCH  10  11
BRANCH   1  22
HETATM   22  O2  UNL     1      25.910   2.637  52.448  1.00  0.00    -0.232 OA
BRANCH  22  23
HETATM   23  C2  UNL     1      26.926   1.737  52.238  1.00  0.00     0.371 C 
BRANCH  23  24
HETATM   24  O1  UNL     1      28.183   2.254  52.521  1.00  0.00    -0.369 OA
HETATM   25  C1  UNL     1      28.675   1.593  53.651  1.00  0.00     0.204 C 
ENDBRANCH  23  24
ENDBRANCH  22  23
ENDBRANCH   1  22
TORSDOF 9
ENDMDL
MODEL 4
REMARK VINA RESULT:      -6.4      1.973      2.628
REMARK  9 active torsions:
REMARK  status: ('A' for Active; 'I' for Inactive)
REMARK    1  A    between atoms: O1_2  and  C2_3 
REMARK    2  A    between atoms: C2_3  and  O2_4 
REMARK    3  A    between atoms: O2_4  and  N1_5 
REMARK    4  A    between atoms: C9_14  and  N3_15 
REMARK    5  A    between atoms: N3_15  and  C10_16 
REMARK    6  A    between atoms: C11_17  and  C12_18 
REMARK    7  A    between atoms: C13_19  and  C14_20 
REMARK    8  A    between atoms: C14_20  and  C15_22 
REMARK    9  A    between atoms: C15_22  and  C16_23 
ROOT
HETATM    1  N1  UNL     1      26.537   1.814  52.283  1.00  0.00    -0.139 N 
HETATM    2  N2  UNL     1      25.918   0.751  52.947  1.00  0.00    -0.151 NA
HETATM    3  C3  UNL     1      24.645   0.657  53.096  1.00  0.00     0.077 A 
HETATM    4  C4  UNL     1      24.061  -0.521  53.824  1.00  0.00     0.089 A 
HETATM    5  C5  UNL     1      22.593  -0.438  53.885  1.00  0.00    -0.020 A 
HETATM    6  C6  UNL     1      21.814   0.524  53.383  1.00  0.00    -0.002 A 
HETATM    7  C7  UNL     1      22.464   1.635  52.689  1.00  0.00     0.020 A 
HETATM    8  C8  UNL     1      23.771   1.692  52.558  1.00  0.00     0.031 A 
HETATM    9  S1  UNL     1      24.331   3.139  51.674  1.00  0.00    -0.078 SA
HETATM   10  C9  UNL     1      26.126   2.949  51.481  1.00  0.00     0.302 C 
ENDROOT
BRANCH  10  11
HETATM   11  N3  UNL     1      26.421   2.764  50.061  1.00  0.00    -0.367 N 
HETATM   12  H12 UNL     1      26.539   1.846  49.558  1.00  0.00     0.161 HD
BRANCH  11  13
HETATM   13  C10 UNL     1      26.575   3.879  49.223  1.00  0.00     0.085 C 
HETATM   14  C11 UNL     1      27.587   4.725  49.122  1.00  0.00     0.017 C 
BRANCH  14  15
HETATM   15  C12 UNL     1      27.599   5.838  48.201  1.00  0.00     0.000 C 
HETATM   16  C13 UNL     1      26.990   6.983  48.456  1.00  0.00     0.010 C 
BRANCH  16  17
HETATM   17  C14 UNL     1      26.233   7.260  49.700  1.00  0.00     0.195 C 
HETATM   18  F1  UNL     1      24.878   7.144  49.483  1.00  0.00    -0.245 F 
BRANCH  17  19
HETATM   19  C15 UNL     1      26.588   8.615  50.284  1.00  0.00     0.072 C 
BRANCH  19  20
HETATM   20  C16 UNL     1      27.562   9.356  49.382  1.00  0.00     0.225 C 
HETATM   21  F2  UNL     1      28.796   9.351  50.039  1.00  0.00    -0.255 F 
ENDBRANCH  19  20
ENDBRANCH  17  19
ENDBRANCH  16  17
ENDBRANCH  14  15
ENDBRANCH  11  13
ENDBRANCH  10  11
BRANCH   1  22
HETATM   22  O2  UNL     1      27.885   1.815  52.403  1.00  0.00    -0.232 OA
BRANCH  22  23
HETATM   23  C2  UNL     1      28.361   2.450  53.524  1.00  0.00     0.371 C 
BRANCH  23  24
HETATM   24  O1  UNL     1      28.849   1.575  54.485  1.00  0.00    -0.369 OA
HETATM   25  C1  UNL     1      29.459   0.505  53.822  1.00  0.00     0.204 C 
ENDBRANCH  23  24
ENDBRANCH  22  23
ENDBRANCH   1  22
TORSDOF 9
ENDMDL
MODEL 5
REMARK VINA RESULT:      -6.3      2.154      4.708
REMARK  9 active torsions:
REMARK  status: ('A' for Active; 'I' for Inactive)
REMARK    1  A    between atoms: O1_2  and  C2_3 
REMARK    2  A    between atoms: C2_3  and  O2_4 
REMARK    3  A    between atoms: O2_4  and  N1_5 
REMARK    4  A    between atoms: C9_14  and  N3_15 
REMARK    5  A    between atoms: N3_15  and  C10_16 
REMARK    6  A    between atoms: C11_17  and  C12_18 
REMARK    7  A    between atoms: C13_19  and  C14_20 
REMARK    8  A    between atoms: C14_20  and  C15_22 
REMARK    9  A    between atoms: C15_22  and  C16_23 
ROOT
HETATM    1  N1  UNL     1      24.286   0.101  53.389  1.00  0.00    -0.139 N 
HETATM    2  N2  UNL     1      25.418  -0.128  54.177  1.00  0.00    -0.151 NA
HETATM    3  C3  UNL     1      26.523   0.511  54.027  1.00  0.00     0.077 A 
HETATM    4  C4  UNL     1      27.693   0.202  54.919  1.00  0.00     0.089 A 
HETATM    5  C5  UNL     1      28.856   1.041  54.586  1.00  0.00    -0.020 A 
HETATM    6  C6  UNL     1      28.935   1.974  53.633  1.00  0.00    -0.002 A 
HETATM    7  C7  UNL     1      27.750   2.211  52.811  1.00  0.00     0.020 A 
HETATM    8  C8  UNL     1      26.638   1.535  52.996  1.00  0.00     0.031 A 
HETATM    9  S1  UNL     1      25.330   2.001  51.874  1.00  0.00    -0.078 SA
HETATM   10  C9  UNL     1      23.863   1.064  52.391  1.00  0.00     0.302 C 
ENDROOT
BRANCH  10  11
HETATM   11  N3  UNL     1      22.873   2.006  52.911  1.00  0.00    -0.367 N 
HETATM   12  H12 UNL     1      22.378   1.949  53.838  1.00  0.00     0.161 HD
BRANCH  11  13
HETATM   13  C10 UNL     1      22.496   3.122  52.148  1.00  0.00     0.085 C 
HETATM   14  C11 UNL     1      22.568   4.409  52.445  1.00  0.00     0.017 C 
BRANCH  14  15
HETATM   15  C12 UNL     1      22.135   5.454  51.545  1.00  0.00     0.000 C 
HETATM   16  C13 UNL     1      22.977   6.145  50.796  1.00  0.00     0.010 C 
BRANCH  16  17
HETATM   17  C14 UNL     1      24.444   5.936  50.789  1.00  0.00     0.195 C 
HETATM   18  F1  UNL     1      25.105   7.105  51.100  1.00  0.00    -0.245 F 
BRANCH  17  19
HETATM   19  C15 UNL     1      24.924   5.362  49.470  1.00  0.00     0.072 C 
BRANCH  19  20
HETATM   20  C16 UNL     1      23.790   4.661  48.739  1.00  0.00     0.225 C 
HETATM   21  F2  UNL     1      24.005   3.287  48.892  1.00  0.00    -0.255 F 
ENDBRANCH  19  20
ENDBRANCH  17  19
ENDBRANCH  16  17
ENDBRANCH  14  15
ENDBRANCH  11  13
ENDBRANCH  10  11
BRANCH   1  22
HETATM   22  O2  UNL     1      23.299  -0.805  53.585  1.00  0.00    -0.232 OA
BRANCH  22  23
HETATM   23  C2  UNL     1      23.108  -1.171  54.895  1.00  0.00     0.371 C 
BRANCH  23  24
HETATM   24  O1  UNL     1      21.775  -1.146  55.282  1.00  0.00    -0.369 OA
HETATM   25  C1  UNL     1      20.994  -1.391  54.148  1.00  0.00     0.204 C 
ENDBRANCH  23  24
ENDBRANCH  22  23
ENDBRANCH   1  22
TORSDOF 9
ENDMDL
MODEL 6
REMARK VINA RESULT:      -6.2      3.964      6.103
REMARK  9 active torsions:
REMARK  status: ('A' for Active; 'I' for Inactive)
REMARK    1  A    between atoms: O1_2  and  C2_3 
REMARK    2  A    between atoms: C2_3  and  O2_4 
REMARK    3  A    between atoms: O2_4  and  N1_5 
REMARK    4  A    between atoms: C9_14  and  N3_15 
REMARK    5  A    between atoms: N3_15  and  C10_16 
REMARK    6  A    between atoms: C11_17  and  C12_18 
REMARK    7  A    between atoms: C13_19  and  C14_20 
REMARK    8  A    between atoms: C14_20  and  C15_22 
REMARK    9  A    between atoms: C15_22  and  C16_23 
ROOT
HETATM    1  N1  UNL     1      22.694   1.335  50.920  1.00  0.00    -0.139 N 
HETATM    2  N2  UNL     1      21.310   1.283  50.734  1.00  0.00    -0.151 NA
HETATM    3  C3  UNL     1      20.518   0.631  51.509  1.00  0.00     0.077 A 
HETATM    4  C4  UNL     1      19.039   0.628  51.237  1.00  0.00     0.089 A 
HETATM    5  C5  UNL     1      18.314  -0.174  52.236  1.00  0.00    -0.020 A 
HETATM    6  C6  UNL     1      18.831  -0.838  53.274  1.00  0.00    -0.002 A 
HETATM    7  C7  UNL     1      20.279  -0.781  53.465  1.00  0.00     0.020 A 
HETATM    8  C8  UNL     1      21.054  -0.102  52.649  1.00  0.00     0.031 A 
HETATM    9  S1  UNL     1      22.784  -0.180  53.086  1.00  0.00    -0.078 SA
HETATM   10  C9  UNL     1      23.646   0.928  51.935  1.00  0.00     0.302 C 
ENDROOT
BRANCH  10  11
HETATM   11  N3  UNL     1      24.172   2.063  52.692  1.00  0.00    -0.367 N 
HETATM   12  H12 UNL     1      23.613   2.757  53.252  1.00  0.00     0.161 HD
BRANCH  11  13
HETATM   13  C10 UNL     1      25.553   2.311  52.719  1.00  0.00     0.085 C 
HETATM   14  C11 UNL     1      26.446   2.014  53.649  1.00  0.00     0.017 C 
BRANCH  14  15
HETATM   15  C12 UNL     1      27.849   2.339  53.530  1.00  0.00     0.000 C 
HETATM   16  C13 UNL     1      28.808   1.460  53.768  1.00  0.00     0.010 C 
BRANCH  16  17
HETATM   17  C14 UNL     1      28.564   0.058  54.180  1.00  0.00     0.195 C 
HETATM   18  F1  UNL     1      28.282  -0.014  55.526  1.00  0.00    -0.245 F 
BRANCH  17  19
HETATM   19  C15 UNL     1      29.723  -0.847  53.806  1.00  0.00     0.072 C 
BRANCH  19  20
HETATM   20  C16 UNL     1      29.233  -2.077  53.059  1.00  0.00     0.225 C 
HETATM   21  F2  UNL     1      27.837  -1.988  53.017  1.00  0.00    -0.255 F 
ENDBRANCH  19  20
ENDBRANCH  17  19
ENDBRANCH  16  17
ENDBRANCH  14  15
ENDBRANCH  11  13
ENDBRANCH  10  11
BRANCH   1  22
HETATM   22  O2  UNL     1      23.355   1.914  49.891  1.00  0.00    -0.232 OA
BRANCH  22  23
HETATM   23  C2  UNL     1      22.834   3.115  49.477  1.00  0.00     0.371 C 
BRANCH  23  24
HETATM   24  O1  UNL     1      23.794   3.990  48.986  1.00  0.00    -0.369 OA
HETATM   25  C1  UNL     1      23.133   5.008  48.291  1.00  0.00     0.204 C 
ENDBRANCH  23  24
ENDBRANCH  22  23
ENDBRANCH   1  22
TORSDOF 9
ENDMDL
MODEL 7
REMARK VINA RESULT:      -6.1      3.019      4.979
REMARK  9 active torsions:
REMARK  status: ('A' for Active; 'I' for Inactive)
REMARK    1  A    between atoms: O1_2  and  C2_3 
REMARK    2  A    between atoms: C2_3  and  O2_4 
REMARK    3  A    between atoms: O2_4  and  N1_5 
REMARK    4  A    between atoms: C9_14  and  N3_15 
REMARK    5  A    between atoms: N3_15  and  C10_16 
REMARK    6  A    between atoms: C11_17  and  C12_18 
REMARK    7  A    between atoms: C13_19  and  C14_20 
REMARK    8  A    between atoms: C14_20  and  C15_22 
REMARK    9  A    between atoms: C15_22  and  C16_23 
ROOT
HETATM    1  N1  UNL     1      24.350   1.168  52.392  1.00  0.00    -0.139 N 
HETATM    2  N2  UNL     1      25.029   0.546  53.442  1.00  0.00    -0.151 NA
HETATM    3  C3  UNL     1      26.280   0.724  53.678  1.00  0.00     0.077 A 
HETATM    4  C4  UNL     1      26.934   0.015  54.831  1.00  0.00     0.089 A 
HETATM    5  C5  UNL     1      28.363   0.354  54.927  1.00  0.00    -0.020 A 
HETATM    6  C6  UNL     1      29.056   1.174  54.132  1.00  0.00    -0.002 A 
HETATM    7  C7  UNL     1      28.343   1.824  53.034  1.00  0.00     0.020 A 
HETATM    8  C8  UNL     1      27.062   1.614  52.828  1.00  0.00     0.031 A 
HETATM    9  S1  UNL     1      26.412   2.517  51.431  1.00  0.00    -0.078 SA
HETATM   10  C9  UNL     1      24.624   2.203  51.414  1.00  0.00     0.302 C 
ENDROOT
BRANCH  10  11
HETATM   11  N3  UNL     1      23.932   3.455  51.720  1.00  0.00    -0.367 N 
HETATM   12  H12 UNL     1      23.760   3.860  52.676  1.00  0.00     0.161 HD
BRANCH  11  13
HETATM   13  C10 UNL     1      23.421   4.248  50.681  1.00  0.00     0.085 C 
HETATM   14  C11 UNL     1      23.749   4.273  49.399  1.00  0.00     0.017 C 
BRANCH  14  15
HETATM   15  C12 UNL     1      23.125   5.156  48.440  1.00  0.00     0.000 C 
HETATM   16  C13 UNL     1      22.393   4.713  47.433  1.00  0.00     0.010 C 
BRANCH  16  17
HETATM   17  C14 UNL     1      22.129   3.279  47.167  1.00  0.00     0.195 C 
HETATM   18  F1  UNL     1      22.261   2.999  45.825  1.00  0.00    -0.245 F 
BRANCH  17  19
HETATM   19  C15 UNL     1      20.772   2.851  47.693  1.00  0.00     0.072 C 
BRANCH  19  20
HETATM   20  C16 UNL     1      20.916   1.772  48.754  1.00  0.00     0.225 C 
HETATM   21  F2  UNL     1      22.260   1.385  48.748  1.00  0.00    -0.255 F 
ENDBRANCH  19  20
ENDBRANCH  17  19
ENDBRANCH  16  17
ENDBRANCH  14  15
ENDBRANCH  11  13
ENDBRANCH  10  11
BRANCH   1  22
HETATM   22  O2  UNL     1      23.094   0.700  52.208  1.00  0.00    -0.232 OA
BRANCH  22  23
HETATM   23  C2  UNL     1      22.504   0.182  53.335  1.00  0.00     0.371 C 
BRANCH  23  24
HETATM   24  O1  UNL     1      22.136  -1.150  53.198  1.00  0.00    -0.369 OA
HETATM   25  C1  UNL     1      21.387  -1.506  54.325  1.00  0.00     0.204 C 
ENDBRANCH  23  24
ENDBRANCH  22  23
ENDBRANCH   1  22
TORSDOF 9
ENDMDL
MODEL 8
REMARK VINA RESULT:      -6.1      4.008      6.396
REMARK  9 active torsions:
REMARK  status: ('A' for Active; 'I' for Inactive)
REMARK    1  A    between atoms: O1_2  and  C2_3 
REMARK    2  A    between atoms: C2_3  and  O2_4 
REMARK    3  A    between atoms: O2_4  and  N1_5 
REMARK    4  A    between atoms: C9_14  and  N3_15 
REMARK    5  A    between atoms: N3_15  and  C10_16 
REMARK    6  A    between atoms: C11_17  and  C12_18 
REMARK    7  A    between atoms: C13_19  and  C14_20 
REMARK    8  A    between atoms: C14_20  and  C15_22 
REMARK    9  A    between atoms: C15_22  and  C16_23 
ROOT
HETATM    1  N1  UNL     1      22.664   4.373  51.491  1.00  0.00    -0.139 N 
HETATM    2  N2  UNL     1      21.310   4.092  51.698  1.00  0.00    -0.151 NA
HETATM    3  C3  UNL     1      20.818   2.906  51.633  1.00  0.00     0.077 A 
HETATM    4  C4  UNL     1      19.349   2.692  51.870  1.00  0.00     0.089 A 
HETATM    5  C5  UNL     1      18.989   1.270  51.751  1.00  0.00    -0.020 A 
HETATM    6  C6  UNL     1      19.805   0.249  51.473  1.00  0.00    -0.002 A 
HETATM    7  C7  UNL     1      21.220   0.546  51.257  1.00  0.00     0.020 A 
HETATM    8  C8  UNL     1      21.684   1.773  51.332  1.00  0.00     0.031 A 
HETATM    9  S1  UNL     1      23.440   1.886  51.033  1.00  0.00    -0.078 SA
HETATM   10  C9  UNL     1      23.892   3.620  51.326  1.00  0.00     0.302 C 
ENDROOT
BRANCH  10  11
HETATM   11  N3  UNL     1      24.746   3.681  52.512  1.00  0.00    -0.367 N 
HETATM   12  H12 UNL     1      25.270   4.522  52.865  1.00  0.00     0.161 HD
BRANCH  11  13
HETATM   13  C10 UNL     1      24.931   2.538  53.305  1.00  0.00     0.085 C 
HETATM   14  C11 UNL     1      26.052   1.969  53.716  1.00  0.00     0.017 C 
BRANCH  14  15
HETATM   15  C12 UNL     1      26.080   0.781  54.539  1.00  0.00     0.000 C 
HETATM   16  C13 UNL     1      26.792  -0.288  54.226  1.00  0.00     0.010 C 
BRANCH  16  17
HETATM   17  C14 UNL     1      27.636  -0.396  53.012  1.00  0.00     0.195 C 
HETATM   18  F1  UNL     1      26.867  -0.698  51.909  1.00  0.00    -0.245 F 
BRANCH  17  19
HETATM   19  C15 UNL     1      28.760  -1.397  53.197  1.00  0.00     0.072 C 
BRANCH  19  20
HETATM   20  C16 UNL     1      30.036  -0.703  53.645  1.00  0.00     0.225 C 
HETATM   21  F2  UNL     1      29.829   0.668  53.465  1.00  0.00    -0.255 F 
ENDBRANCH  19  20
ENDBRANCH  17  19
ENDBRANCH  16  17
ENDBRANCH  14  15
ENDBRANCH  11  13
ENDBRANCH  10  11
BRANCH   1  22
HETATM   22  O2  UNL     1      22.936   5.696  51.418  1.00  0.00    -0.232 OA
BRANCH  22  23
HETATM   23  C2  UNL     1      22.929   6.214  50.146  1.00  0.00     0.371 C 
BRANCH  23  24
HETATM   24  O1  UNL     1      23.691   7.368  50.019  1.00  0.00    -0.369 OA
HETATM   25  C1  UNL     1      24.965   7.099  50.529  1.00  0.00     0.204 C 
ENDBRANCH  23  24
ENDBRANCH  22  23
ENDBRANCH   1  22
TORSDOF 9
ENDMDL
MODEL 9
REMARK VINA RESULT:      -6.0      3.143      4.191
REMARK  9 active torsions:
REMARK  status: ('A' for Active; 'I' for Inactive)
REMARK    1  A    between atoms: O1_2  and  C2_3 
REMARK    2  A    between atoms: C2_3  and  O2_4 
REMARK    3  A    between atoms: O2_4  and  N1_5 
REMARK    4  A    between atoms: C9_14  and  N3_15 
REMARK    5  A    between atoms: N3_15  and  C10_16 
REMARK    6  A    between atoms: C11_17  and  C12_18 
REMARK    7  A    between atoms: C13_19  and  C14_20 
REMARK    8  A    between atoms: C14_20  and  C15_22 
REMARK    9  A    between atoms: C15_22  and  C16_23 
ROOT
HETATM    1  N1  UNL     1      22.383   2.372  51.341  1.00  0.00    -0.139 N 
HETATM    2  N2  UNL     1      21.527   1.824  52.301  1.00  0.00    -0.151 NA
HETATM    3  C3  UNL     1      21.885   0.901  53.120  1.00  0.00     0.077 A 
HETATM    4  C4  UNL     1      20.900   0.367  54.123  1.00  0.00     0.089 A 
HETATM    5  C5  UNL     1      21.506  -0.679  54.963  1.00  0.00    -0.020 A 
HETATM    6  C6  UNL     1      22.758  -1.143  54.902  1.00  0.00    -0.002 A 
HETATM    7  C7  UNL     1      23.650  -0.568  53.897  1.00  0.00     0.020 A 
HETATM    8  C8  UNL     1      23.244   0.375  53.077  1.00  0.00     0.031 A 
HETATM    9  S1  UNL     1      24.510   0.920  51.942  1.00  0.00    -0.078 SA
HETATM   10  C9  UNL     1      23.793   2.306  51.014  1.00  0.00     0.302 C 
ENDROOT
BRANCH  10  11
HETATM   11  N3  UNL     1      24.508   3.528  51.382  1.00  0.00    -0.367 N 
HETATM   12  H12 UNL     1      24.236   4.212  52.134  1.00  0.00     0.161 HD
BRANCH  11  13
HETATM   13  C10 UNL     1      25.685   3.886  50.705  1.00  0.00     0.085 C 
HETATM   14  C11 UNL     1      25.855   4.252  49.445  1.00  0.00     0.017 C 
BRANCH  14  15
HETATM   15  C12 UNL     1      27.144   4.594  48.889  1.00  0.00     0.000 C 
HETATM   16  C13 UNL     1      27.480   5.833  48.573  1.00  0.00     0.010 C 
BRANCH  16  17
HETATM   17  C14 UNL     1      26.588   7.004  48.749  1.00  0.00     0.195 C 
HETATM   18  F1  UNL     1      25.840   7.222  47.613  1.00  0.00    -0.245 F 
BRANCH  17  19
HETATM   19  C15 UNL     1      27.363   8.244  49.150  1.00  0.00     0.072 C 
BRANCH  19  20
HETATM   20  C16 UNL     1      26.419   9.378  49.518  1.00  0.00     0.225 C 
HETATM   21  F2  UNL     1      25.393   8.812  50.281  1.00  0.00    -0.255 F 
ENDBRANCH  19  20
ENDBRANCH  17  19
ENDBRANCH  16  17
ENDBRANCH  14  15
ENDBRANCH  11  13
ENDBRANCH  10  11
BRANCH   1  22
HETATM   22  O2  UNL     1      21.756   3.189  50.462  1.00  0.00    -0.232 OA
BRANCH  22  23
HETATM   23  C2  UNL     1      21.013   4.190  51.038  1.00  0.00     0.371 C 
BRANCH  23  24
HETATM   24  O1  UNL     1      21.785   5.128  51.712  1.00  0.00    -0.369 OA
HETATM   25  C1  UNL     1      22.018   6.197  50.841  1.00  0.00     0.204 C 
ENDBRANCH  23  24
ENDBRANCH  22  23
ENDBRANCH   1  22
TORSDOF 9
ENDMDL
