MODEL 1
REMARK VINA RESULT:      -7.6      0.000      0.000
REMARK  7 active torsions:
REMARK  status: ('A' for Active; 'I' for Inactive)
REMARK    1  A    between atoms: C5_6  and  N1_7 
REMARK    2  A    between atoms: N1_7  and  C6_8 
REMARK    3  A    between atoms: C9_13  and  C10_14 
REMARK    4  A    between atoms: C11_15  and  C12_16 
REMARK    5  A    between atoms: C12_16  and  N4_17 
REMARK    6  A    between atoms: N4_17  and  C13_18 
REMARK    7  A    between atoms: C13_18  and  N5_19 
ROOT
HETATM    1  C6  UNL     1      22.756   0.494  53.035  1.00  0.00     0.137 A 
HETATM    2  N2  UNL     1      21.493   0.804  53.341  1.00  0.00    -0.224 NA
HETATM    3  C7  UNL     1      20.849   0.179  54.342  1.00  0.00     0.234 A 
HETATM    4  N3  UNL     1      21.469  -0.778  55.061  1.00  0.00    -0.253 NA
HETATM    5  C8  UNL     1      22.753  -1.056  54.710  1.00  0.00     0.133 A 
HETATM    6  C9  UNL     1      23.467  -0.471  53.716  1.00  0.00     0.027 A 
ENDROOT
BRANCH   6   7
HETATM    7  C10 UNL     1      24.824  -0.793  53.377  1.00  0.00     0.014 C 
HETATM    8  C11 UNL     1      26.008  -0.438  53.841  1.00  0.00    -0.006 C 
BRANCH   8   9
HETATM    9  C12 UNL     1      26.734   0.355  54.813  1.00  0.00     0.148 C 
BRANCH   9  10
HETATM   10  N4  UNL     1      28.129  -0.068  55.011  1.00  0.00    -0.373 N 
HETATM   11  H12 UNL     1      28.383  -0.855  55.658  1.00  0.00     0.161 HD
BRANCH  10  12
HETATM   12  C13 UNL     1      29.205   0.568  54.331  1.00  0.00     0.090 C 
HETATM   13  C14 UNL     1      29.954  -0.145  53.510  1.00  0.00     0.016 C 
HETATM   14  C15 UNL     1      29.562  -1.564  53.400  1.00  0.00     0.040 C 
BRANCH  12  15
HETATM   15  N5  UNL     1      29.435   1.960  54.565  1.00  0.00    -0.386 N 
HETATM   16  H13 UNL     1      29.576   1.845  55.612  1.00  0.00     0.157 HD
HETATM   17  H14 UNL     1      29.519   2.940  54.217  1.00  0.00     0.157 HD
ENDBRANCH  12  15
ENDBRANCH  10  12
ENDBRANCH   9  10
ENDBRANCH   8   9
ENDBRANCH   6   7
BRANCH   1  18
HETATM   18  N1  UNL     1      23.395   1.182  51.965  1.00  0.00    -0.362 N 
HETATM   19  H5  UNL     1      23.525   1.037  50.968  1.00  0.00     0.162 HD
BRANCH  18  20
HETATM   20  C5  UNL     1      24.044   2.402  52.314  1.00  0.00     0.141 A 
HETATM   21  C2  UNL     1      23.662   3.654  51.686  1.00  0.00    -0.024 A 
HETATM   22  C1  UNL     1      22.637   4.454  51.758  1.00  0.00     0.022 C 
HETATM   23  C3  UNL     1      24.873   3.761  50.880  1.00  0.00     0.017 A 
HETATM   24 BR1  UNL     1      25.626   4.957  49.604  1.00  0.00    -0.051 Br
HETATM   25  C4  UNL     1      25.250   2.620  51.433  1.00  0.00     0.022 A 
ENDBRANCH  18  20
ENDBRANCH   1  18
TORSDOF 7
ENDMDL
MODEL 2
REMARK VINA RESULT:      -7.5      2.663      4.441
REMARK  7 active torsions:
REMARK  status: ('A' for Active; 'I' for Inactive)
REMARK    1  A    between atoms: C5_6  and  N1_7 
REMARK    2  A    between atoms: N1_7  and  C6_8 
REMARK    3  A    between atoms: C9_13  and  C10_14 
REMARK    4  A    between atoms: C11_15  and  C12_16 
REMARK    5  A    between atoms: C12_16  and  N4_17 
REMARK    6  A    between atoms: N4_17  and  C13_18 
REMARK    7  A    between atoms: C13_18  and  N5_19 
ROOT
HETATM    1  C6  UNL     1      23.105   1.546  51.864  1.00  0.00     0.137 A 
HETATM    2  N2  UNL     1      22.602   2.687  51.385  1.00  0.00    -0.224 NA
HETATM    3  C7  UNL     1      23.383   3.767  51.203  1.00  0.00     0.234 A 
HETATM    4  N3  UNL     1      24.696   3.718  51.504  1.00  0.00    -0.253 NA
HETATM    5  C8  UNL     1      25.158   2.534  51.988  1.00  0.00     0.133 A 
HETATM    6  C9  UNL     1      24.436   1.406  52.198  1.00  0.00     0.027 A 
ENDROOT
BRANCH   6   7
HETATM    7  C10 UNL     1      24.962   0.173  52.711  1.00  0.00     0.014 C 
HETATM    8  C11 UNL     1      25.728  -0.157  53.733  1.00  0.00    -0.006 C 
BRANCH   8   9
HETATM    9  C12 UNL     1      26.475   0.315  54.883  1.00  0.00     0.148 C 
BRANCH   9  10
HETATM   10  N4  UNL     1      27.834  -0.239  54.983  1.00  0.00    -0.373 N 
HETATM   11  H12 UNL     1      28.027  -1.148  55.471  1.00  0.00     0.161 HD
BRANCH  10  12
HETATM   12  C13 UNL     1      28.956   0.432  54.422  1.00  0.00     0.090 C 
HETATM   13  C14 UNL     1      29.752  -0.230  53.602  1.00  0.00     0.016 C 
HETATM   14  C15 UNL     1      29.358  -1.633  53.364  1.00  0.00     0.040 C 
BRANCH  12  15
HETATM   15  N5  UNL     1      29.180   1.801  54.770  1.00  0.00    -0.386 N 
HETATM   16  H13 UNL     1      30.234   1.747  54.641  1.00  0.00     0.157 HD
HETATM   17  H14 UNL     1      28.822   2.735  55.064  1.00  0.00     0.157 HD
ENDBRANCH  12  15
ENDBRANCH  10  12
ENDBRANCH   9  10
ENDBRANCH   8   9
ENDBRANCH   6   7
BRANCH   1  18
HETATM   18  N1  UNL     1      22.238   0.431  52.040  1.00  0.00    -0.362 N 
HETATM   19  H5  UNL     1      22.079  -0.461  51.579  1.00  0.00     0.162 HD
BRANCH  18  20
HETATM   20  C5  UNL     1      21.326   0.523  53.131  1.00  0.00     0.141 A 
HETATM   21  C2  UNL     1      20.869  -0.670  53.822  1.00  0.00    -0.024 A 
HETATM   22  C1  UNL     1      21.401  -1.526  54.647  1.00  0.00     0.022 C 
HETATM   23  C3  UNL     1      19.519  -0.622  53.271  1.00  0.00     0.017 A 
HETATM   24 BR1  UNL     1      17.905  -1.626  53.383  1.00  0.00    -0.051 Br
HETATM   25  C4  UNL     1      19.904   0.468  52.626  1.00  0.00     0.022 A 
ENDBRANCH  18  20
ENDBRANCH   1  18
TORSDOF 7
ENDMDL
MODEL 3
REMARK VINA RESULT:      -7.4      1.747      5.494
REMARK  7 active torsions:
REMARK  status: ('A' for Active; 'I' for Inactive)
REMARK    1  A    between atoms: C5_6  and  N1_7 
REMARK    2  A    between atoms: N1_7  and  C6_8 
REMARK    3  A    between atoms: C9_13  and  C10_14 
REMARK    4  A    between atoms: C11_15  and  C12_16 
REMARK    5  A    between atoms: C12_16  and  N4_17 
REMARK    6  A    between atoms: N4_17  and  C13_18 
REMARK    7  A    between atoms: C13_18  and  N5_19 
ROOT
HETATM    1  C6  UNL     1      27.449   1.562  52.482  1.00  0.00     0.137 A 
HETATM    2  N2  UNL     1      28.371   2.428  52.913  1.00  0.00    -0.224 NA
HETATM    3  C7  UNL     1      29.007   2.238  54.082  1.00  0.00     0.234 A 
HETATM    4  N3  UNL     1      28.725   1.164  54.847  1.00  0.00    -0.253 NA
HETATM    5  C8  UNL     1      27.780   0.314  54.363  1.00  0.00     0.133 A 
HETATM    6  C9  UNL     1      27.098   0.436  53.198  1.00  0.00     0.027 A 
ENDROOT
BRANCH   6   7
HETATM    7  C10 UNL     1      26.107  -0.486  52.721  1.00  0.00     0.014 C 
HETATM    8  C11 UNL     1      24.866  -0.777  53.064  1.00  0.00    -0.006 C 
BRANCH   8   9
HETATM    9  C12 UNL     1      23.763  -0.490  53.960  1.00  0.00     0.148 C 
BRANCH   9  10
HETATM   10  N4  UNL     1      22.442  -0.845  53.419  1.00  0.00    -0.373 N 
HETATM   11  H12 UNL     1      22.285  -1.730  52.878  1.00  0.00     0.161 HD
BRANCH  10  12
HETATM   12  C13 UNL     1      21.310  -0.004  53.603  1.00  0.00     0.090 C 
HETATM   13  C14 UNL     1      20.791   0.609  52.555  1.00  0.00     0.016 C 
HETATM   14  C15 UNL     1      21.479   0.329  51.279  1.00  0.00     0.040 C 
BRANCH  12  15
HETATM   15  N5  UNL     1      20.777   0.149  54.922  1.00  0.00    -0.386 N 
HETATM   16  H13 UNL     1      19.765   0.057  54.613  1.00  0.00     0.157 HD
HETATM   17  H14 UNL     1      20.911   0.295  55.946  1.00  0.00     0.157 HD
ENDBRANCH  12  15
ENDBRANCH  10  12
ENDBRANCH   9  10
ENDBRANCH   8   9
ENDBRANCH   6   7
BRANCH   1  18
HETATM   18  N1  UNL     1      26.801   1.807  51.238  1.00  0.00    -0.362 N 
HETATM   19  H5  UNL     1      26.730   1.339  50.339  1.00  0.00     0.162 HD
BRANCH  18  20
HETATM   20  C5  UNL     1      26.037   3.007  51.165  1.00  0.00     0.141 A 
HETATM   21  C2  UNL     1      24.616   3.003  51.464  1.00  0.00    -0.024 A 
HETATM   22  C1  UNL     1      23.894   2.889  52.542  1.00  0.00     0.022 C 
HETATM   23  C3  UNL     1      24.198   3.181  50.078  1.00  0.00     0.017 A 
HETATM   24 BR1  UNL     1      22.575   3.338  49.095  1.00  0.00    -0.051 Br
HETATM   25  C4  UNL     1      25.485   3.188  49.771  1.00  0.00     0.022 A 
ENDBRANCH  18  20
ENDBRANCH   1  18
TORSDOF 7
ENDMDL
MODEL 4
REMARK VINA RESULT:      -7.1      2.080      2.376
REMARK  7 active torsions:
REMARK  status: ('A' for Active; 'I' for Inactive)
REMARK    1  A    between atoms: C5_6  and  N1_7 
REMARK    2  A    between atoms: N1_7  and  C6_8 
REMARK    3  A    between atoms: C9_13  and  C10_14 
REMARK    4  A    between atoms: C11_15  and  C12_16 
REMARK    5  A    between atoms: C12_16  and  N4_17 
REMARK    6  A    between atoms: N4_17  and  C13_18 
REMARK    7  A    between atoms: C13_18  and  N5_19 
ROOT
HETATM    1  C6  UNL     1      22.260  -0.023  52.804  1.00  0.00     0.137 A 
HETATM    2  N2  UNL     1      21.040  -0.457  53.133  1.00  0.00    -0.224 NA
HETATM    3  C7  UNL     1      20.847  -1.223  54.221  1.00  0.00     0.234 A 
HETATM    4  N3  UNL     1      21.887  -1.570  55.006  1.00  0.00    -0.253 NA
HETATM    5  C8  UNL     1      23.107  -1.103  54.627  1.00  0.00     0.133 A 
HETATM    6  C9  UNL     1      23.380  -0.329  53.549  1.00  0.00     0.027 A 
ENDROOT
BRANCH   6   7
HETATM    7  C10 UNL     1      24.685   0.146  53.184  1.00  0.00     0.014 C 
HETATM    8  C11 UNL     1      25.816   0.347  53.832  1.00  0.00    -0.006 C 
BRANCH   8   9
HETATM    9  C12 UNL     1      26.505   0.276  55.106  1.00  0.00     0.148 C 
BRANCH   9  10
HETATM   10  N4  UNL     1      27.855  -0.304  55.026  1.00  0.00    -0.373 N 
HETATM   11  H12 UNL     1      28.071  -1.260  55.402  1.00  0.00     0.161 HD
BRANCH  10  12
HETATM   12  C13 UNL     1      28.937   0.404  54.432  1.00  0.00     0.090 C 
HETATM   13  C14 UNL     1      29.731  -0.231  53.590  1.00  0.00     0.016 C 
HETATM   14  C15 UNL     1      29.379  -1.647  53.364  1.00  0.00     0.040 C 
BRANCH  12  15
HETATM   15  N5  UNL     1      29.124   1.780  54.773  1.00  0.00    -0.386 N 
HETATM   16  H13 UNL     1      29.422   1.578  55.773  1.00  0.00     0.157 HD
HETATM   17  H14 UNL     1      29.105   2.792  54.519  1.00  0.00     0.157 HD
ENDBRANCH  12  15
ENDBRANCH  10  12
ENDBRANCH   9  10
ENDBRANCH   8   9
ENDBRANCH   6   7
BRANCH   1  18
HETATM   18  N1  UNL     1      22.415   0.784  51.642  1.00  0.00    -0.362 N 
HETATM   19  H5  UNL     1      23.188   1.196  51.127  1.00  0.00     0.162 HD
BRANCH  18  20
HETATM   20  C5  UNL     1      21.208   1.149  50.978  1.00  0.00     0.141 A 
HETATM   21  C2  UNL     1      21.237   1.731  49.648  1.00  0.00    -0.024 A 
HETATM   22  C1  UNL     1      21.486   1.291  48.447  1.00  0.00     0.022 C 
HETATM   23  C3  UNL     1      20.872   3.071  50.092  1.00  0.00     0.017 A 
HETATM   24 BR1  UNL     1      20.570   4.787  49.323  1.00  0.00    -0.051 Br
HETATM   25  C4  UNL     1      20.837   2.573  51.317  1.00  0.00     0.022 A 
ENDBRANCH  18  20
ENDBRANCH   1  18
TORSDOF 7
ENDMDL
MODEL 5
REMARK VINA RESULT:      -7.1      2.649      4.669
REMARK  7 active torsions:
REMARK  status: ('A' for Active; 'I' for Inactive)
REMARK    1  A    between atoms: C5_6  and  N1_7 
REMARK    2  A    between atoms: N1_7  and  C6_8 
REMARK    3  A    between atoms: C9_13  and  C10_14 
REMARK    4  A    between atoms: C11_15  and  C12_16 
REMARK    5  A    between atoms: C12_16  and  N4_17 
REMARK    6  A    between atoms: N4_17  and  C13_18 
REMARK    7  A    between atoms: C13_18  and  N5_19 
ROOT
HETATM    1  C6  UNL     1      24.101   2.974  50.614  1.00  0.00     0.137 A 
HETATM    2  N2  UNL     1      23.141   3.825  50.244  1.00  0.00    -0.224 NA
HETATM    3  C7  UNL     1      23.440   5.054  49.788  1.00  0.00     0.234 A 
HETATM    4  N3  UNL     1      24.725   5.452  49.694  1.00  0.00    -0.253 NA
HETATM    5  C8  UNL     1      25.664   4.549  50.082  1.00  0.00     0.133 A 
HETATM    6  C9  UNL     1      25.441   3.297  50.551  1.00  0.00     0.027 A 
ENDROOT
BRANCH   6   7
HETATM    7  C10 UNL     1      26.463   2.371  50.950  1.00  0.00     0.014 C 
HETATM    8  C11 UNL     1      26.992   2.011  52.104  1.00  0.00    -0.006 C 
BRANCH   8   9
HETATM    9  C12 UNL     1      26.988   2.195  53.543  1.00  0.00     0.148 C 
BRANCH   9  10
HETATM   10  N4  UNL     1      27.745   1.170  54.280  1.00  0.00    -0.373 N 
HETATM   11  H12 UNL     1      27.267   0.443  54.865  1.00  0.00     0.161 HD
BRANCH  10  12
HETATM   12  C13 UNL     1      29.166   1.116  54.233  1.00  0.00     0.090 C 
HETATM   13  C14 UNL     1      29.749   0.027  53.766  1.00  0.00     0.016 C 
HETATM   14  C15 UNL     1      28.815  -1.032  53.336  1.00  0.00     0.040 C 
BRANCH  12  15
HETATM   15  N5  UNL     1      29.911   2.246  54.696  1.00  0.00    -0.386 N 
HETATM   16  H13 UNL     1      30.355   2.445  53.752  1.00  0.00     0.157 HD
HETATM   17  H14 UNL     1      30.192   2.899  55.459  1.00  0.00     0.157 HD
ENDBRANCH  12  15
ENDBRANCH  10  12
ENDBRANCH   9  10
ENDBRANCH   8   9
ENDBRANCH   6   7
BRANCH   1  18
HETATM   18  N1  UNL     1      23.734   1.684  51.092  1.00  0.00    -0.362 N 
HETATM   19  H5  UNL     1      23.626   0.754  50.698  1.00  0.00     0.162 HD
BRANCH  18  20
HETATM   20  C5  UNL     1      23.421   1.606  52.480  1.00  0.00     0.141 A 
HETATM   21  C2  UNL     1      23.539   0.351  53.200  1.00  0.00    -0.024 A 
HETATM   22  C1  UNL     1      24.524  -0.388  53.623  1.00  0.00     0.022 C 
HETATM   23  C3  UNL     1      22.100   0.144  53.321  1.00  0.00     0.017 A 
HETATM   24 BR1  UNL     1      20.910  -1.145  54.063  1.00  0.00    -0.051 Br
HETATM   25  C4  UNL     1      21.958   1.285  52.666  1.00  0.00     0.022 A 
ENDBRANCH  18  20
ENDBRANCH   1  18
TORSDOF 7
ENDMDL
MODEL 6
REMARK VINA RESULT:      -7.0      2.747      5.238
REMARK  7 active torsions:
REMARK  status: ('A' for Active; 'I' for Inactive)
REMARK    1  A    between atoms: C5_6  and  N1_7 
REMARK    2  A    between atoms: N1_7  and  C6_8 
REMARK    3  A    between atoms: C9_13  and  C10_14 
REMARK    4  A    between atoms: C11_15  and  C12_16 
REMARK    5  A    between atoms: C12_16  and  N4_17 
REMARK    6  A    between atoms: N4_17  and  C13_18 
REMARK    7  A    between atoms: C13_18  and  N5_19 
ROOT
HETATM    1  C6  UNL     1      23.253  -0.088  53.374  1.00  0.00     0.137 A 
HETATM    2  N2  UNL     1      22.791  -0.728  54.452  1.00  0.00    -0.224 NA
HETATM    3  C7  UNL     1      21.524  -0.560  54.868  1.00  0.00     0.234 A 
HETATM    4  N3  UNL     1      20.690   0.263  54.202  1.00  0.00    -0.253 NA
HETATM    5  C8  UNL     1      21.208   0.891  53.113  1.00  0.00     0.133 A 
HETATM    6  C9  UNL     1      22.471   0.773  52.633  1.00  0.00     0.027 A 
ENDROOT
BRANCH   6   7
HETATM    7  C10 UNL     1      22.980   1.454  51.476  1.00  0.00     0.014 C 
HETATM    8  C11 UNL     1      23.487   2.651  51.250  1.00  0.00    -0.006 C 
BRANCH   8   9
HETATM    9  C12 UNL     1      23.855   3.932  51.820  1.00  0.00     0.148 C 
BRANCH   9  10
HETATM   10  N4  UNL     1      24.945   4.615  51.105  1.00  0.00    -0.373 N 
HETATM   11  H12 UNL     1      25.785   4.096  50.749  1.00  0.00     0.161 HD
BRANCH  10  12
HETATM   12  C13 UNL     1      24.913   6.016  50.860  1.00  0.00     0.090 C 
HETATM   13  C14 UNL     1      25.501   6.490  49.777  1.00  0.00     0.016 C 
HETATM   14  C15 UNL     1      26.137   5.464  48.927  1.00  0.00     0.040 C 
BRANCH  12  15
HETATM   15  N5  UNL     1      24.245   6.861  51.801  1.00  0.00    -0.386 N 
HETATM   16  H13 UNL     1      24.921   6.652  52.594  1.00  0.00     0.157 HD
HETATM   17  H14 UNL     1      23.475   7.522  52.045  1.00  0.00     0.157 HD
ENDBRANCH  12  15
ENDBRANCH  10  12
ENDBRANCH   9  10
ENDBRANCH   8   9
ENDBRANCH   6   7
BRANCH   1  18
HETATM   18  N1  UNL     1      24.603  -0.297  52.974  1.00  0.00    -0.362 N 
HETATM   19  H5  UNL     1      25.095  -0.910  52.331  1.00  0.00     0.162 HD
BRANCH  18  20
HETATM   20  C5  UNL     1      25.571   0.539  53.602  1.00  0.00     0.141 A 
HETATM   21  C2  UNL     1      26.767   0.956  52.892  1.00  0.00    -0.024 A 
HETATM   22  C1  UNL     1      27.029   1.784  51.920  1.00  0.00     0.022 C 
HETATM   23  C3  UNL     1      27.667   0.100  53.655  1.00  0.00     0.017 A 
HETATM   24 BR1  UNL     1      29.528  -0.304  53.717  1.00  0.00    -0.051 Br
HETATM   25  C4  UNL     1      26.597  -0.302  54.321  1.00  0.00     0.022 A 
ENDBRANCH  18  20
ENDBRANCH   1  18
TORSDOF 7
ENDMDL
MODEL 7
REMARK VINA RESULT:      -7.0      2.812      4.190
REMARK  7 active torsions:
REMARK  status: ('A' for Active; 'I' for Inactive)
REMARK    1  A    between atoms: C5_6  and  N1_7 
REMARK    2  A    between atoms: N1_7  and  C6_8 
REMARK    3  A    between atoms: C9_13  and  C10_14 
REMARK    4  A    between atoms: C11_15  and  C12_16 
REMARK    5  A    between atoms: C12_16  and  N4_17 
REMARK    6  A    between atoms: N4_17  and  C13_18 
REMARK    7  A    between atoms: C13_18  and  N5_19 
ROOT
HETATM    1  C6  UNL     1      24.270   2.362  51.290  1.00  0.00     0.137 A 
HETATM    2  N2  UNL     1      24.651   3.269  50.386  1.00  0.00    -0.224 NA
HETATM    3  C7  UNL     1      25.952   3.481  50.123  1.00  0.00     0.234 A 
HETATM    4  N3  UNL     1      26.903   2.778  50.770  1.00  0.00    -0.253 NA
HETATM    5  C8  UNL     1      26.463   1.868  51.680  1.00  0.00     0.133 A 
HETATM    6  C9  UNL     1      25.173   1.598  51.999  1.00  0.00     0.027 A 
ENDROOT
BRANCH   6   7
HETATM    7  C10 UNL     1      24.749   0.626  52.966  1.00  0.00     0.014 C 
HETATM    8  C11 UNL     1      25.269   0.124  54.070  1.00  0.00    -0.006 C 
BRANCH   8   9
HETATM    9  C12 UNL     1      26.395   0.129  54.983  1.00  0.00     0.148 C 
BRANCH   9  10
HETATM   10  N4  UNL     1      27.586  -0.566  54.469  1.00  0.00    -0.373 N 
HETATM   11  H12 UNL     1      27.567  -1.583  54.214  1.00  0.00     0.161 HD
BRANCH  10  12
HETATM   12  C13 UNL     1      28.825   0.111  54.293  1.00  0.00     0.090 C 
HETATM   13  C14 UNL     1      29.823  -0.525  53.707  1.00  0.00     0.016 C 
HETATM   14  C15 UNL     1      29.510  -1.907  53.293  1.00  0.00     0.040 C 
BRANCH  12  15
HETATM   15  N5  UNL     1      28.944   1.457  54.762  1.00  0.00    -0.386 N 
HETATM   16  H13 UNL     1      29.442   1.804  53.890  1.00  0.00     0.157 HD
HETATM   17  H14 UNL     1      28.783   2.183  55.493  1.00  0.00     0.157 HD
ENDBRANCH  12  15
ENDBRANCH  10  12
ENDBRANCH   9  10
ENDBRANCH   8   9
ENDBRANCH   6   7
BRANCH   1  18
HETATM   18  N1  UNL     1      22.880   2.175  51.535  1.00  0.00    -0.362 N 
HETATM   19  H5  UNL     1      22.144   2.672  52.029  1.00  0.00     0.162 HD
BRANCH  18  20
HETATM   20  C5  UNL     1      22.304   1.001  50.968  1.00  0.00     0.141 A 
HETATM   21  C2  UNL     1      21.277   1.095  49.947  1.00  0.00    -0.024 A 
HETATM   22  C1  UNL     1      21.247   1.431  48.688  1.00  0.00     0.022 C 
HETATM   23  C3  UNL     1      20.194   0.662  50.822  1.00  0.00     0.017 A 
HETATM   24 BR1  UNL     1      18.317   0.356  50.711  1.00  0.00    -0.051 Br
HETATM   25  C4  UNL     1      21.106   0.567  51.776  1.00  0.00     0.022 A 
ENDBRANCH  18  20
ENDBRANCH   1  18
TORSDOF 7
ENDMDL
MODEL 8
REMARK VINA RESULT:      -7.0      2.133      3.323
REMARK  7 active torsions:
REMARK  status: ('A' for Active; 'I' for Inactive)
REMARK    1  A    between atoms: C5_6  and  N1_7 
REMARK    2  A    between atoms: N1_7  and  C6_8 
REMARK    3  A    between atoms: C9_13  and  C10_14 
REMARK    4  A    between atoms: C11_15  and  C12_16 
REMARK    5  A    between atoms: C12_16  and  N4_17 
REMARK    6  A    between atoms: N4_17  and  C13_18 
REMARK    7  A    between atoms: C13_18  and  N5_19 
ROOT
HETATM    1  C6  UNL     1      24.199   3.641  51.467  1.00  0.00     0.137 A 
HETATM    2  N2  UNL     1      22.992   4.211  51.412  1.00  0.00    -0.224 NA
HETATM    3  C7  UNL     1      21.902   3.571  51.869  1.00  0.00     0.234 A 
HETATM    4  N3  UNL     1      22.007   2.334  52.395  1.00  0.00    -0.253 NA
HETATM    5  C8  UNL     1      23.257   1.799  52.428  1.00  0.00     0.133 A 
HETATM    6  C9  UNL     1      24.400   2.380  51.988  1.00  0.00     0.027 A 
ENDROOT
BRANCH   6   7
HETATM    7  C10 UNL     1      25.703   1.781  52.042  1.00  0.00     0.014 C 
HETATM    8  C11 UNL     1      26.388   1.125  52.959  1.00  0.00    -0.006 C 
BRANCH   8   9
HETATM    9  C12 UNL     1      26.398   0.600  54.311  1.00  0.00     0.148 C 
BRANCH   9  10
HETATM   10  N4  UNL     1      27.620  -0.144  54.655  1.00  0.00    -0.373 N 
HETATM   11  H12 UNL     1      27.583  -1.098  55.092  1.00  0.00     0.161 HD
BRANCH  10  12
HETATM   12  C13 UNL     1      28.914   0.394  54.411  1.00  0.00     0.090 C 
HETATM   13  C14 UNL     1      29.785  -0.322  53.723  1.00  0.00     0.016 C 
HETATM   14  C15 UNL     1      29.282  -1.636  53.277  1.00  0.00     0.040 C 
BRANCH  12  15
HETATM   15  N5  UNL     1      29.224   1.692  54.925  1.00  0.00    -0.386 N 
HETATM   16  H13 UNL     1      29.669   1.324  55.816  1.00  0.00     0.157 HD
HETATM   17  H14 UNL     1      29.215   2.732  54.837  1.00  0.00     0.157 HD
ENDBRANCH  12  15
ENDBRANCH  10  12
ENDBRANCH   9  10
ENDBRANCH   8   9
ENDBRANCH   6   7
BRANCH   1  18
HETATM   18  N1  UNL     1      25.323   4.359  50.968  1.00  0.00    -0.362 N 
HETATM   19  H5  UNL     1      26.136   4.823  51.362  1.00  0.00     0.162 HD
BRANCH  18  20
HETATM   20  C5  UNL     1      25.387   4.501  49.552  1.00  0.00     0.141 A 
HETATM   21  C2  UNL     1      26.544   5.105  48.916  1.00  0.00    -0.024 A 
HETATM   22  C1  UNL     1      27.777   4.745  48.698  1.00  0.00     0.022 C 
HETATM   23  C3  UNL     1      25.858   6.342  48.561  1.00  0.00     0.017 A 
HETATM   24 BR1  UNL     1      26.257   7.984  47.684  1.00  0.00    -0.051 Br
HETATM   25  C4  UNL     1      24.785   5.820  49.134  1.00  0.00     0.022 A 
ENDBRANCH  18  20
ENDBRANCH   1  18
TORSDOF 7
ENDMDL
MODEL 9
REMARK VINA RESULT:      -6.9      3.064      5.813
REMARK  7 active torsions:
REMARK  status: ('A' for Active; 'I' for Inactive)
REMARK    1  A    between atoms: C5_6  and  N1_7 
REMARK    2  A    between atoms: N1_7  and  C6_8 
REMARK    3  A    between atoms: C9_13  and  C10_14 
REMARK    4  A    between atoms: C11_15  and  C12_16 
REMARK    5  A    between atoms: C12_16  and  N4_17 
REMARK    6  A    between atoms: N4_17  and  C13_18 
REMARK    7  A    between atoms: C13_18  and  N5_19 
ROOT
HETATM    1  C6  UNL     1      24.236   0.839  53.090  1.00  0.00     0.137 A 
HETATM    2  N2  UNL     1      24.946  -0.273  53.298  1.00  0.00    -0.224 NA
HETATM    3  C7  UNL     1      26.220  -0.214  53.722  1.00  0.00     0.234 A 
HETATM    4  N3  UNL     1      26.810   0.977  53.948  1.00  0.00    -0.253 NA
HETATM    5  C8  UNL     1      26.045   2.079  53.722  1.00  0.00     0.133 A 
HETATM    6  C9  UNL     1      24.758   2.100  53.296  1.00  0.00     0.027 A 
ENDROOT
BRANCH   6   7
HETATM    7  C10 UNL     1      23.983   3.286  53.070  1.00  0.00     0.014 C 
HETATM    8  C11 UNL     1      23.830   4.119  52.058  1.00  0.00    -0.006 C 
BRANCH   8   9
HETATM    9  C12 UNL     1      24.210   4.446  50.697  1.00  0.00     0.148 C 
BRANCH   9  10
HETATM   10  N4  UNL     1      25.631   4.793  50.539  1.00  0.00    -0.373 N 
HETATM   11  H12 UNL     1      26.033   5.676  50.940  1.00  0.00     0.161 HD
BRANCH  10  12
HETATM   12  C13 UNL     1      26.531   3.947  49.833  1.00  0.00     0.090 C 
HETATM   13  C14 UNL     1      27.266   4.462  48.864  1.00  0.00     0.016 C 
HETATM   14  C15 UNL     1      27.051   5.904  48.632  1.00  0.00     0.040 C 
BRANCH  12  15
HETATM   15  N5  UNL     1      26.604   2.567  50.200  1.00  0.00    -0.386 N 
HETATM   16  H13 UNL     1      25.608   2.349  49.900  1.00  0.00     0.157 HD
HETATM   17  H14 UNL     1      27.131   1.755  50.589  1.00  0.00     0.157 HD
ENDBRANCH  12  15
ENDBRANCH  10  12
ENDBRANCH   9  10
ENDBRANCH   8   9
ENDBRANCH   6   7
BRANCH   1  18
HETATM   18  N1  UNL     1      22.890   0.725  52.639  1.00  0.00    -0.362 N 
HETATM   19  H5  UNL     1      22.412   0.707  51.743  1.00  0.00     0.162 HD
BRANCH  18  20
HETATM   20  C5  UNL     1      21.904   0.601  53.660  1.00  0.00     0.141 A 
HETATM   21  C2  UNL     1      21.267  -0.676  53.928  1.00  0.00    -0.024 A 
HETATM   22  C1  UNL     1      21.634  -1.800  54.475  1.00  0.00     0.022 C 
HETATM   23  C3  UNL     1      19.982  -0.295  53.354  1.00  0.00     0.017 A 
HETATM   24 BR1  UNL     1      18.267  -1.074  53.074  1.00  0.00    -0.051 Br
HETATM   25  C4  UNL     1      20.533   0.880  53.095  1.00  0.00     0.022 A 
ENDBRANCH  18  20
ENDBRANCH   1  18
TORSDOF 7
ENDMDL
