MODEL 1
REMARK VINA RESULT:      -8.4      0.000      0.000
REMARK  5 active torsions:
REMARK  status: ('A' for Active; 'I' for Inactive)
REMARK    1  A    between atoms: C5_5  and  N1_6 
REMARK       I    between atoms: N1_6  and  C6_7 
REMARK    2  A    between atoms: C6_7  and  C7_9 
REMARK    3  A    between atoms: C9_11  and  S1_12 
REMARK    4  A    between atoms: S1_12  and  C10_13 
REMARK    5  A    between atoms: C10_13  and  C11_14 
ROOT
HETATM    1  C7  UNL     1      23.859   3.022  51.673  1.00  0.00     0.029 C 
HETATM    2  C8  UNL     1      22.870   3.635  52.287  1.00  0.00     0.025 C 
HETATM    3  C9  UNL     1      21.810   3.899  51.548  1.00  0.00     0.104 C 
HETATM    4  N2  UNL     1      22.252   4.685  50.422  1.00  0.00    -0.257 NA
HETATM    5  C17 UNL     1      23.232   4.219  49.690  1.00  0.00     0.095 C 
HETATM    6  C18 UNL     1      23.734   2.898  50.180  1.00  0.00     0.092 C 
ENDROOT
BRANCH   1   7
HETATM    7  C6  UNL     1      25.046   2.459  52.296  1.00  0.00     0.253 C 
HETATM    8  N1  UNL     1      25.567   2.559  53.626  1.00  0.00    -0.323 N 
HETATM    9  H6  UNL     1      24.938   3.166  54.233  1.00  0.00     0.169 HD
HETATM   10  O1  UNL     1      25.783   1.736  51.545  1.00  0.00    -0.268 OA
BRANCH   8  11
HETATM   11  C5  UNL     1      26.777   1.778  53.635  1.00  0.00     0.035 A 
HETATM   12  C4  UNL     1      28.059   2.260  53.485  1.00  0.00     0.030 A 
HETATM   13  C3  UNL     1      29.101   1.366  53.518  1.00  0.00     0.009 A 
HETATM   14  C2  UNL     1      28.818   0.034  53.699  1.00  0.00    -0.062 A 
HETATM   15  C1  UNL     1      29.974  -0.887  53.729  1.00  0.00     0.048 C 
HETATM   16  C20 UNL     1      27.556  -0.489  53.854  1.00  0.00     0.009 A 
HETATM   17  C19 UNL     1      26.508   0.418  53.818  1.00  0.00     0.030 A 
ENDBRANCH   8  11
ENDBRANCH   1   7
BRANCH   3  18
HETATM   18  S1  UNL     1      20.362   3.179  52.264  1.00  0.00    -0.105 SA
BRANCH  18  19
HETATM   19  C10 UNL     1      20.162   1.447  51.845  1.00  0.00     0.119 C 
BRANCH  19  20
HETATM   20  C11 UNL     1      21.012   0.621  52.707  1.00  0.00    -0.049 A 
HETATM   21  C12 UNL     1      20.649   0.435  54.031  1.00  0.00     0.008 A 
HETATM   22  C13 UNL     1      21.377  -0.324  54.926  1.00  0.00     0.001 A 
HETATM   23  C14 UNL     1      22.548  -0.931  54.457  1.00  0.00     0.000 A 
HETATM   24  C15 UNL     1      22.960  -0.780  53.141  1.00  0.00     0.001 A 
HETATM   25  C16 UNL     1      22.178  -0.008  52.308  1.00  0.00     0.008 A 
ENDBRANCH  19  20
ENDBRANCH  18  19
ENDBRANCH   3  18
TORSDOF 5
ENDMDL
MODEL 2
REMARK VINA RESULT:      -8.0      2.650      5.414
REMARK  5 active torsions:
REMARK  status: ('A' for Active; 'I' for Inactive)
REMARK    1  A    between atoms: C5_5  and  N1_6 
REMARK       I    between atoms: N1_6  and  C6_7 
REMARK    2  A    between atoms: C6_7  and  C7_9 
REMARK    3  A    between atoms: C9_11  and  S1_12 
REMARK    4  A    between atoms: S1_12  and  C10_13 
REMARK    5  A    between atoms: C10_13  and  C11_14 
ROOT
HETATM    1  C7  UNL     1      23.952   3.458  51.611  1.00  0.00     0.029 C 
HETATM    2  C8  UNL     1      23.545   3.368  50.363  1.00  0.00     0.025 C 
HETATM    3  C9  UNL     1      22.700   4.299  49.964  1.00  0.00     0.104 C 
HETATM    4  N2  UNL     1      21.565   4.262  50.853  1.00  0.00    -0.257 NA
HETATM    5  C17 UNL     1      21.786   4.345  52.141  1.00  0.00     0.095 C 
HETATM    6  C18 UNL     1      23.241   4.470  52.465  1.00  0.00     0.092 C 
ENDROOT
BRANCH   1   7
HETATM    7  C6  UNL     1      25.009   2.680  52.233  1.00  0.00     0.253 C 
HETATM    8  N1  UNL     1      25.571   2.710  53.551  1.00  0.00    -0.323 N 
HETATM    9  H6  UNL     1      25.097   3.455  54.146  1.00  0.00     0.169 HD
HETATM   10  O1  UNL     1      25.562   1.795  51.497  1.00  0.00    -0.268 OA
BRANCH   8  11
HETATM   11  C5  UNL     1      26.591   1.694  53.568  1.00  0.00     0.035 A 
HETATM   12  C4  UNL     1      26.384   0.334  53.644  1.00  0.00     0.030 A 
HETATM   13  C3  UNL     1      27.481  -0.494  53.651  1.00  0.00     0.009 A 
HETATM   14  C2  UNL     1      28.731   0.071  53.582  1.00  0.00    -0.062 A 
HETATM   15  C1  UNL     1      29.877  -0.861  53.591  1.00  0.00     0.048 C 
HETATM   16  C20 UNL     1      28.981   1.421  53.505  1.00  0.00     0.009 A 
HETATM   17  C19 UNL     1      27.871   2.251  53.500  1.00  0.00     0.030 A 
ENDBRANCH   8  11
ENDBRANCH   1   7
BRANCH   3  18
HETATM   18  S1  UNL     1      23.337   5.149  48.551  1.00  0.00    -0.105 SA
BRANCH  18  19
HETATM   19  C10 UNL     1      24.383   6.541  48.983  1.00  0.00     0.119 C 
BRANCH  19  20
HETATM   20  C11 UNL     1      25.787   6.212  48.724  1.00  0.00    -0.049 A 
HETATM   21  C12 UNL     1      26.599   7.160  48.121  1.00  0.00     0.008 A 
HETATM   22  C13 UNL     1      27.934   6.954  47.833  1.00  0.00     0.001 A 
HETATM   23  C14 UNL     1      28.485   5.712  48.171  1.00  0.00     0.000 A 
HETATM   24  C15 UNL     1      27.719   4.726  48.775  1.00  0.00     0.001 A 
HETATM   25  C16 UNL     1      26.394   5.008  49.032  1.00  0.00     0.008 A 
ENDBRANCH  19  20
ENDBRANCH  18  19
ENDBRANCH   3  18
TORSDOF 5
ENDMDL
MODEL 3
REMARK VINA RESULT:      -8.0      2.296      4.884
REMARK  5 active torsions:
REMARK  status: ('A' for Active; 'I' for Inactive)
REMARK    1  A    between atoms: C5_5  and  N1_6 
REMARK       I    between atoms: N1_6  and  C6_7 
REMARK    2  A    between atoms: C6_7  and  C7_9 
REMARK    3  A    between atoms: C9_11  and  S1_12 
REMARK    4  A    between atoms: S1_12  and  C10_13 
REMARK    5  A    between atoms: C10_13  and  C11_14 
ROOT
HETATM    1  C7  UNL     1      23.400   1.933  51.647  1.00  0.00     0.029 C 
HETATM    2  C8  UNL     1      22.958   1.903  50.409  1.00  0.00     0.025 C 
HETATM    3  C9  UNL     1      22.067   2.822  50.093  1.00  0.00     0.104 C 
HETATM    4  N2  UNL     1      20.962   2.688  51.011  1.00  0.00    -0.257 NA
HETATM    5  C17 UNL     1      21.221   2.702  52.294  1.00  0.00     0.095 C 
HETATM    6  C18 UNL     1      22.679   2.864  52.583  1.00  0.00     0.092 C 
ENDROOT
BRANCH   1   7
HETATM    7  C6  UNL     1      24.505   1.161  52.190  1.00  0.00     0.253 C 
HETATM    8  N1  UNL     1      24.569   0.189  53.240  1.00  0.00    -0.323 N 
HETATM    9  H6  UNL     1      23.608   0.039  53.674  1.00  0.00     0.169 HD
HETATM   10  O1  UNL     1      25.646   1.362  51.653  1.00  0.00    -0.268 OA
BRANCH   8  11
HETATM   11  C5  UNL     1      25.946  -0.225  53.311  1.00  0.00     0.035 A 
HETATM   12  C4  UNL     1      26.533  -1.230  52.573  1.00  0.00     0.030 A 
HETATM   13  C3  UNL     1      27.866  -1.492  52.773  1.00  0.00     0.009 A 
HETATM   14  C2  UNL     1      28.552  -0.743  53.697  1.00  0.00    -0.062 A 
HETATM   15  C1  UNL     1      29.984  -1.064  53.874  1.00  0.00     0.048 C 
HETATM   16  C20 UNL     1      28.006   0.267  54.454  1.00  0.00     0.009 A 
HETATM   17  C19 UNL     1      26.660   0.526  54.248  1.00  0.00     0.030 A 
ENDBRANCH   8  11
ENDBRANCH   1   7
BRANCH   3  18
HETATM   18  S1  UNL     1      22.627   3.780  48.716  1.00  0.00    -0.105 SA
BRANCH  18  19
HETATM   19  C10 UNL     1      23.409   5.319  49.205  1.00  0.00     0.119 C 
BRANCH  19  20
HETATM   20  C11 UNL     1      24.862   5.213  49.053  1.00  0.00    -0.049 A 
HETATM   21  C12 UNL     1      25.569   6.304  48.575  1.00  0.00     0.008 A 
HETATM   22  C13 UNL     1      26.939   6.312  48.395  1.00  0.00     0.001 A 
HETATM   23  C14 UNL     1      27.639   5.143  48.714  1.00  0.00     0.000 A 
HETATM   24  C15 UNL     1      26.983   4.019  49.196  1.00  0.00     0.001 A 
HETATM   25  C16 UNL     1      25.615   4.091  49.350  1.00  0.00     0.008 A 
ENDBRANCH  19  20
ENDBRANCH  18  19
ENDBRANCH   3  18
TORSDOF 5
ENDMDL
MODEL 4
REMARK VINA RESULT:      -7.8      1.876      4.156
REMARK  5 active torsions:
REMARK  status: ('A' for Active; 'I' for Inactive)
REMARK    1  A    between atoms: C5_5  and  N1_6 
REMARK       I    between atoms: N1_6  and  C6_7 
REMARK    2  A    between atoms: C6_7  and  C7_9 
REMARK    3  A    between atoms: C9_11  and  S1_12 
REMARK    4  A    between atoms: S1_12  and  C10_13 
REMARK    5  A    between atoms: C10_13  and  C11_14 
ROOT
HETATM    1  C7  UNL     1      22.244   0.220  53.058  1.00  0.00     0.029 C 
HETATM    2  C8  UNL     1      21.682   0.510  51.904  1.00  0.00     0.025 C 
HETATM    3  C9  UNL     1      20.422   0.895  51.958  1.00  0.00     0.104 C 
HETATM    4  N2  UNL     1      19.678  -0.151  52.617  1.00  0.00    -0.257 NA
HETATM    5  C17 UNL     1      20.096  -0.563  53.788  1.00  0.00     0.095 C 
HETATM    6  C18 UNL     1      21.323   0.161  54.244  1.00  0.00     0.092 C 
ENDROOT
BRANCH   1   7
HETATM    7  C6  UNL     1      23.654  -0.046  53.290  1.00  0.00     0.253 C 
HETATM    8  N1  UNL     1      24.330  -0.818  54.289  1.00  0.00    -0.323 N 
HETATM    9  H6  UNL     1      23.633  -1.257  54.963  1.00  0.00     0.169 HD
HETATM   10  O1  UNL     1      24.469   0.494  52.468  1.00  0.00    -0.268 OA
BRANCH   8  11
HETATM   11  C5  UNL     1      25.735  -0.702  53.993  1.00  0.00     0.035 A 
HETATM   12  C4  UNL     1      26.402  -1.319  52.957  1.00  0.00     0.030 A 
HETATM   13  C3  UNL     1      27.751  -1.096  52.825  1.00  0.00     0.009 A 
HETATM   14  C2  UNL     1      28.372  -0.270  53.729  1.00  0.00    -0.062 A 
HETATM   15  C1  UNL     1      29.823  -0.060  53.543  1.00  0.00     0.048 C 
HETATM   16  C20 UNL     1      27.745   0.366  54.775  1.00  0.00     0.009 A 
HETATM   17  C19 UNL     1      26.383   0.135  54.904  1.00  0.00     0.030 A 
ENDBRANCH   8  11
ENDBRANCH   1   7
BRANCH   3  18
HETATM   18  S1  UNL     1      20.229   2.487  51.214  1.00  0.00    -0.105 SA
BRANCH  18  19
HETATM   19  C10 UNL     1      21.384   3.702  51.849  1.00  0.00     0.119 C 
BRANCH  19  20
HETATM   20  C11 UNL     1      22.649   3.624  51.115  1.00  0.00    -0.049 A 
HETATM   21  C12 UNL     1      22.621   3.385  49.750  1.00  0.00     0.008 A 
HETATM   22  C13 UNL     1      23.753   3.294  48.963  1.00  0.00     0.001 A 
HETATM   23  C14 UNL     1      24.992   3.450  49.594  1.00  0.00     0.000 A 
HETATM   24  C15 UNL     1      25.082   3.689  50.958  1.00  0.00     0.001 A 
HETATM   25  C16 UNL     1      23.906   3.768  51.674  1.00  0.00     0.008 A 
ENDBRANCH  19  20
ENDBRANCH  18  19
ENDBRANCH   3  18
TORSDOF 5
ENDMDL
MODEL 5
REMARK VINA RESULT:      -7.6      2.058      3.549
REMARK  5 active torsions:
REMARK  status: ('A' for Active; 'I' for Inactive)
REMARK    1  A    between atoms: C5_5  and  N1_6 
REMARK       I    between atoms: N1_6  and  C6_7 
REMARK    2  A    between atoms: C6_7  and  C7_9 
REMARK    3  A    between atoms: C9_11  and  S1_12 
REMARK    4  A    between atoms: S1_12  and  C10_13 
REMARK    5  A    between atoms: C10_13  and  C11_14 
ROOT
HETATM    1  C7  UNL     1      22.809   2.075  52.246  1.00  0.00     0.029 C 
HETATM    2  C8  UNL     1      21.784   1.417  52.743  1.00  0.00     0.025 C 
HETATM    3  C9  UNL     1      20.592   1.831  52.358  1.00  0.00     0.104 C 
HETATM    4  N2  UNL     1      20.489   3.229  52.697  1.00  0.00    -0.257 NA
HETATM    5  C17 UNL     1      21.429   4.038  52.276  1.00  0.00     0.095 C 
HETATM    6  C18 UNL     1      22.482   3.329  51.484  1.00  0.00     0.092 C 
ENDROOT
BRANCH   1   7
HETATM    7  C6  UNL     1      24.210   1.708  52.363  1.00  0.00     0.253 C 
HETATM    8  N1  UNL     1      25.324   1.891  51.481  1.00  0.00    -0.323 N 
HETATM    9  H6  UNL     1      25.021   2.390  50.590  1.00  0.00     0.169 HD
HETATM   10  O1  UNL     1      24.545   1.109  53.440  1.00  0.00    -0.268 OA
BRANCH   8  11
HETATM   11  C5  UNL     1      26.458   1.314  52.154  1.00  0.00     0.035 A 
HETATM   12  C4  UNL     1      27.440   2.004  52.832  1.00  0.00     0.030 A 
HETATM   13  C3  UNL     1      28.456   1.287  53.416  1.00  0.00     0.009 A 
HETATM   14  C2  UNL     1      28.447  -0.081  53.298  1.00  0.00    -0.062 A 
HETATM   15  C1  UNL     1      29.561  -0.806  53.945  1.00  0.00     0.048 C 
HETATM   16  C20 UNL     1      27.488  -0.808  52.632  1.00  0.00     0.009 A 
HETATM   17  C19 UNL     1      26.466  -0.079  52.044  1.00  0.00     0.030 A 
ENDBRANCH   8  11
ENDBRANCH   1   7
BRANCH   3  18
HETATM   18  S1  UNL     1      19.688   0.507  51.614  1.00  0.00    -0.105 SA
BRANCH  18  19
HETATM   19  C10 UNL     1      19.032   0.927  49.999  1.00  0.00     0.119 C 
BRANCH  19  20
HETATM   20  C11 UNL     1      20.022   1.694  49.239  1.00  0.00    -0.049 A 
HETATM   21  C12 UNL     1      21.198   1.074  48.849  1.00  0.00     0.008 A 
HETATM   22  C13 UNL     1      22.195   1.703  48.130  1.00  0.00     0.001 A 
HETATM   23  C14 UNL     1      21.996   3.045  47.786  1.00  0.00     0.000 A 
HETATM   24  C15 UNL     1      20.838   3.718  48.151  1.00  0.00     0.001 A 
HETATM   25  C16 UNL     1      19.888   3.019  48.866  1.00  0.00     0.008 A 
ENDBRANCH  19  20
ENDBRANCH  18  19
ENDBRANCH   3  18
TORSDOF 5
ENDMDL
MODEL 6
REMARK VINA RESULT:      -7.5      2.098      4.363
REMARK  5 active torsions:
REMARK  status: ('A' for Active; 'I' for Inactive)
REMARK    1  A    between atoms: C5_5  and  N1_6 
REMARK       I    between atoms: N1_6  and  C6_7 
REMARK    2  A    between atoms: C6_7  and  C7_9 
REMARK    3  A    between atoms: C9_11  and  S1_12 
REMARK    4  A    between atoms: S1_12  and  C10_13 
REMARK    5  A    between atoms: C10_13  and  C11_14 
ROOT
HETATM    1  C7  UNL     1      22.567   1.441  51.905  1.00  0.00     0.029 C 
HETATM    2  C8  UNL     1      21.693   0.893  51.090  1.00  0.00     0.025 C 
HETATM    3  C9  UNL     1      20.745   1.691  50.640  1.00  0.00     0.104 C 
HETATM    4  N2  UNL     1      20.066   2.244  51.786  1.00  0.00    -0.257 NA
HETATM    5  C17 UNL     1      20.787   2.838  52.704  1.00  0.00     0.095 C 
HETATM    6  C18 UNL     1      22.246   2.832  52.378  1.00  0.00     0.092 C 
ENDROOT
BRANCH   1   7
HETATM    7  C6  UNL     1      23.798   0.837  52.386  1.00  0.00     0.253 C 
HETATM    8  N1  UNL     1      24.050  -0.149  53.394  1.00  0.00    -0.323 N 
HETATM    9  H6  UNL     1      23.140  -0.466  53.847  1.00  0.00     0.169 HD
HETATM   10  O1  UNL     1      24.874   1.237  51.827  1.00  0.00    -0.268 OA
BRANCH   8  11
HETATM   11  C5  UNL     1      25.477  -0.340  53.411  1.00  0.00     0.035 A 
HETATM   12  C4  UNL     1      26.192  -1.211  52.617  1.00  0.00     0.030 A 
HETATM   13  C3  UNL     1      27.556  -1.264  52.770  1.00  0.00     0.009 A 
HETATM   14  C2  UNL     1      28.144  -0.448  53.705  1.00  0.00    -0.062 A 
HETATM   15  C1  UNL     1      29.614  -0.541  53.830  1.00  0.00     0.048 C 
HETATM   16  C20 UNL     1      27.470   0.434  54.516  1.00  0.00     0.009 A 
HETATM   17  C19 UNL     1      26.093   0.482  54.358  1.00  0.00     0.030 A 
ENDBRANCH   8  11
ENDBRANCH   1   7
BRANCH   3  18
HETATM   18  S1  UNL     1      20.743   1.717  48.872  1.00  0.00    -0.105 SA
BRANCH  18  19
HETATM   19  C10 UNL     1      22.392   1.792  48.171  1.00  0.00     0.119 C 
BRANCH  19  20
HETATM   20  C11 UNL     1      22.970   3.120  48.390  1.00  0.00    -0.049 A 
HETATM   21  C12 UNL     1      24.117   3.236  49.159  1.00  0.00     0.008 A 
HETATM   22  C13 UNL     1      24.744   4.437  49.426  1.00  0.00     0.001 A 
HETATM   23  C14 UNL     1      24.175   5.597  48.886  1.00  0.00     0.000 A 
HETATM   24  C15 UNL     1      23.027   5.541  48.109  1.00  0.00     0.001 A 
HETATM   25  C16 UNL     1      22.461   4.304  47.887  1.00  0.00     0.008 A 
ENDBRANCH  19  20
ENDBRANCH  18  19
ENDBRANCH   3  18
TORSDOF 5
ENDMDL
MODEL 7
REMARK VINA RESULT:      -7.3      1.900      3.886
REMARK  5 active torsions:
REMARK  status: ('A' for Active; 'I' for Inactive)
REMARK    1  A    between atoms: C5_5  and  N1_6 
REMARK       I    between atoms: N1_6  and  C6_7 
REMARK    2  A    between atoms: C6_7  and  C7_9 
REMARK    3  A    between atoms: C9_11  and  S1_12 
REMARK    4  A    between atoms: S1_12  and  C10_13 
REMARK    5  A    between atoms: C10_13  and  C11_14 
ROOT
HETATM    1  C7  UNL     1      21.910   0.667  52.386  1.00  0.00     0.029 C 
HETATM    2  C8  UNL     1      21.279   0.641  51.232  1.00  0.00     0.025 C 
HETATM    3  C9  UNL     1      19.974   0.823  51.285  1.00  0.00     0.104 C 
HETATM    4  N2  UNL     1      19.432  -0.185  52.163  1.00  0.00    -0.257 NA
HETATM    5  C17 UNL     1      19.942  -0.297  53.364  1.00  0.00     0.095 C 
HETATM    6  C18 UNL     1      21.041   0.686  53.613  1.00  0.00     0.092 C 
ENDROOT
BRANCH   1   7
HETATM    7  C6  UNL     1      23.350   0.678  52.584  1.00  0.00     0.253 C 
HETATM    8  N1  UNL     1      24.420   1.206  51.792  1.00  0.00    -0.323 N 
HETATM    9  H6  UNL     1      24.045   1.662  50.906  1.00  0.00     0.169 HD
HETATM   10  O1  UNL     1      23.773   0.123  53.653  1.00  0.00    -0.268 OA
BRANCH   8  11
HETATM   11  C5  UNL     1      25.629   0.910  52.516  1.00  0.00     0.035 A 
HETATM   12  C4  UNL     1      26.189   1.677  53.515  1.00  0.00     0.030 A 
HETATM   13  C3  UNL     1      27.353   1.240  54.098  1.00  0.00     0.009 A 
HETATM   14  C2  UNL     1      27.906   0.062  53.660  1.00  0.00    -0.062 A 
HETATM   15  C1  UNL     1      29.157  -0.365  54.321  1.00  0.00     0.048 C 
HETATM   16  C20 UNL     1      27.381  -0.734  52.669  1.00  0.00     0.009 A 
HETATM   17  C19 UNL     1      26.206  -0.287  52.083  1.00  0.00     0.030 A 
ENDBRANCH   8  11
ENDBRANCH   1   7
BRANCH   3  18
HETATM   18  S1  UNL     1      19.499   2.195  50.276  1.00  0.00    -0.105 SA
BRANCH  18  19
HETATM   19  C10 UNL     1      19.791   3.779  51.064  1.00  0.00     0.119 C 
BRANCH  19  20
HETATM   20  C11 UNL     1      21.227   4.071  51.087  1.00  0.00    -0.049 A 
HETATM   21  C12 UNL     1      21.839   4.344  52.299  1.00  0.00     0.008 A 
HETATM   22  C13 UNL     1      23.184   4.630  52.433  1.00  0.00     0.001 A 
HETATM   23  C14 UNL     1      23.960   4.644  51.268  1.00  0.00     0.000 A 
HETATM   24  C15 UNL     1      23.401   4.378  50.027  1.00  0.00     0.001 A 
HETATM   25  C16 UNL     1      22.052   4.100  49.976  1.00  0.00     0.008 A 
ENDBRANCH  19  20
ENDBRANCH  18  19
ENDBRANCH   3  18
TORSDOF 5
ENDMDL
MODEL 8
REMARK VINA RESULT:      -7.2      3.373      6.109
REMARK  5 active torsions:
REMARK  status: ('A' for Active; 'I' for Inactive)
REMARK    1  A    between atoms: C5_5  and  N1_6 
REMARK       I    between atoms: N1_6  and  C6_7 
REMARK    2  A    between atoms: C6_7  and  C7_9 
REMARK    3  A    between atoms: C9_11  and  S1_12 
REMARK    4  A    between atoms: S1_12  and  C10_13 
REMARK    5  A    between atoms: C10_13  and  C11_14 
ROOT
HETATM    1  C7  UNL     1      24.468   2.820  50.511  1.00  0.00     0.029 C 
HETATM    2  C8  UNL     1      24.767   3.515  49.435  1.00  0.00     0.025 C 
HETATM    3  C9  UNL     1      23.780   4.208  48.904  1.00  0.00     0.104 C 
HETATM    4  N2  UNL     1      22.711   3.285  48.609  1.00  0.00    -0.257 NA
HETATM    5  C17 UNL     1      22.280   2.512  49.574  1.00  0.00     0.095 C 
HETATM    6  C18 UNL     1      23.008   2.742  50.861  1.00  0.00     0.092 C 
ENDROOT
BRANCH   1   7
HETATM    7  C6  UNL     1      25.404   2.130  51.383  1.00  0.00     0.253 C 
HETATM    8  N1  UNL     1      25.261   1.586  52.700  1.00  0.00    -0.323 N 
HETATM    9  H6  UNL     1      24.274   1.741  53.067  1.00  0.00     0.169 HD
HETATM   10  O1  UNL     1      26.580   1.959  50.918  1.00  0.00    -0.268 OA
BRANCH   8  11
HETATM   11  C5  UNL     1      26.543   1.022  53.035  1.00  0.00     0.035 A 
HETATM   12  C4  UNL     1      27.599   1.690  53.617  1.00  0.00     0.030 A 
HETATM   13  C3  UNL     1      28.755   0.991  53.865  1.00  0.00     0.009 A 
HETATM   14  C2  UNL     1      28.806  -0.338  53.523  1.00  0.00    -0.062 A 
HETATM   15  C1  UNL     1      30.071  -1.046  53.812  1.00  0.00     0.048 C 
HETATM   16  C20 UNL     1      27.777  -1.042  52.942  1.00  0.00     0.009 A 
HETATM   17  C19 UNL     1      26.613  -0.331  52.692  1.00  0.00     0.030 A 
ENDBRANCH   8  11
ENDBRANCH   1   7
BRANCH   3  18
HETATM   18  S1  UNL     1      24.210   5.920  48.801  1.00  0.00    -0.105 SA
BRANCH  18  19
HETATM   19  C10 UNL     1      25.731   6.313  49.666  1.00  0.00     0.119 C 
BRANCH  19  20
HETATM   20  C11 UNL     1      26.766   6.707  48.706  1.00  0.00    -0.049 A 
HETATM   21  C12 UNL     1      26.557   7.821  47.911  1.00  0.00     0.008 A 
HETATM   22  C13 UNL     1      27.465   8.279  46.977  1.00  0.00     0.001 A 
HETATM   23  C14 UNL     1      28.661   7.566  46.835  1.00  0.00     0.000 A 
HETATM   24  C15 UNL     1      28.925   6.442  47.605  1.00  0.00     0.001 A 
HETATM   25  C16 UNL     1      27.968   6.049  48.516  1.00  0.00     0.008 A 
ENDBRANCH  19  20
ENDBRANCH  18  19
ENDBRANCH   3  18
TORSDOF 5
ENDMDL
MODEL 9
REMARK VINA RESULT:      -7.1      7.677      9.302
REMARK  5 active torsions:
REMARK  status: ('A' for Active; 'I' for Inactive)
REMARK    1  A    between atoms: C5_5  and  N1_6 
REMARK       I    between atoms: N1_6  and  C6_7 
REMARK    2  A    between atoms: C6_7  and  C7_9 
REMARK    3  A    between atoms: C9_11  and  S1_12 
REMARK    4  A    between atoms: S1_12  and  C10_13 
REMARK    5  A    between atoms: C10_13  and  C11_14 
ROOT
HETATM    1  C7  UNL     1      30.295   8.907  48.413  1.00  0.00     0.029 C 
HETATM    2  C8  UNL     1      29.448   9.165  49.386  1.00  0.00     0.025 C 
HETATM    3  C9  UNL     1      28.549  10.096  49.135  1.00  0.00     0.104 C 
HETATM    4  N2  UNL     1      29.261  11.298  48.772  1.00  0.00    -0.257 NA
HETATM    5  C17 UNL     1      30.146  11.225  47.810  1.00  0.00     0.095 C 
HETATM    6  C18 UNL     1      30.259   9.846  47.240  1.00  0.00     0.092 C 
ENDROOT
BRANCH   1   7
HETATM    7  C6  UNL     1      31.249   7.812  48.365  1.00  0.00     0.253 C 
HETATM    8  N1  UNL     1      31.666   6.862  49.353  1.00  0.00    -0.323 N 
HETATM    9  H6  UNL     1      31.158   7.029  50.274  1.00  0.00     0.169 HD
HETATM   10  O1  UNL     1      31.845   7.636  47.250  1.00  0.00    -0.268 OA
BRANCH   8  11
HETATM   11  C5  UNL     1      32.640   6.022  48.706  1.00  0.00     0.035 A 
HETATM   12  C4  UNL     1      33.996   6.256  48.631  1.00  0.00     0.030 A 
HETATM   13  C3  UNL     1      34.780   5.343  47.969  1.00  0.00     0.009 A 
HETATM   14  C2  UNL     1      34.178   4.240  47.414  1.00  0.00    -0.062 A 
HETATM   15  C1  UNL     1      35.065   3.287  46.715  1.00  0.00     0.048 C 
HETATM   16  C20 UNL     1      32.831   3.967  47.467  1.00  0.00     0.009 A 
HETATM   17  C19 UNL     1      32.045   4.894  48.135  1.00  0.00     0.030 A 
ENDBRANCH   8  11
ENDBRANCH   1   7
BRANCH   3  18
HETATM   18  S1  UNL     1      26.916   9.456  49.353  1.00  0.00    -0.105 SA
BRANCH  18  19
HETATM   19  C10 UNL     1      26.399   8.384  48.011  1.00  0.00     0.119 C 
BRANCH  19  20
HETATM   20  C11 UNL     1      26.667   6.985  48.355  1.00  0.00    -0.049 A 
HETATM   21  C12 UNL     1      25.655   6.225  48.919  1.00  0.00     0.008 A 
HETATM   22  C13 UNL     1      25.800   4.900  49.279  1.00  0.00     0.001 A 
HETATM   23  C14 UNL     1      27.048   4.303  49.059  1.00  0.00     0.000 A 
HETATM   24  C15 UNL     1      28.098   5.015  48.498  1.00  0.00     0.001 A 
HETATM   25  C16 UNL     1      27.873   6.334  48.164  1.00  0.00     0.008 A 
ENDBRANCH  19  20
ENDBRANCH  18  19
ENDBRANCH   3  18
TORSDOF 5
ENDMDL
