MODEL 1
REMARK VINA RESULT:      -6.8      0.000      0.000
REMARK  7 active torsions:
REMARK  status: ('A' for Active; 'I' for Inactive)
REMARK    1  A    between atoms: C4_5  and  N1_6 
REMARK    2  A    between atoms: N1_6  and  C5_7 
REMARK    3  A    between atoms: C5_7  and  C6_8 
REMARK    4  A    between atoms: C9_11  and  N2_12 
REMARK    5  A    between atoms: N2_12  and  C10_13 
REMARK    6  A    between atoms: N2_12  and  C11_15 
REMARK    7  A    between atoms: C11_15  and  C12_16 
ROOT
HETATM    1  C6  UNL     1      23.778   1.287  52.622  1.00  0.00    -0.040 A 
HETATM    2  C7  UNL     1      23.307   1.348  51.300  1.00  0.00     0.011 A 
HETATM    3  C8  UNL     1      23.283   2.500  50.513  1.00  0.00     0.030 A 
HETATM    4  C9  UNL     1      23.755   3.672  51.056  1.00  0.00     0.031 A 
HETATM    5  C13 UNL     1      24.215   3.609  52.350  1.00  0.00     0.030 A 
HETATM    6  C14 UNL     1      24.231   2.468  53.116  1.00  0.00     0.011 A 
ENDROOT
BRANCH   1   7
HETATM    7  C5  UNL     1      23.684  -0.060  53.259  1.00  0.00     0.158 C 
BRANCH   7   8
HETATM    8  N1  UNL     1      24.795  -0.378  54.093  1.00  0.00    -0.386 N 
HETATM    9  H3  UNL     1      24.511  -0.612  55.099  1.00  0.00     0.160 HD
BRANCH   8  10
HETATM   10  C4  UNL     1      26.201  -0.477  53.969  1.00  0.00     0.028 A 
HETATM   11  C3  UNL     1      26.863  -1.263  53.012  1.00  0.00     0.032 A 
HETATM   12  C2  UNL     1      28.232  -1.301  52.985  1.00  0.00     0.044 A 
HETATM   13  C1  UNL     1      29.007  -0.597  53.863  1.00  0.00     0.116 A 
HETATM   14  F1  UNL     1      30.351  -0.708  53.748  1.00  0.00    -0.206 F 
HETATM   15  C16 UNL     1      28.382   0.177  54.806  1.00  0.00     0.044 A 
HETATM   16  C15 UNL     1      27.009   0.210  54.827  1.00  0.00     0.032 A 
ENDBRANCH   8  10
ENDBRANCH   7   8
ENDBRANCH   1   7
BRANCH   4  17
HETATM   17  N2  UNL     1      23.748   4.868  50.288  1.00  0.00    -0.367 N 
BRANCH  17  18
HETATM   18  C10 UNL     1      22.986   6.001  50.774  1.00  0.00     0.238 C 
HETATM   19 CL1  UNL     1      21.245   5.591  50.943  1.00  0.00    -0.109 Cl
ENDBRANCH  17  18
BRANCH  17  20
HETATM   20  C11 UNL     1      24.425   5.112  49.035  1.00  0.00     0.139 C 
BRANCH  20  21
HETATM   21  C12 UNL     1      25.873   5.478  49.203  1.00  0.00     0.134 C 
HETATM   22 CL2  UNL     1      26.771   3.942  49.273  1.00  0.00    -0.129 Cl
ENDBRANCH  20  21
ENDBRANCH  17  20
ENDBRANCH   4  17
TORSDOF 7
ENDMDL
MODEL 2
REMARK VINA RESULT:      -6.7      0.794      2.107
REMARK  7 active torsions:
REMARK  status: ('A' for Active; 'I' for Inactive)
REMARK    1  A    between atoms: C4_5  and  N1_6 
REMARK    2  A    between atoms: N1_6  and  C5_7 
REMARK    3  A    between atoms: C5_7  and  C6_8 
REMARK    4  A    between atoms: C9_11  and  N2_12 
REMARK    5  A    between atoms: N2_12  and  C10_13 
REMARK    6  A    between atoms: N2_12  and  C11_15 
REMARK    7  A    between atoms: C11_15  and  C12_16 
ROOT
HETATM    1  C6  UNL     1      23.525   1.418  52.657  1.00  0.00    -0.040 A 
HETATM    2  C7  UNL     1      23.219   1.370  51.287  1.00  0.00     0.011 A 
HETATM    3  C8  UNL     1      23.467   2.397  50.376  1.00  0.00     0.030 A 
HETATM    4  C9  UNL     1      24.057   3.551  50.838  1.00  0.00     0.031 A 
HETATM    5  C13 UNL     1      24.355   3.595  52.179  1.00  0.00     0.030 A 
HETATM    6  C14 UNL     1      24.104   2.576  53.067  1.00  0.00     0.011 A 
ENDROOT
BRANCH   1   7
HETATM    7  C5  UNL     1      23.148   0.196  53.427  1.00  0.00     0.158 C 
BRANCH   7   8
HETATM    8  N1  UNL     1      24.257  -0.475  54.019  1.00  0.00    -0.386 N 
HETATM    9  H3  UNL     1      23.970  -1.174  54.777  1.00  0.00     0.160 HD
BRANCH   8  10
HETATM   10  C4  UNL     1      25.666  -0.481  53.887  1.00  0.00     0.028 A 
HETATM   11  C3  UNL     1      26.367  -1.131  52.859  1.00  0.00     0.032 A 
HETATM   12  C2  UNL     1      27.737  -1.089  52.830  1.00  0.00     0.044 A 
HETATM   13  C1  UNL     1      28.475  -0.430  53.774  1.00  0.00     0.116 A 
HETATM   14  F1  UNL     1      29.821  -0.453  53.650  1.00  0.00    -0.206 F 
HETATM   15  C16 UNL     1      27.811   0.212  54.787  1.00  0.00     0.044 A 
HETATM   16  C15 UNL     1      26.437   0.164  54.809  1.00  0.00     0.032 A 
ENDBRANCH   8  10
ENDBRANCH   7   8
ENDBRANCH   1   7
BRANCH   4  17
HETATM   17  N2  UNL     1      24.325   4.622  49.943  1.00  0.00    -0.367 N 
BRANCH  17  18
HETATM   18  C10 UNL     1      25.700   5.042  49.755  1.00  0.00     0.238 C 
HETATM   19 CL1  UNL     1      26.756   3.648  49.342  1.00  0.00    -0.109 Cl
ENDBRANCH  17  18
BRANCH  17  20
HETATM   20  C11 UNL     1      23.370   5.381  49.169  1.00  0.00     0.139 C 
BRANCH  20  21
HETATM   21  C12 UNL     1      22.289   6.006  50.005  1.00  0.00     0.134 C 
HETATM   22 CL2  UNL     1      23.028   7.421  50.796  1.00  0.00    -0.129 Cl
ENDBRANCH  20  21
ENDBRANCH  17  20
ENDBRANCH   4  17
TORSDOF 7
ENDMDL
MODEL 3
REMARK VINA RESULT:      -6.6      4.093      5.076
REMARK  7 active torsions:
REMARK  status: ('A' for Active; 'I' for Inactive)
REMARK    1  A    between atoms: C4_5  and  N1_6 
REMARK    2  A    between atoms: N1_6  and  C5_7 
REMARK    3  A    between atoms: C5_7  and  C6_8 
REMARK    4  A    between atoms: C9_11  and  N2_12 
REMARK    5  A    between atoms: N2_12  and  C10_13 
REMARK    6  A    between atoms: N2_12  and  C11_15 
REMARK    7  A    between atoms: C11_15  and  C12_16 
ROOT
HETATM    1  C6  UNL     1      22.616  -0.464  54.079  1.00  0.00    -0.040 A 
HETATM    2  C7  UNL     1      22.577  -0.322  52.683  1.00  0.00     0.011 A 
HETATM    3  C8  UNL     1      21.442   0.016  51.945  1.00  0.00     0.030 A 
HETATM    4  C9  UNL     1      20.263   0.230  52.621  1.00  0.00     0.031 A 
HETATM    5  C13 UNL     1      20.304   0.090  53.988  1.00  0.00     0.030 A 
HETATM    6  C14 UNL     1      21.430  -0.245  54.703  1.00  0.00     0.011 A 
ENDROOT
BRANCH   1   7
HETATM    7  C5  UNL     1      23.948  -0.846  54.634  1.00  0.00     0.158 C 
BRANCH   7   8
HETATM    8  N1  UNL     1      25.048  -0.256  53.945  1.00  0.00    -0.386 N 
HETATM    9  H3  UNL     1      24.755   0.534  53.285  1.00  0.00     0.160 HD
BRANCH   8  10
HETATM   10  C4  UNL     1      26.451  -0.422  53.883  1.00  0.00     0.028 A 
HETATM   11  C3  UNL     1      27.117  -1.243  52.958  1.00  0.00     0.032 A 
HETATM   12  C2  UNL     1      28.483  -1.345  52.992  1.00  0.00     0.044 A 
HETATM   13  C1  UNL     1      29.251  -0.673  53.901  1.00  0.00     0.116 A 
HETATM   14  F1  UNL     1      30.592  -0.848  53.845  1.00  0.00    -0.206 F 
HETATM   15  C16 UNL     1      28.623   0.134  54.813  1.00  0.00     0.044 A 
HETATM   16  C15 UNL     1      27.252   0.231  54.773  1.00  0.00     0.032 A 
ENDBRANCH   8  10
ENDBRANCH   7   8
ENDBRANCH   1   7
BRANCH   4  17
HETATM   17  N2  UNL     1      19.083   0.574  51.907  1.00  0.00    -0.367 N 
BRANCH  17  18
HETATM   18  C10 UNL     1      18.826   1.972  51.624  1.00  0.00     0.238 C 
HETATM   19 CL1  UNL     1      17.955   2.170  50.064  1.00  0.00    -0.109 Cl
ENDBRANCH  17  18
BRANCH  17  20
HETATM   20  C11 UNL     1      18.064  -0.321  51.411  1.00  0.00     0.139 C 
BRANCH  20  21
HETATM   21  C12 UNL     1      17.001  -0.635  52.427  1.00  0.00     0.134 C 
HETATM   22 CL2  UNL     1      17.559  -2.083  53.300  1.00  0.00    -0.129 Cl
ENDBRANCH  20  21
ENDBRANCH  17  20
ENDBRANCH   4  17
TORSDOF 7
ENDMDL
MODEL 4
REMARK VINA RESULT:      -6.5      2.914      6.329
REMARK  7 active torsions:
REMARK  status: ('A' for Active; 'I' for Inactive)
REMARK    1  A    between atoms: C4_5  and  N1_6 
REMARK    2  A    between atoms: N1_6  and  C5_7 
REMARK    3  A    between atoms: C5_7  and  C6_8 
REMARK    4  A    between atoms: C9_11  and  N2_12 
REMARK    5  A    between atoms: N2_12  and  C10_13 
REMARK    6  A    between atoms: N2_12  and  C11_15 
REMARK    7  A    between atoms: C11_15  and  C12_16 
ROOT
HETATM    1  C6  UNL     1      23.123   3.886  51.449  1.00  0.00    -0.040 A 
HETATM    2  C7  UNL     1      23.960   3.731  52.566  1.00  0.00     0.011 A 
HETATM    3  C8  UNL     1      24.215   2.520  53.211  1.00  0.00     0.030 A 
HETATM    4  C9  UNL     1      23.609   1.383  52.730  1.00  0.00     0.031 A 
HETATM    5  C13 UNL     1      22.790   1.538  51.637  1.00  0.00     0.030 A 
HETATM    6  C14 UNL     1      22.546   2.738  51.011  1.00  0.00     0.011 A 
ENDROOT
BRANCH   1   7
HETATM    7  C5  UNL     1      23.000   5.286  50.948  1.00  0.00     0.158 C 
BRANCH   7   8
HETATM    8  N1  UNL     1      23.770   5.547  49.777  1.00  0.00    -0.386 N 
HETATM    9  H3  UNL     1      23.194   5.974  48.981  1.00  0.00     0.160 HD
BRANCH   8  10
HETATM   10  C4  UNL     1      25.112   5.398  49.354  1.00  0.00     0.028 A 
HETATM   11  C3  UNL     1      25.867   4.223  49.495  1.00  0.00     0.032 A 
HETATM   12  C2  UNL     1      27.167   4.187  49.065  1.00  0.00     0.044 A 
HETATM   13  C1  UNL     1      27.784   5.263  48.491  1.00  0.00     0.116 A 
HETATM   14  F1  UNL     1      29.072   5.119  48.104  1.00  0.00    -0.206 F 
HETATM   15  C16 UNL     1      27.067   6.422  48.343  1.00  0.00     0.044 A 
HETATM   16  C15 UNL     1      25.763   6.450  48.778  1.00  0.00     0.032 A 
ENDBRANCH   8  10
ENDBRANCH   7   8
ENDBRANCH   1   7
BRANCH   4  17
HETATM   17  N2  UNL     1      23.840   0.129  53.359  1.00  0.00    -0.367 N 
BRANCH  17  18
HETATM   18  C10 UNL     1      22.746  -0.817  53.446  1.00  0.00     0.238 C 
HETATM   19 CL1  UNL     1      21.495  -0.262  54.610  1.00  0.00    -0.109 Cl
ENDBRANCH  17  18
BRANCH  17  20
HETATM   20  C11 UNL     1      25.071  -0.342  53.951  1.00  0.00     0.139 C 
BRANCH  20  21
HETATM   21  C12 UNL     1      25.985  -1.016  52.965  1.00  0.00     0.134 C 
HETATM   22 CL2  UNL     1      27.002   0.270  52.270  1.00  0.00    -0.129 Cl
ENDBRANCH  20  21
ENDBRANCH  17  20
ENDBRANCH   4  17
TORSDOF 7
ENDMDL
MODEL 5
REMARK VINA RESULT:      -6.5      3.457      4.344
REMARK  7 active torsions:
REMARK  status: ('A' for Active; 'I' for Inactive)
REMARK    1  A    between atoms: C4_5  and  N1_6 
REMARK    2  A    between atoms: N1_6  and  C5_7 
REMARK    3  A    between atoms: C5_7  and  C6_8 
REMARK    4  A    between atoms: C9_11  and  N2_12 
REMARK    5  A    between atoms: N2_12  and  C10_13 
REMARK    6  A    between atoms: N2_12  and  C11_15 
REMARK    7  A    between atoms: C11_15  and  C12_16 
ROOT
HETATM    1  C6  UNL     1      22.566  -0.369  53.954  1.00  0.00    -0.040 A 
HETATM    2  C7  UNL     1      22.597   0.028  52.608  1.00  0.00     0.011 A 
HETATM    3  C8  UNL     1      21.490   0.456  51.874  1.00  0.00     0.030 A 
HETATM    4  C9  UNL     1      20.267   0.499  52.503  1.00  0.00     0.031 A 
HETATM    5  C13 UNL     1      20.239   0.109  53.821  1.00  0.00     0.030 A 
HETATM    6  C14 UNL     1      21.338  -0.312  54.532  1.00  0.00     0.011 A 
ENDROOT
BRANCH   1   7
HETATM    7  C5  UNL     1      23.881  -0.800  54.512  1.00  0.00     0.158 C 
BRANCH   7   8
HETATM    8  N1  UNL     1      25.003  -0.268  53.813  1.00  0.00    -0.386 N 
HETATM    9  H3  UNL     1      24.734   0.467  53.082  1.00  0.00     0.160 HD
BRANCH   8  10
HETATM   10  C4  UNL     1      26.408  -0.439  53.808  1.00  0.00     0.028 A 
HETATM   11  C3  UNL     1      27.107  -1.268  52.916  1.00  0.00     0.032 A 
HETATM   12  C2  UNL     1      28.470  -1.375  53.004  1.00  0.00     0.044 A 
HETATM   13  C1  UNL     1      29.204  -0.700  53.939  1.00  0.00     0.116 A 
HETATM   14  F1  UNL     1      30.545  -0.880  53.938  1.00  0.00    -0.206 F 
HETATM   15  C16 UNL     1      28.542   0.115  54.820  1.00  0.00     0.044 A 
HETATM   16  C15 UNL     1      27.175   0.217  54.726  1.00  0.00     0.032 A 
ENDBRANCH   8  10
ENDBRANCH   7   8
ENDBRANCH   1   7
BRANCH   4  17
HETATM   17  N2  UNL     1      19.113   0.927  51.792  1.00  0.00    -0.367 N 
BRANCH  17  18
HETATM   18  C10 UNL     1      18.344  -0.058  51.059  1.00  0.00     0.238 C 
HETATM   19 CL1  UNL     1      17.045  -0.763  52.082  1.00  0.00    -0.109 Cl
ENDBRANCH  17  18
BRANCH  17  20
HETATM   20  C11 UNL     1      18.588   2.270  51.696  1.00  0.00     0.139 C 
BRANCH  20  21
HETATM   21  C12 UNL     1      19.358   3.143  50.745  1.00  0.00     0.134 C 
HETATM   22 CL2  UNL     1      20.519   4.059  51.738  1.00  0.00    -0.129 Cl
ENDBRANCH  20  21
ENDBRANCH  17  20
ENDBRANCH   4  17
TORSDOF 7
ENDMDL
MODEL 6
REMARK VINA RESULT:      -6.4      3.793      7.288
REMARK  7 active torsions:
REMARK  status: ('A' for Active; 'I' for Inactive)
REMARK    1  A    between atoms: C4_5  and  N1_6 
REMARK    2  A    between atoms: N1_6  and  C5_7 
REMARK    3  A    between atoms: C5_7  and  C6_8 
REMARK    4  A    between atoms: C9_11  and  N2_12 
REMARK    5  A    between atoms: N2_12  and  C10_13 
REMARK    6  A    between atoms: N2_12  and  C11_15 
REMARK    7  A    between atoms: C11_15  and  C12_16 
ROOT
HETATM    1  C6  UNL     1      24.944   3.346  51.309  1.00  0.00    -0.040 A 
HETATM    2  C7  UNL     1      24.529   3.022  52.611  1.00  0.00     0.011 A 
HETATM    3  C8  UNL     1      25.094   2.022  53.404  1.00  0.00     0.030 A 
HETATM    4  C9  UNL     1      26.137   1.289  52.886  1.00  0.00     0.031 A 
HETATM    5  C13 UNL     1      26.540   1.608  51.611  1.00  0.00     0.030 A 
HETATM    6  C14 UNL     1      25.974   2.596  50.840  1.00  0.00     0.011 A 
ENDROOT
BRANCH   1   7
HETATM    7  C5  UNL     1      24.172   4.447  50.661  1.00  0.00     0.158 C 
BRANCH   7   8
HETATM    8  N1  UNL     1      24.849   5.701  50.661  1.00  0.00    -0.386 N 
HETATM    9  H3  UNL     1      24.530   6.350  51.451  1.00  0.00     0.160 HD
BRANCH   8  10
HETATM   10  C4  UNL     1      25.847   6.350  49.897  1.00  0.00     0.028 A 
HETATM   11  C3  UNL     1      26.624   5.726  48.908  1.00  0.00     0.032 A 
HETATM   12  C2  UNL     1      27.578   6.442  48.233  1.00  0.00     0.044 A 
HETATM   13  C1  UNL     1      27.819   7.765  48.478  1.00  0.00     0.116 A 
HETATM   14  F1  UNL     1      28.786   8.375  47.755  1.00  0.00    -0.206 F 
HETATM   15  C16 UNL     1      27.072   8.394  49.440  1.00  0.00     0.044 A 
HETATM   16  C15 UNL     1      26.118   7.669  50.113  1.00  0.00     0.032 A 
ENDBRANCH   8  10
ENDBRANCH   7   8
ENDBRANCH   1   7
BRANCH   4  17
HETATM   17  N2  UNL     1      26.739   0.259  53.660  1.00  0.00    -0.367 N 
BRANCH  17  18
HETATM   18  C10 UNL     1      26.165  -1.070  53.614  1.00  0.00     0.238 C 
HETATM   19 CL1  UNL     1      26.876  -2.041  52.278  1.00  0.00    -0.109 Cl
ENDBRANCH  17  18
BRANCH  17  20
HETATM   20  C11 UNL     1      27.892   0.370  54.523  1.00  0.00     0.139 C 
BRANCH  20  21
HETATM   21  C12 UNL     1      29.152   0.734  53.789  1.00  0.00     0.134 C 
HETATM   22 CL2  UNL     1      30.023  -0.794  53.506  1.00  0.00    -0.129 Cl
ENDBRANCH  20  21
ENDBRANCH  17  20
ENDBRANCH   4  17
TORSDOF 7
ENDMDL
MODEL 7
REMARK VINA RESULT:      -6.4      3.430      5.005
REMARK  7 active torsions:
REMARK  status: ('A' for Active; 'I' for Inactive)
REMARK    1  A    between atoms: C4_5  and  N1_6 
REMARK    2  A    between atoms: N1_6  and  C5_7 
REMARK    3  A    between atoms: C5_7  and  C6_8 
REMARK    4  A    between atoms: C9_11  and  N2_12 
REMARK    5  A    between atoms: N2_12  and  C10_13 
REMARK    6  A    between atoms: N2_12  and  C11_15 
REMARK    7  A    between atoms: C11_15  and  C12_16 
ROOT
HETATM    1  C6  UNL     1      26.695   4.449  49.315  1.00  0.00    -0.040 A 
HETATM    2  C7  UNL     1      25.826   5.529  49.539  1.00  0.00     0.011 A 
HETATM    3  C8  UNL     1      26.050   6.838  49.108  1.00  0.00     0.030 A 
HETATM    4  C9  UNL     1      27.204   7.106  48.409  1.00  0.00     0.031 A 
HETATM    5  C13 UNL     1      28.053   6.047  48.191  1.00  0.00     0.030 A 
HETATM    6  C14 UNL     1      27.821   4.762  48.622  1.00  0.00     0.011 A 
ENDROOT
BRANCH   1   7
HETATM    7  C5  UNL     1      26.240   3.148  49.888  1.00  0.00     0.158 C 
BRANCH   7   8
HETATM    8  N1  UNL     1      26.510   3.009  51.281  1.00  0.00    -0.386 N 
HETATM    9  H3  UNL     1      26.138   3.826  51.865  1.00  0.00     0.160 HD
BRANCH   8  10
HETATM   10  C4  UNL     1      27.144   2.075  52.133  1.00  0.00     0.028 A 
HETATM   11  C3  UNL     1      28.115   2.404  53.093  1.00  0.00     0.032 A 
HETATM   12  C2  UNL     1      28.681   1.420  53.861  1.00  0.00     0.044 A 
HETATM   13  C1  UNL     1      28.342   0.102  53.738  1.00  0.00     0.116 A 
HETATM   14  F1  UNL     1      28.964  -0.787  54.546  1.00  0.00    -0.206 F 
HETATM   15  C16 UNL     1      27.396  -0.242  52.808  1.00  0.00     0.044 A 
HETATM   16  C15 UNL     1      26.833   0.750  52.041  1.00  0.00     0.032 A 
ENDBRANCH   8  10
ENDBRANCH   7   8
ENDBRANCH   1   7
BRANCH   4  17
HETATM   17  N2  UNL     1      27.471   8.426  47.953  1.00  0.00    -0.367 N 
BRANCH  17  18
HETATM   18  C10 UNL     1      26.414   9.158  47.287  1.00  0.00     0.238 C 
HETATM   19 CL1  UNL     1      25.945   8.365  45.743  1.00  0.00    -0.109 Cl
ENDBRANCH  17  18
BRANCH  17  20
HETATM   20  C11 UNL     1      28.710   9.162  48.069  1.00  0.00     0.139 C 
BRANCH  20  21
HETATM   21  C12 UNL     1      29.092   9.462  49.491  1.00  0.00     0.134 C 
HETATM   22 CL2  UNL     1      30.872   9.521  49.527  1.00  0.00    -0.129 Cl
ENDBRANCH  20  21
ENDBRANCH  17  20
ENDBRANCH   4  17
TORSDOF 7
ENDMDL
MODEL 8
REMARK VINA RESULT:      -6.3      6.228      8.489
REMARK  7 active torsions:
REMARK  status: ('A' for Active; 'I' for Inactive)
REMARK    1  A    between atoms: C4_5  and  N1_6 
REMARK    2  A    between atoms: N1_6  and  C5_7 
REMARK    3  A    between atoms: C5_7  and  C6_8 
REMARK    4  A    between atoms: C9_11  and  N2_12 
REMARK    5  A    between atoms: N2_12  and  C10_13 
REMARK    6  A    between atoms: N2_12  and  C11_15 
REMARK    7  A    between atoms: C11_15  and  C12_16 
ROOT
HETATM    1  C6  UNL     1      20.723  -0.360  53.319  1.00  0.00    -0.040 A 
HETATM    2  C7  UNL     1      21.410   0.449  52.399  1.00  0.00     0.011 A 
HETATM    3  C8  UNL     1      22.796   0.605  52.351  1.00  0.00     0.030 A 
HETATM    4  C9  UNL     1      23.562  -0.080  53.265  1.00  0.00     0.031 A 
HETATM    5  C13 UNL     1      22.888  -0.870  54.165  1.00  0.00     0.030 A 
HETATM    6  C14 UNL     1      21.521  -1.014  54.203  1.00  0.00     0.011 A 
ENDROOT
BRANCH   1   7
HETATM    7  C5  UNL     1      19.238  -0.349  53.177  1.00  0.00     0.158 C 
BRANCH   7   8
HETATM    8  N1  UNL     1      18.601  -1.507  53.712  1.00  0.00    -0.386 N 
HETATM    9  H3  UNL     1      19.039  -1.841  54.630  1.00  0.00     0.160 HD
BRANCH   8  10
HETATM   10  C4  UNL     1      17.528  -2.362  53.367  1.00  0.00     0.028 A 
HETATM   11  C3  UNL     1      16.402  -1.969  52.627  1.00  0.00     0.032 A 
HETATM   12  C2  UNL     1      15.408  -2.874  52.358  1.00  0.00     0.044 A 
HETATM   13  C1  UNL     1      15.458  -4.172  52.784  1.00  0.00     0.116 A 
HETATM   14  F1  UNL     1      14.421  -4.980  52.464  1.00  0.00    -0.206 F 
HETATM   15  C16 UNL     1      16.548  -4.578  53.508  1.00  0.00     0.044 A 
HETATM   16  C15 UNL     1      17.540  -3.664  53.774  1.00  0.00     0.032 A 
ENDBRANCH   8  10
ENDBRANCH   7   8
ENDBRANCH   1   7
BRANCH   4  17
HETATM   17  N2  UNL     1      24.978   0.052  53.251  1.00  0.00    -0.367 N 
BRANCH  17  18
HETATM   18  C10 UNL     1      25.560   1.227  52.635  1.00  0.00     0.238 C 
HETATM   19 CL1  UNL     1      25.264   2.697  53.626  1.00  0.00    -0.109 Cl
ENDBRANCH  17  18
BRANCH  17  20
HETATM   20  C11 UNL     1      25.952  -0.870  53.789  1.00  0.00     0.139 C 
BRANCH  20  21
HETATM   21  C12 UNL     1      26.798  -1.524  52.732  1.00  0.00     0.134 C 
HETATM   22 CL2  UNL     1      28.491  -1.207  53.183  1.00  0.00    -0.129 Cl
ENDBRANCH  20  21
ENDBRANCH  17  20
ENDBRANCH   4  17
TORSDOF 7
ENDMDL
MODEL 9
REMARK VINA RESULT:      -6.3      3.855      6.030
REMARK  7 active torsions:
REMARK  status: ('A' for Active; 'I' for Inactive)
REMARK    1  A    between atoms: C4_5  and  N1_6 
REMARK    2  A    between atoms: N1_6  and  C5_7 
REMARK    3  A    between atoms: C5_7  and  C6_8 
REMARK    4  A    between atoms: C9_11  and  N2_12 
REMARK    5  A    between atoms: N2_12  and  C10_13 
REMARK    6  A    between atoms: N2_12  and  C11_15 
REMARK    7  A    between atoms: C11_15  and  C12_16 
ROOT
HETATM    1  C6  UNL     1      26.377   5.325  49.015  1.00  0.00    -0.040 A 
HETATM    2  C7  UNL     1      27.592   4.670  48.753  1.00  0.00     0.011 A 
HETATM    3  C8  UNL     1      28.752   5.292  48.289  1.00  0.00     0.030 A 
HETATM    4  C9  UNL     1      28.721   6.650  48.068  1.00  0.00     0.031 A 
HETATM    5  C13 UNL     1      27.531   7.288  48.324  1.00  0.00     0.030 A 
HETATM    6  C14 UNL     1      26.394   6.663  48.780  1.00  0.00     0.011 A 
ENDROOT
BRANCH   1   7
HETATM    7  C5  UNL     1      25.276   4.438  49.490  1.00  0.00     0.158 C 
BRANCH   7   8
HETATM    8  N1  UNL     1      25.474   3.931  50.807  1.00  0.00    -0.386 N 
HETATM    9  H3  UNL     1      25.698   4.697  51.522  1.00  0.00     0.160 HD
BRANCH   8  10
HETATM   10  C4  UNL     1      25.458   2.675  51.457  1.00  0.00     0.028 A 
HETATM   11  C3  UNL     1      24.389   2.189  52.227  1.00  0.00     0.032 A 
HETATM   12  C2  UNL     1      24.480   0.961  52.828  1.00  0.00     0.044 A 
HETATM   13  C1  UNL     1      25.585   0.164  52.716  1.00  0.00     0.116 A 
HETATM   14  F1  UNL     1      25.569  -1.029  53.352  1.00  0.00    -0.206 F 
HETATM   15  C16 UNL     1      26.640   0.618  51.968  1.00  0.00     0.044 A 
HETATM   16  C15 UNL     1      26.542   1.851  51.369  1.00  0.00     0.032 A 
ENDBRANCH   8  10
ENDBRANCH   7   8
ENDBRANCH   1   7
BRANCH   4  17
HETATM   17  N2  UNL     1      29.880   7.322  47.594  1.00  0.00    -0.367 N 
BRANCH  17  18
HETATM   18  C10 UNL     1      29.925   8.769  47.671  1.00  0.00     0.238 C 
HETATM   19 CL1  UNL     1      30.272   9.321  49.346  1.00  0.00    -0.109 Cl
ENDBRANCH  17  18
BRANCH  17  20
HETATM   20  C11 UNL     1      31.066   6.730  47.019  1.00  0.00     0.139 C 
BRANCH  20  21
HETATM   21  C12 UNL     1      32.192   6.579  48.004  1.00  0.00     0.134 C 
HETATM   22 CL2  UNL     1      32.335   4.834  48.334  1.00  0.00    -0.129 Cl
ENDBRANCH  20  21
ENDBRANCH  17  20
ENDBRANCH   4  17
TORSDOF 7
ENDMDL
