MODEL 1
REMARK VINA RESULT:      -6.6      0.000      0.000
REMARK  9 active torsions:
REMARK  status: ('A' for Active; 'I' for Inactive)
REMARK    1  A    between atoms: N1_2  and  C2_3 
REMARK    2  A    between atoms: C2_3  and  C3_4 
REMARK    3  A    between atoms: C5_8  and  C6_9 
REMARK    4  A    between atoms: C9_12  and  C10_13 
REMARK    5  A    between atoms: C10_13  and  O1_14 
REMARK    6  A    between atoms: C14_18  and  C15_19 
REMARK    7  A    between atoms: C15_19  and  C16_20 
REMARK    8  A    between atoms: C16_20  and  C17_21 
REMARK    9  A    between atoms: C17_21  and  O2_22 
ROOT
HETATM    1  C3  UNL     1      22.553   1.040  52.189  1.00  0.00     0.076 A 
HETATM    2  N2  UNL     1      21.683   0.577  51.252  1.00  0.00    -0.244 NA
HETATM    3  C4  UNL     1      21.795   1.078  50.013  1.00  0.00     0.234 A 
HETATM    4  N3  UNL     1      22.712   1.999  49.668  1.00  0.00    -0.240 NA
HETATM    5  C5  UNL     1      23.595   2.487  50.572  1.00  0.00     0.080 A 
HETATM    6  C14 UNL     1      23.494   1.981  51.849  1.00  0.00     0.020 A 
ENDROOT
BRANCH   5   7
HETATM    7  C6  UNL     1      24.530   3.471  50.067  1.00  0.00    -0.006 A 
HETATM    8  C7  UNL     1      25.787   2.933  49.774  1.00  0.00     0.014 A 
HETATM    9  C8  UNL     1      26.833   3.674  49.268  1.00  0.00     0.010 A 
HETATM   10  C9  UNL     1      26.662   5.025  49.023  1.00  0.00    -0.035 A 
HETATM   11  C12 UNL     1      25.424   5.560  49.310  1.00  0.00     0.010 A 
HETATM   12  C13 UNL     1      24.379   4.819  49.816  1.00  0.00     0.014 A 
BRANCH  10  13
HETATM   13  C10 UNL     1      27.784   5.825  48.480  1.00  0.00     0.205 C 
BRANCH  13  14
HETATM   14  O1  UNL     1      28.907   5.046  48.355  1.00  0.00    -0.391 OA
HETATM   15  C11 UNL     1      30.078   5.746  48.159  1.00  0.00     0.201 C 
ENDBRANCH  13  14
ENDBRANCH  10  13
ENDBRANCH   5   7
BRANCH   6  16
HETATM   16  C15 UNL     1      24.420   2.480  52.817  1.00  0.00     0.014 C 
BRANCH  16  17
HETATM   17  C16 UNL     1      25.520   2.289  53.507  1.00  0.00     0.000 C 
BRANCH  17  18
HETATM   18  C17 UNL     1      26.302   1.089  53.862  1.00  0.00     0.194 C 
BRANCH  18  19
HETATM   19  O2  UNL     1      27.494   1.409  54.498  1.00  0.00    -0.392 OA
HETATM   20  C18 UNL     1      28.242   0.297  54.781  1.00  0.00     0.201 C 
ENDBRANCH  18  19
ENDBRANCH  17  18
ENDBRANCH  16  17
ENDBRANCH   6  16
BRANCH   1  21
HETATM   21  C2  UNL     1      22.399   0.445  53.535  1.00  0.00     0.329 C 
BRANCH  21  22
HETATM   22  N1  UNL     1      22.427  -0.991  53.509  1.00  0.00     0.084 N 
HETATM   23  C1  UNL     1      21.427  -1.602  54.333  1.00  0.00     0.307 C 
HETATM   24  H4  UNL     1      22.478  -1.382  52.563  1.00  0.00     0.315 HD
ENDBRANCH  21  22
ENDBRANCH   1  21
TORSDOF 9
ENDMDL
MODEL 2
REMARK VINA RESULT:      -6.5      2.947      5.377
REMARK  9 active torsions:
REMARK  status: ('A' for Active; 'I' for Inactive)
REMARK    1  A    between atoms: N1_2  and  C2_3 
REMARK    2  A    between atoms: C2_3  and  C3_4 
REMARK    3  A    between atoms: C5_8  and  C6_9 
REMARK    4  A    between atoms: C9_12  and  C10_13 
REMARK    5  A    between atoms: C10_13  and  O1_14 
REMARK    6  A    between atoms: C14_18  and  C15_19 
REMARK    7  A    between atoms: C15_19  and  C16_20 
REMARK    8  A    between atoms: C16_20  and  C17_21 
REMARK    9  A    between atoms: C17_21  and  O2_22 
ROOT
HETATM    1  C3  UNL     1      26.370  -0.332  53.292  1.00  0.00     0.076 A 
HETATM    2  N2  UNL     1      25.714  -1.056  54.237  1.00  0.00    -0.244 NA
HETATM    3  C4  UNL     1      24.412  -0.794  54.414  1.00  0.00     0.234 A 
HETATM    4  N3  UNL     1      23.743   0.137  53.711  1.00  0.00    -0.240 NA
HETATM    5  C5  UNL     1      24.359   0.879  52.760  1.00  0.00     0.080 A 
HETATM    6  C14 UNL     1      25.698   0.621  52.566  1.00  0.00     0.020 A 
ENDROOT
BRANCH   5   7
HETATM    7  C6  UNL     1      23.521   1.842  52.075  1.00  0.00    -0.006 A 
HETATM    8  C7  UNL     1      23.393   3.049  52.769  1.00  0.00     0.014 A 
HETATM    9  C8  UNL     1      22.658   4.118  52.306  1.00  0.00     0.010 A 
HETATM   10  C9  UNL     1      22.000   4.026  51.092  1.00  0.00    -0.035 A 
HETATM   11  C12 UNL     1      22.124   2.838  50.404  1.00  0.00     0.010 A 
HETATM   12  C13 UNL     1      22.859   1.769  50.867  1.00  0.00     0.014 A 
BRANCH  10  13
HETATM   13  C10 UNL     1      21.208   5.173  50.592  1.00  0.00     0.205 C 
BRANCH  13  14
HETATM   14  O1  UNL     1      21.542   6.315  51.275  1.00  0.00    -0.391 OA
HETATM   15  C11 UNL     1      21.955   7.364  50.482  1.00  0.00     0.201 C 
ENDBRANCH  13  14
ENDBRANCH  10  13
ENDBRANCH   5   7
BRANCH   6  16
HETATM   16  C15 UNL     1      26.366   1.392  51.564  1.00  0.00     0.014 C 
BRANCH  16  17
HETATM   17  C16 UNL     1      26.839   2.557  51.187  1.00  0.00     0.000 C 
BRANCH  17  18
HETATM   18  C17 UNL     1      26.553   3.448  50.046  1.00  0.00     0.194 C 
BRANCH  18  19
HETATM   19  O2  UNL     1      25.606   4.414  50.360  1.00  0.00    -0.392 OA
HETATM   20  C18 UNL     1      25.044   4.969  49.241  1.00  0.00     0.201 C 
ENDBRANCH  18  19
ENDBRANCH  17  18
ENDBRANCH  16  17
ENDBRANCH   6  16
BRANCH   1  21
HETATM   21  C2  UNL     1      27.801  -0.671  53.123  1.00  0.00     0.329 C 
BRANCH  21  22
HETATM   22  N1  UNL     1      28.550  -0.520  54.340  1.00  0.00     0.084 N 
HETATM   23  C1  UNL     1      28.998   0.819  54.578  1.00  0.00     0.307 C 
HETATM   24  H4  UNL     1      28.103  -0.957  55.152  1.00  0.00     0.315 HD
ENDBRANCH  21  22
ENDBRANCH   1  21
TORSDOF 9
ENDMDL
MODEL 3
REMARK VINA RESULT:      -6.4      3.630      6.456
REMARK  9 active torsions:
REMARK  status: ('A' for Active; 'I' for Inactive)
REMARK    1  A    between atoms: N1_2  and  C2_3 
REMARK    2  A    between atoms: C2_3  and  C3_4 
REMARK    3  A    between atoms: C5_8  and  C6_9 
REMARK    4  A    between atoms: C9_12  and  C10_13 
REMARK    5  A    between atoms: C10_13  and  O1_14 
REMARK    6  A    between atoms: C14_18  and  C15_19 
REMARK    7  A    between atoms: C15_19  and  C16_20 
REMARK    8  A    between atoms: C16_20  and  C17_21 
REMARK    9  A    between atoms: C17_21  and  O2_22 
ROOT
HETATM    1  C3  UNL     1      26.490   1.084  52.339  1.00  0.00     0.076 A 
HETATM    2  N2  UNL     1      27.079   2.085  51.632  1.00  0.00    -0.244 NA
HETATM    3  C4  UNL     1      26.274   2.891  50.926  1.00  0.00     0.234 A 
HETATM    4  N3  UNL     1      24.937   2.752  50.887  1.00  0.00    -0.240 NA
HETATM    5  C5  UNL     1      24.312   1.768  51.577  1.00  0.00     0.080 A 
HETATM    6  C14 UNL     1      25.125   0.932  52.309  1.00  0.00     0.020 A 
ENDROOT
BRANCH   5   7
HETATM    7  C6  UNL     1      22.869   1.735  51.451  1.00  0.00    -0.006 A 
HETATM    8  C7  UNL     1      22.225   2.658  52.280  1.00  0.00     0.014 A 
HETATM    9  C8  UNL     1      20.858   2.820  52.323  1.00  0.00     0.010 A 
HETATM   10  C9  UNL     1      20.049   2.042  51.512  1.00  0.00    -0.035 A 
HETATM   11  C12 UNL     1      20.679   1.130  50.692  1.00  0.00     0.010 A 
HETATM   12  C13 UNL     1      22.047   0.969  50.651  1.00  0.00     0.014 A 
BRANCH  10  13
HETATM   13  C10 UNL     1      18.579   2.212  51.556  1.00  0.00     0.205 C 
BRANCH  13  14
HETATM   14  O1  UNL     1      18.258   3.474  51.989  1.00  0.00    -0.391 OA
HETATM   15  C11 UNL     1      17.115   4.004  51.429  1.00  0.00     0.201 C 
ENDBRANCH  13  14
ENDBRANCH  10  13
ENDBRANCH   5   7
BRANCH   6  16
HETATM   16  C15 UNL     1      24.483  -0.111  53.047  1.00  0.00     0.014 C 
BRANCH  16  17
HETATM   17  C16 UNL     1      23.984  -0.522  54.189  1.00  0.00     0.000 C 
BRANCH  17  18
HETATM   18  C17 UNL     1      22.654  -1.013  54.599  1.00  0.00     0.194 C 
BRANCH  18  19
HETATM   19  O2  UNL     1      21.639  -0.139  54.238  1.00  0.00    -0.392 OA
HETATM   20  C18 UNL     1      20.491  -0.798  53.884  1.00  0.00     0.201 C 
ENDBRANCH  18  19
ENDBRANCH  17  18
ENDBRANCH  16  17
ENDBRANCH   6  16
BRANCH   1  21
HETATM   21  C2  UNL     1      27.419   0.233  53.116  1.00  0.00     0.329 C 
BRANCH  21  22
HETATM   22  N1  UNL     1      27.770   0.814  54.382  1.00  0.00     0.084 N 
HETATM   23  C1  UNL     1      29.166   1.105  54.515  1.00  0.00     0.307 C 
HETATM   24  H4  UNL     1      27.158   1.586  54.661  1.00  0.00     0.315 HD
ENDBRANCH  21  22
ENDBRANCH   1  21
TORSDOF 9
ENDMDL
MODEL 4
REMARK VINA RESULT:      -6.4      3.281      6.646
REMARK  9 active torsions:
REMARK  status: ('A' for Active; 'I' for Inactive)
REMARK    1  A    between atoms: N1_2  and  C2_3 
REMARK    2  A    between atoms: C2_3  and  C3_4 
REMARK    3  A    between atoms: C5_8  and  C6_9 
REMARK    4  A    between atoms: C9_12  and  C10_13 
REMARK    5  A    between atoms: C10_13  and  O1_14 
REMARK    6  A    between atoms: C14_18  and  C15_19 
REMARK    7  A    between atoms: C15_19  and  C16_20 
REMARK    8  A    between atoms: C16_20  and  C17_21 
REMARK    9  A    between atoms: C17_21  and  O2_22 
ROOT
HETATM    1  C3  UNL     1      25.506  -0.452  54.079  1.00  0.00     0.076 A 
HETATM    2  N2  UNL     1      25.164  -1.190  55.169  1.00  0.00    -0.244 NA
HETATM    3  C4  UNL     1      23.856  -1.362  55.405  1.00  0.00     0.234 A 
HETATM    4  N3  UNL     1      22.890  -0.845  54.626  1.00  0.00    -0.240 NA
HETATM    5  C5  UNL     1      23.189  -0.104  53.532  1.00  0.00     0.080 A 
HETATM    6  C14 UNL     1      24.529   0.081  53.275  1.00  0.00     0.020 A 
ENDROOT
BRANCH   5   7
HETATM    7  C6  UNL     1      22.053   0.389  52.779  1.00  0.00    -0.006 A 
HETATM    8  C7  UNL     1      21.454   1.510  53.361  1.00  0.00     0.014 A 
HETATM    9  C8  UNL     1      20.369   2.162  52.818  1.00  0.00     0.010 A 
HETATM   10  C9  UNL     1      19.818   1.708  51.632  1.00  0.00    -0.035 A 
HETATM   11  C12 UNL     1      20.405   0.602  51.054  1.00  0.00     0.010 A 
HETATM   12  C13 UNL     1      21.491  -0.049  51.598  1.00  0.00     0.014 A 
BRANCH  10  13
HETATM   13  C10 UNL     1      18.650   2.404  51.045  1.00  0.00     0.205 C 
BRANCH  13  14
HETATM   14  O1  UNL     1      18.252   3.433  51.861  1.00  0.00    -0.391 OA
HETATM   15  C11 UNL     1      17.015   3.963  51.560  1.00  0.00     0.201 C 
ENDBRANCH  13  14
ENDBRANCH  10  13
ENDBRANCH   5   7
BRANCH   6  16
HETATM   16  C15 UNL     1      24.865   0.858  52.122  1.00  0.00     0.014 C 
BRANCH  16  17
HETATM   17  C16 UNL     1      25.319   1.989  51.636  1.00  0.00     0.000 C 
BRANCH  17  18
HETATM   18  C17 UNL     1      26.673   2.551  51.464  1.00  0.00     0.194 C 
BRANCH  18  19
HETATM   19  O2  UNL     1      26.872   3.057  50.187  1.00  0.00    -0.392 OA
HETATM   20  C18 UNL     1      25.741   3.640  49.681  1.00  0.00     0.201 C 
ENDBRANCH  18  19
ENDBRANCH  17  18
ENDBRANCH  16  17
ENDBRANCH   6  16
BRANCH   1  21
HETATM   21  C2  UNL     1      26.961  -0.305  53.852  1.00  0.00     0.329 C 
BRANCH  21  22
HETATM   22  N1  UNL     1      27.591   0.530  54.837  1.00  0.00     0.084 N 
HETATM   23  C1  UNL     1      28.924   0.922  54.492  1.00  0.00     0.307 C 
HETATM   24  H4  UNL     1      27.000   1.306  55.153  1.00  0.00     0.315 HD
ENDBRANCH  21  22
ENDBRANCH   1  21
TORSDOF 9
ENDMDL
MODEL 5
REMARK VINA RESULT:      -6.3      3.080      5.343
REMARK  9 active torsions:
REMARK  status: ('A' for Active; 'I' for Inactive)
REMARK    1  A    between atoms: N1_2  and  C2_3 
REMARK    2  A    between atoms: C2_3  and  C3_4 
REMARK    3  A    between atoms: C5_8  and  C6_9 
REMARK    4  A    between atoms: C9_12  and  C10_13 
REMARK    5  A    between atoms: C10_13  and  O1_14 
REMARK    6  A    between atoms: C14_18  and  C15_19 
REMARK    7  A    between atoms: C15_19  and  C16_20 
REMARK    8  A    between atoms: C16_20  and  C17_21 
REMARK    9  A    between atoms: C17_21  and  O2_22 
ROOT
HETATM    1  C3  UNL     1      21.121   0.083  52.510  1.00  0.00     0.076 A 
HETATM    2  N2  UNL     1      20.535  -0.645  53.498  1.00  0.00    -0.244 NA
HETATM    3  C4  UNL     1      21.347  -1.223  54.395  1.00  0.00     0.234 A 
HETATM    4  N3  UNL     1      22.687  -1.116  54.356  1.00  0.00    -0.240 NA
HETATM    5  C5  UNL     1      23.309  -0.400  53.389  1.00  0.00     0.080 A 
HETATM    6  C14 UNL     1      22.488   0.201  52.461  1.00  0.00     0.020 A 
ENDROOT
BRANCH   5   7
HETATM    7  C6  UNL     1      24.755  -0.363  53.468  1.00  0.00    -0.006 A 
HETATM    8  C7  UNL     1      25.225   0.340  54.581  1.00  0.00     0.014 A 
HETATM    9  C8  UNL     1      26.562   0.496  54.874  1.00  0.00     0.010 A 
HETATM   10  C9  UNL     1      27.517  -0.063  54.043  1.00  0.00    -0.035 A 
HETATM   11  C12 UNL     1      27.059  -0.757  52.943  1.00  0.00     0.010 A 
HETATM   12  C13 UNL     1      25.721  -0.913  52.651  1.00  0.00     0.014 A 
BRANCH  10  13
HETATM   13  C10 UNL     1      28.955   0.104  54.353  1.00  0.00     0.205 C 
BRANCH  13  14
HETATM   14  O1  UNL     1      29.198   1.373  54.814  1.00  0.00    -0.391 OA
HETATM   15  C11 UNL     1      29.084   2.365  53.864  1.00  0.00     0.201 C 
ENDBRANCH  13  14
ENDBRANCH  10  13
ENDBRANCH   5   7
BRANCH   6  16
HETATM   16  C15 UNL     1      23.126   0.964  51.433  1.00  0.00     0.014 C 
BRANCH  16  17
HETATM   17  C16 UNL     1      23.712   2.083  51.079  1.00  0.00     0.000 C 
BRANCH  17  18
HETATM   18  C17 UNL     1      24.566   3.053  51.792  1.00  0.00     0.194 C 
BRANCH  18  19
HETATM   19  O2  UNL     1      23.994   3.477  52.984  1.00  0.00    -0.392 OA
HETATM   20  C18 UNL     1      23.451   4.730  52.879  1.00  0.00     0.201 C 
ENDBRANCH  18  19
ENDBRANCH  17  18
ENDBRANCH  16  17
ENDBRANCH   6  16
BRANCH   1  21
HETATM   21  C2  UNL     1      20.182   0.715  51.556  1.00  0.00     0.329 C 
BRANCH  21  22
HETATM   22  N1  UNL     1      19.746   2.013  51.990  1.00  0.00     0.084 N 
HETATM   23  C1  UNL     1      18.426   2.353  51.554  1.00  0.00     0.307 C 
HETATM   24  H4  UNL     1      19.911   2.188  52.986  1.00  0.00     0.315 HD
ENDBRANCH  21  22
ENDBRANCH   1  21
TORSDOF 9
ENDMDL
MODEL 6
REMARK VINA RESULT:      -6.2      2.278      5.459
REMARK  9 active torsions:
REMARK  status: ('A' for Active; 'I' for Inactive)
REMARK    1  A    between atoms: N1_2  and  C2_3 
REMARK    2  A    between atoms: C2_3  and  C3_4 
REMARK    3  A    between atoms: C5_8  and  C6_9 
REMARK    4  A    between atoms: C9_12  and  C10_13 
REMARK    5  A    between atoms: C10_13  and  O1_14 
REMARK    6  A    between atoms: C14_18  and  C15_19 
REMARK    7  A    between atoms: C15_19  and  C16_20 
REMARK    8  A    between atoms: C16_20  and  C17_21 
REMARK    9  A    between atoms: C17_21  and  O2_22 
ROOT
HETATM    1  C3  UNL     1      21.445   0.239  52.978  1.00  0.00     0.076 A 
HETATM    2  N2  UNL     1      20.910  -0.697  53.807  1.00  0.00    -0.244 NA
HETATM    3  C4  UNL     1      21.760  -1.383  54.585  1.00  0.00     0.234 A 
HETATM    4  N3  UNL     1      23.091  -1.187  54.577  1.00  0.00    -0.240 NA
HETATM    5  C5  UNL     1      23.662  -0.266  53.766  1.00  0.00     0.080 A 
HETATM    6  C14 UNL     1      22.802   0.448  52.961  1.00  0.00     0.020 A 
ENDROOT
BRANCH   5   7
HETATM    7  C6  UNL     1      25.104  -0.155  53.861  1.00  0.00    -0.006 A 
HETATM    8  C7  UNL     1      25.755  -0.418  52.652  1.00  0.00     0.014 A 
HETATM    9  C8  UNL     1      27.122  -0.358  52.495  1.00  0.00     0.010 A 
HETATM   10  C9  UNL     1      27.923  -0.022  53.572  1.00  0.00    -0.035 A 
HETATM   11  C12 UNL     1      27.286   0.238  54.767  1.00  0.00     0.010 A 
HETATM   12  C13 UNL     1      25.918   0.179  54.923  1.00  0.00     0.014 A 
BRANCH  10  13
HETATM   13  C10 UNL     1      29.393   0.041  53.408  1.00  0.00     0.205 C 
BRANCH  13  14
HETATM   14  O1  UNL     1      29.984  -1.054  53.988  1.00  0.00    -0.391 OA
HETATM   15  C11 UNL     1      29.672  -2.260  53.397  1.00  0.00     0.201 C 
ENDBRANCH  13  14
ENDBRANCH  10  13
ENDBRANCH   5   7
BRANCH   6  16
HETATM   16  C15 UNL     1      23.386   1.429  52.100  1.00  0.00     0.014 C 
BRANCH  16  17
HETATM   17  C16 UNL     1      23.835   2.653  51.951  1.00  0.00     0.000 C 
BRANCH  17  18
HETATM   18  C17 UNL     1      24.577   3.339  50.875  1.00  0.00     0.194 C 
BRANCH  18  19
HETATM   19  O2  UNL     1      25.946   3.128  50.966  1.00  0.00    -0.392 OA
HETATM   20  C18 UNL     1      26.610   3.549  49.845  1.00  0.00     0.201 C 
ENDBRANCH  18  19
ENDBRANCH  17  18
ENDBRANCH  16  17
ENDBRANCH   6  16
BRANCH   1  21
HETATM   21  C2  UNL     1      20.464   0.979  52.154  1.00  0.00     0.329 C 
BRANCH  21  22
HETATM   22  N1  UNL     1      20.067   2.223  52.753  1.00  0.00     0.084 N 
HETATM   23  C1  UNL     1      19.958   3.303  51.820  1.00  0.00     0.307 C 
HETATM   24  H4  UNL     1      19.262   2.135  53.381  1.00  0.00     0.315 HD
ENDBRANCH  21  22
ENDBRANCH   1  21
TORSDOF 9
ENDMDL
MODEL 7
REMARK VINA RESULT:      -6.1      3.131      5.134
REMARK  9 active torsions:
REMARK  status: ('A' for Active; 'I' for Inactive)
REMARK    1  A    between atoms: N1_2  and  C2_3 
REMARK    2  A    between atoms: C2_3  and  C3_4 
REMARK    3  A    between atoms: C5_8  and  C6_9 
REMARK    4  A    between atoms: C9_12  and  C10_13 
REMARK    5  A    between atoms: C10_13  and  O1_14 
REMARK    6  A    between atoms: C14_18  and  C15_19 
REMARK    7  A    between atoms: C15_19  and  C16_20 
REMARK    8  A    between atoms: C16_20  and  C17_21 
REMARK    9  A    between atoms: C17_21  and  O2_22 
ROOT
HETATM    1  C3  UNL     1      21.889   3.049  50.724  1.00  0.00     0.076 A 
HETATM    2  N2  UNL     1      22.227   4.248  50.180  1.00  0.00    -0.244 NA
HETATM    3  C4  UNL     1      23.507   4.631  50.292  1.00  0.00     0.234 A 
HETATM    4  N3  UNL     1      24.448   3.894  50.908  1.00  0.00    -0.240 NA
HETATM    5  C5  UNL     1      24.152   2.694  51.463  1.00  0.00     0.080 A 
HETATM    6  C14 UNL     1      22.841   2.286  51.355  1.00  0.00     0.020 A 
ENDROOT
BRANCH   5   7
HETATM    7  C6  UNL     1      25.260   2.003  52.090  1.00  0.00    -0.006 A 
HETATM    8  C7  UNL     1      25.427   2.342  53.436  1.00  0.00     0.014 A 
HETATM    9  C8  UNL     1      26.404   1.802  54.242  1.00  0.00     0.010 A 
HETATM   10  C9  UNL     1      27.284   0.868  53.723  1.00  0.00    -0.035 A 
HETATM   11  C12 UNL     1      27.124   0.530  52.395  1.00  0.00     0.010 A 
HETATM   12  C13 UNL     1      26.146   1.071  51.590  1.00  0.00     0.014 A 
BRANCH  10  13
HETATM   13  C10 UNL     1      28.337   0.285  54.585  1.00  0.00     0.205 C 
BRANCH  13  14
HETATM   14  O1  UNL     1      29.522   0.200  53.897  1.00  0.00    -0.391 OA
HETATM   15  C11 UNL     1      30.009  -1.081  53.742  1.00  0.00     0.201 C 
ENDBRANCH  13  14
ENDBRANCH  10  13
ENDBRANCH   5   7
BRANCH   6  16
HETATM   16  C15 UNL     1      22.509   1.021  51.932  1.00  0.00     0.014 C 
BRANCH  16  17
HETATM   17  C16 UNL     1      22.257   0.322  53.014  1.00  0.00     0.000 C 
BRANCH  17  18
HETATM   18  C17 UNL     1      23.075  -0.560  53.868  1.00  0.00     0.194 C 
BRANCH  18  19
HETATM   19  O2  UNL     1      22.331  -1.140  54.887  1.00  0.00    -0.392 OA
HETATM   20  C18 UNL     1      21.124  -1.609  54.441  1.00  0.00     0.201 C 
ENDBRANCH  18  19
ENDBRANCH  17  18
ENDBRANCH  16  17
ENDBRANCH   6  16
BRANCH   1  21
HETATM   21  C2  UNL     1      20.469   2.664  50.560  1.00  0.00     0.329 C 
BRANCH  21  22
HETATM   22  N1  UNL     1      19.635   3.175  51.612  1.00  0.00     0.084 N 
HETATM   23  C1  UNL     1      18.249   3.250  51.262  1.00  0.00     0.307 C 
HETATM   24  H4  UNL     1      19.809   2.735  52.521  1.00  0.00     0.315 HD
ENDBRANCH  21  22
ENDBRANCH   1  21
TORSDOF 9
ENDMDL
MODEL 8
REMARK VINA RESULT:      -6.0      3.475      5.571
REMARK  9 active torsions:
REMARK  status: ('A' for Active; 'I' for Inactive)
REMARK    1  A    between atoms: N1_2  and  C2_3 
REMARK    2  A    between atoms: C2_3  and  C3_4 
REMARK    3  A    between atoms: C5_8  and  C6_9 
REMARK    4  A    between atoms: C9_12  and  C10_13 
REMARK    5  A    between atoms: C10_13  and  O1_14 
REMARK    6  A    between atoms: C14_18  and  C15_19 
REMARK    7  A    between atoms: C15_19  and  C16_20 
REMARK    8  A    between atoms: C16_20  and  C17_21 
REMARK    9  A    between atoms: C17_21  and  O2_22 
ROOT
HETATM    1  C3  UNL     1      21.450   4.090  50.643  1.00  0.00     0.076 A 
HETATM    2  N2  UNL     1      21.759   5.363  51.007  1.00  0.00    -0.244 NA
HETATM    3  C4  UNL     1      22.941   5.558  51.609  1.00  0.00     0.234 A 
HETATM    4  N3  UNL     1      23.813   4.567  51.863  1.00  0.00    -0.240 NA
HETATM    5  C5  UNL     1      23.544   3.286  51.517  1.00  0.00     0.080 A 
HETATM    6  C14 UNL     1      22.334   3.069  50.897  1.00  0.00     0.020 A 
ENDROOT
BRANCH   5   7
HETATM    7  C6  UNL     1      24.572   2.319  51.845  1.00  0.00    -0.006 A 
HETATM    8  C7  UNL     1      24.262   1.550  52.971  1.00  0.00     0.014 A 
HETATM    9  C8  UNL     1      25.080   0.557  53.463  1.00  0.00     0.010 A 
HETATM   10  C9  UNL     1      26.280   0.279  52.832  1.00  0.00    -0.035 A 
HETATM   11  C12 UNL     1      26.590   1.035  51.720  1.00  0.00     0.010 A 
HETATM   12  C13 UNL     1      25.771   2.028  51.229  1.00  0.00     0.014 A 
BRANCH  10  13
HETATM   13  C10 UNL     1      27.163  -0.786  53.358  1.00  0.00     0.205 C 
BRANCH  13  14
HETATM   14  O1  UNL     1      27.507  -0.518  54.660  1.00  0.00    -0.391 OA
HETATM   15  C11 UNL     1      28.642   0.248  54.812  1.00  0.00     0.201 C 
ENDBRANCH  13  14
ENDBRANCH  10  13
ENDBRANCH   5   7
BRANCH   6  16
HETATM   16  C15 UNL     1      22.032   1.723  50.520  1.00  0.00     0.014 C 
BRANCH  16  17
HETATM   17  C16 UNL     1      21.425   0.596  50.809  1.00  0.00     0.000 C 
BRANCH  17  18
HETATM   18  C17 UNL     1      20.639   0.133  51.970  1.00  0.00     0.194 C 
BRANCH  18  19
HETATM   19  O2  UNL     1      20.777   0.975  53.065  1.00  0.00    -0.392 OA
HETATM   20  C18 UNL     1      20.850   0.281  54.243  1.00  0.00     0.201 C 
ENDBRANCH  18  19
ENDBRANCH  17  18
ENDBRANCH  16  17
ENDBRANCH   6  16
BRANCH   1  21
HETATM   21  C2  UNL     1      20.143   3.930  49.968  1.00  0.00     0.329 C 
BRANCH  21  22
HETATM   22  N1  UNL     1      19.038   4.277  50.817  1.00  0.00     0.084 N 
HETATM   23  C1  UNL     1      18.442   3.153  51.474  1.00  0.00     0.307 C 
HETATM   24  H4  UNL     1      19.235   5.065  51.441  1.00  0.00     0.315 HD
ENDBRANCH  21  22
ENDBRANCH   1  21
TORSDOF 9
ENDMDL
MODEL 9
REMARK VINA RESULT:      -6.0      3.420      7.515
REMARK  9 active torsions:
REMARK  status: ('A' for Active; 'I' for Inactive)
REMARK    1  A    between atoms: N1_2  and  C2_3 
REMARK    2  A    between atoms: C2_3  and  C3_4 
REMARK    3  A    between atoms: C5_8  and  C6_9 
REMARK    4  A    between atoms: C9_12  and  C10_13 
REMARK    5  A    between atoms: C10_13  and  O1_14 
REMARK    6  A    between atoms: C14_18  and  C15_19 
REMARK    7  A    between atoms: C15_19  and  C16_20 
REMARK    8  A    between atoms: C16_20  and  C17_21 
REMARK    9  A    between atoms: C17_21  and  O2_22 
ROOT
HETATM    1  C3  UNL     1      25.939   6.216  49.671  1.00  0.00     0.076 A 
HETATM    2  N2  UNL     1      26.973   5.704  48.951  1.00  0.00    -0.244 NA
HETATM    3  C4  UNL     1      27.108   4.371  48.936  1.00  0.00     0.234 A 
HETATM    4  N3  UNL     1      26.281   3.537  49.591  1.00  0.00    -0.240 NA
HETATM    5  C5  UNL     1      25.240   4.006  50.320  1.00  0.00     0.080 A 
HETATM    6  C14 UNL     1      25.087   5.375  50.344  1.00  0.00     0.020 A 
ENDROOT
BRANCH   5   7
HETATM    7  C6  UNL     1      24.425   2.999  50.970  1.00  0.00    -0.006 A 
HETATM    8  C7  UNL     1      23.412   2.499  50.148  1.00  0.00     0.014 A 
HETATM    9  C8  UNL     1      22.523   1.524  50.543  1.00  0.00     0.010 A 
HETATM   10  C9  UNL     1      22.611   0.988  51.816  1.00  0.00    -0.035 A 
HETATM   11  C12 UNL     1      23.610   1.479  52.631  1.00  0.00     0.010 A 
HETATM   12  C13 UNL     1      24.499   2.454  52.235  1.00  0.00     0.014 A 
BRANCH  10  13
HETATM   13  C10 UNL     1      21.657  -0.059  52.245  1.00  0.00     0.205 C 
BRANCH  13  14
HETATM   14  O1  UNL     1      22.145  -0.726  53.341  1.00  0.00    -0.391 OA
HETATM   15  C11 UNL     1      21.181  -1.245  54.179  1.00  0.00     0.201 C 
ENDBRANCH  13  14
ENDBRANCH  10  13
ENDBRANCH   5   7
BRANCH   6  16
HETATM   16  C15 UNL     1      23.991   5.889  51.105  1.00  0.00     0.014 C 
BRANCH  16  17
HETATM   17  C16 UNL     1      22.715   6.189  51.155  1.00  0.00     0.000 C 
BRANCH  17  18
HETATM   18  C17 UNL     1      21.485   5.381  51.268  1.00  0.00     0.194 C 
BRANCH  18  19
HETATM   19  O2  UNL     1      20.986   5.010  50.026  1.00  0.00    -0.392 OA
HETATM   20  C18 UNL     1      19.700   4.545  50.104  1.00  0.00     0.201 C 
ENDBRANCH  18  19
ENDBRANCH  17  18
ENDBRANCH  16  17
ENDBRANCH   6  16
BRANCH   1  21
HETATM   21  C2  UNL     1      25.824   7.691  49.642  1.00  0.00     0.329 C 
BRANCH  21  22
HETATM   22  N1  UNL     1      26.725   8.332  50.560  1.00  0.00     0.084 N 
HETATM   23  C1  UNL     1      27.644   9.232  49.931  1.00  0.00     0.307 C 
HETATM   24  H4  UNL     1      26.258   8.726  51.383  1.00  0.00     0.315 HD
ENDBRANCH  21  22
ENDBRANCH   1  21
TORSDOF 9
ENDMDL
