MODEL 1
REMARK VINA RESULT:      -9.3      0.000      0.000
REMARK  0 active torsions:
REMARK  status: ('A' for Active; 'I' for Inactive)
ROOT
HETATM    1  C1  UNL     1      28.685   0.789  53.105  1.00  0.00     0.026 C 
HETATM    2  C2  UNL     1      27.495   0.139  53.630  1.00  0.00     0.007 C 
HETATM    3  C3  UNL     1      26.842  -0.878  52.870  1.00  0.00    -0.011 C 
HETATM    4  C4  UNL     1      25.558  -1.056  53.120  1.00  0.00     0.014 C 
HETATM    5  C5  UNL     1      25.139  -0.759  54.491  1.00  0.00     0.028 C 
HETATM    6  C6  UNL     1      25.915  -0.345  55.458  1.00  0.00    -0.008 C 
HETATM    7  C7  UNL     1      26.832   0.659  54.796  1.00  0.00     0.047 C 
HETATM    8  C8  UNL     1      23.676  -0.937  54.708  1.00  0.00     0.255 C 
HETATM    9  O1  UNL     1      22.731  -1.299  55.462  1.00  0.00    -0.267 OA
HETATM   10  N1  UNL     1      22.561  -0.682  53.923  1.00  0.00    -0.323 N 
HETATM   11  C9  UNL     1      21.419  -0.424  53.123  1.00  0.00     0.037 A 
HETATM   12  C10 UNL     1      20.176  -0.701  53.608  1.00  0.00     0.029 A 
HETATM   13  C11 UNL     1      19.094  -0.398  52.813  1.00  0.00     0.004 A 
HETATM   14  C12 UNL     1      19.172   0.179  51.536  1.00  0.00     0.029 A 
HETATM   15  C13 UNL     1      20.426   0.459  51.046  1.00  0.00     0.035 A 
HETATM   16  C14 UNL     1      21.461   0.143  51.860  1.00  0.00     0.059 A 
HETATM   17  N2  UNL     1      20.768   1.069  49.783  1.00  0.00    -0.351 N 
HETATM   18  C15 UNL     1      22.143   1.366  49.481  1.00  0.00     0.201 C 
HETATM   19  N3  UNL     1      22.529   2.119  50.419  1.00  0.00    -0.276 NA
HETATM   20  C16 UNL     1      23.757   2.703  50.643  1.00  0.00     0.151 C 
HETATM   21  C17 UNL     1      24.790   3.461  50.699  1.00  0.00     0.101 C 
HETATM   22  C18 UNL     1      25.492   2.595  51.426  1.00  0.00    -0.146 C 
HETATM   23  P1  UNL     1      26.224   1.692  52.215  1.00  0.00    -0.047 P 
HETATM   24  H9  UNL     1      23.243  -0.357  53.172  1.00  0.00     0.169 HD
HETATM   25  H14 UNL     1      19.887   1.223  49.216  1.00  0.00     0.166 HD
HETATM   26  H18 UNL     1      26.490   1.367  52.488  1.00  0.00     0.071 HD
ENDROOT
TORSDOF 0
ENDMDL
MODEL 2
REMARK VINA RESULT:      -8.3      2.348      6.069
REMARK  0 active torsions:
REMARK  status: ('A' for Active; 'I' for Inactive)
ROOT
HETATM    1  C1  UNL     1      17.903   2.888  50.370  1.00  0.00     0.026 C 
HETATM    2  C2  UNL     1      18.779   2.076  51.199  1.00  0.00     0.007 C 
HETATM    3  C3  UNL     1      19.537   2.682  52.246  1.00  0.00    -0.011 C 
HETATM    4  C4  UNL     1      20.641   2.053  52.603  1.00  0.00     0.014 C 
HETATM    5  C5  UNL     1      20.612   0.598  52.444  1.00  0.00     0.028 C 
HETATM    6  C6  UNL     1      19.608  -0.105  51.989  1.00  0.00    -0.008 C 
HETATM    7  C7  UNL     1      19.070   0.714  50.838  1.00  0.00     0.047 C 
HETATM    8  C8  UNL     1      21.895  -0.059  52.823  1.00  0.00     0.255 C 
HETATM    9  O1  UNL     1      22.495  -1.037  53.348  1.00  0.00    -0.267 OA
HETATM   10  N1  UNL     1      23.226   0.298  52.670  1.00  0.00    -0.323 N 
HETATM   11  C9  UNL     1      24.589   0.661  52.515  1.00  0.00     0.037 A 
HETATM   12  C10 UNL     1      25.566  -0.168  52.980  1.00  0.00     0.029 A 
HETATM   13  C11 UNL     1      26.875   0.205  52.774  1.00  0.00     0.004 A 
HETATM   14  C12 UNL     1      27.284   1.377  52.118  1.00  0.00     0.029 A 
HETATM   15  C13 UNL     1      26.298   2.212  51.649  1.00  0.00     0.035 A 
HETATM   16  C14 UNL     1      25.025   1.808  51.875  1.00  0.00     0.059 A 
HETATM   17  N2  UNL     1      26.456   3.453  50.927  1.00  0.00    -0.351 N 
HETATM   18  C15 UNL     1      25.297   4.149  50.437  1.00  0.00     0.201 C 
HETATM   19  N3  UNL     1      24.703   3.315  49.697  1.00  0.00    -0.276 NA
HETATM   20  C16 UNL     1      23.538   3.441  48.971  1.00  0.00     0.151 C 
HETATM   21  C17 UNL     1      22.629   3.646  48.091  1.00  0.00     0.101 C 
HETATM   22  C18 UNL     1      21.640   3.270  48.898  1.00  0.00    -0.146 C 
HETATM   23  P1  UNL     1      20.599   2.849  49.744  1.00  0.00    -0.047 P 
HETATM   24  H9  UNL     1      22.868   1.192  52.215  1.00  0.00     0.169 HD
HETATM   25  H14 UNL     1      27.486   3.689  50.856  1.00  0.00     0.166 HD
HETATM   26  H18 UNL     1      20.226   2.709  50.047  1.00  0.00     0.071 HD
ENDROOT
TORSDOF 0
ENDMDL
MODEL 3
REMARK VINA RESULT:      -8.2      2.911      6.372
REMARK  0 active torsions:
REMARK  status: ('A' for Active; 'I' for Inactive)
ROOT
HETATM    1  C1  UNL     1      21.085   5.196  47.943  1.00  0.00     0.026 C 
HETATM    2  C2  UNL     1      22.408   4.731  48.329  1.00  0.00     0.007 C 
HETATM    3  C3  UNL     1      22.797   3.383  48.067  1.00  0.00    -0.011 C 
HETATM    4  C4  UNL     1      23.736   2.886  48.852  1.00  0.00     0.014 C 
HETATM    5  C5  UNL     1      24.701   3.859  49.365  1.00  0.00     0.028 C 
HETATM    6  C6  UNL     1      24.707   5.142  49.115  1.00  0.00    -0.008 C 
HETATM    7  C7  UNL     1      23.249   5.539  49.172  1.00  0.00     0.047 C 
HETATM    8  C8  UNL     1      25.714   3.254  50.276  1.00  0.00     0.255 C 
HETATM    9  O1  UNL     1      26.904   3.210  50.692  1.00  0.00    -0.267 OA
HETATM   10  N1  UNL     1      25.651   2.259  51.240  1.00  0.00    -0.323 N 
HETATM   11  C9  UNL     1      25.589   1.242  52.226  1.00  0.00     0.037 A 
HETATM   12  C10 UNL     1      26.714   0.895  52.912  1.00  0.00     0.029 A 
HETATM   13  C11 UNL     1      26.601  -0.070  53.888  1.00  0.00     0.004 A 
HETATM   14  C12 UNL     1      25.409  -0.727  54.233  1.00  0.00     0.029 A 
HETATM   15  C13 UNL     1      24.274  -0.377  53.541  1.00  0.00     0.035 A 
HETATM   16  C14 UNL     1      24.432   0.574  52.591  1.00  0.00     0.059 A 
HETATM   17  N2  UNL     1      22.934  -0.884  53.723  1.00  0.00    -0.351 N 
HETATM   18  C15 UNL     1      21.849  -0.330  52.959  1.00  0.00     0.201 C 
HETATM   19  N3  UNL     1      21.861   0.905  53.223  1.00  0.00    -0.276 NA
HETATM   20  C16 UNL     1      21.046   1.920  52.768  1.00  0.00     0.151 C 
HETATM   21  C17 UNL     1      20.131   2.797  52.573  1.00  0.00     0.101 C 
HETATM   22  C18 UNL     1      20.701   3.272  51.469  1.00  0.00    -0.146 C 
HETATM   23  P1  UNL     1      21.318   3.791  50.317  1.00  0.00    -0.047 P 
HETATM   24  H9  UNL     1      24.621   2.164  50.984  1.00  0.00     0.169 HD
HETATM   25  H14 UNL     1      22.944  -1.652  54.452  1.00  0.00     0.166 HD
HETATM   26  H18 UNL     1      21.531   3.970  49.901  1.00  0.00     0.071 HD
ENDROOT
TORSDOF 0
ENDMDL
MODEL 4
REMARK VINA RESULT:      -8.1      2.926      5.662
REMARK  0 active torsions:
REMARK  status: ('A' for Active; 'I' for Inactive)
ROOT
HETATM    1  C1  UNL     1      21.778   5.459  47.325  1.00  0.00     0.026 C 
HETATM    2  C2  UNL     1      22.630   4.583  48.114  1.00  0.00     0.007 C 
HETATM    3  C3  UNL     1      22.579   3.170  47.920  1.00  0.00    -0.011 C 
HETATM    4  C4  UNL     1      22.948   2.428  48.947  1.00  0.00     0.014 C 
HETATM    5  C5  UNL     1      23.956   3.028  49.822  1.00  0.00     0.028 C 
HETATM    6  C6  UNL     1      24.504   4.206  49.669  1.00  0.00    -0.008 C 
HETATM    7  C7  UNL     1      23.358   5.097  49.243  1.00  0.00     0.047 C 
HETATM    8  C8  UNL     1      24.308   2.169  50.987  1.00  0.00     0.255 C 
HETATM    9  O1  UNL     1      25.184   1.735  51.785  1.00  0.00    -0.267 OA
HETATM   10  N1  UNL     1      23.568   1.330  51.807  1.00  0.00    -0.323 N 
HETATM   11  C9  UNL     1      22.813   0.471  52.646  1.00  0.00     0.037 A 
HETATM   12  C10 UNL     1      23.432  -0.204  53.655  1.00  0.00     0.029 A 
HETATM   13  C11 UNL     1      22.655  -0.996  54.470  1.00  0.00     0.004 A 
HETATM   14  C12 UNL     1      21.267  -1.163  54.342  1.00  0.00     0.029 A 
HETATM   15  C13 UNL     1      20.643  -0.482  53.323  1.00  0.00     0.035 A 
HETATM   16  C14 UNL     1      21.445   0.283  52.546  1.00  0.00     0.059 A 
HETATM   17  N2  UNL     1      19.236  -0.468  52.999  1.00  0.00    -0.351 N 
HETATM   18  C15 UNL     1      18.752   0.381  51.943  1.00  0.00     0.201 C 
HETATM   19  N3  UNL     1      19.111   1.547  52.271  1.00  0.00    -0.276 NA
HETATM   20  C16 UNL     1      18.920   2.751  51.627  1.00  0.00     0.151 C 
HETATM   21  C17 UNL     1      18.504   3.879  51.182  1.00  0.00     0.101 C 
HETATM   22  C18 UNL     1      19.548   4.044  50.375  1.00  0.00    -0.146 C 
HETATM   23  P1  UNL     1      20.665   4.230  49.541  1.00  0.00    -0.047 P 
HETATM   24  H9  UNL     1      22.727   1.589  51.205  1.00  0.00     0.169 HD
HETATM   25  H14 UNL     1      18.720  -1.137  53.638  1.00  0.00     0.166 HD
HETATM   26  H18 UNL     1      21.056   4.293  49.236  1.00  0.00     0.071 HD
ENDROOT
TORSDOF 0
ENDMDL
MODEL 5
REMARK VINA RESULT:      -8.0      2.782      5.129
REMARK  0 active torsions:
REMARK  status: ('A' for Active; 'I' for Inactive)
ROOT
HETATM    1  C1  UNL     1      25.246  -1.140  55.002  1.00  0.00     0.026 C 
HETATM    2  C2  UNL     1      25.802  -0.129  54.117  1.00  0.00     0.007 C 
HETATM    3  C3  UNL     1      25.712   1.253  54.463  1.00  0.00    -0.011 C 
HETATM    4  C4  UNL     1      25.750   2.107  53.458  1.00  0.00     0.014 C 
HETATM    5  C5  UNL     1      26.531   1.675  52.298  1.00  0.00     0.028 C 
HETATM    6  C6  UNL     1      27.174   0.542  52.184  1.00  0.00    -0.008 C 
HETATM    7  C7  UNL     1      26.241  -0.480  52.792  1.00  0.00     0.047 C 
HETATM    8  C8  UNL     1      26.508   2.657  51.177  1.00  0.00     0.255 C 
HETATM    9  O1  UNL     1      27.114   3.232  50.232  1.00  0.00    -0.267 OA
HETATM   10  N1  UNL     1      25.526   3.491  50.665  1.00  0.00    -0.323 N 
HETATM   11  C9  UNL     1      24.524   4.346  50.139  1.00  0.00     0.037 A 
HETATM   12  C10 UNL     1      24.812   5.155  49.080  1.00  0.00     0.029 A 
HETATM   13  C11 UNL     1      23.798   5.939  48.578  1.00  0.00     0.004 A 
HETATM   14  C12 UNL     1      22.485   5.970  49.071  1.00  0.00     0.029 A 
HETATM   15  C13 UNL     1      22.195   5.154  50.139  1.00  0.00     0.035 A 
HETATM   16  C14 UNL     1      23.220   4.401  50.603  1.00  0.00     0.059 A 
HETATM   17  N2  UNL     1      20.926   4.986  50.807  1.00  0.00    -0.351 N 
HETATM   18  C15 UNL     1      20.792   4.012  51.858  1.00  0.00     0.201 C 
HETATM   19  N3  UNL     1      21.127   2.915  51.330  1.00  0.00    -0.276 NA
HETATM   20  C16 UNL     1      21.190   1.649  51.873  1.00  0.00     0.151 C 
HETATM   21  C17 UNL     1      20.979   0.455  52.290  1.00  0.00     0.101 C 
HETATM   22  C18 UNL     1      22.207   0.318  52.783  1.00  0.00    -0.146 C 
HETATM   23  P1  UNL     1      23.513   0.164  53.282  1.00  0.00    -0.047 P 
HETATM   24  H9  UNL     1      24.892   3.109  51.430  1.00  0.00     0.169 HD
HETATM   25  H14 UNL     1      20.219   5.658  50.394  1.00  0.00     0.166 HD
HETATM   26  H18 UNL     1      23.974   0.111  53.468  1.00  0.00     0.071 HD
ENDROOT
TORSDOF 0
ENDMDL
MODEL 6
REMARK VINA RESULT:      -7.6      2.900      6.122
REMARK  0 active torsions:
REMARK  status: ('A' for Active; 'I' for Inactive)
ROOT
HETATM    1  C1  UNL     1      21.898  -1.491  53.693  1.00  0.00     0.026 C 
HETATM    2  C2  UNL     1      21.432  -0.289  53.020  1.00  0.00     0.007 C 
HETATM    3  C3  UNL     1      21.572  -0.161  51.605  1.00  0.00    -0.011 C 
HETATM    4  C4  UNL     1      21.621   1.071  51.135  1.00  0.00     0.014 C 
HETATM    5  C5  UNL     1      20.874   2.066  51.907  1.00  0.00     0.028 C 
HETATM    6  C6  UNL     1      20.183   1.835  52.993  1.00  0.00    -0.008 C 
HETATM    7  C7  UNL     1      21.038   0.868  53.780  1.00  0.00     0.047 C 
HETATM    8  C8  UNL     1      20.995   3.446  51.358  1.00  0.00     0.255 C 
HETATM    9  O1  UNL     1      20.462   4.563  51.114  1.00  0.00    -0.267 OA
HETATM   10  N1  UNL     1      22.039   4.147  50.772  1.00  0.00    -0.323 N 
HETATM   11  C9  UNL     1      23.104   4.867  50.172  1.00  0.00     0.037 A 
HETATM   12  C10 UNL     1      22.904   6.149  49.756  1.00  0.00     0.029 A 
HETATM   13  C11 UNL     1      23.976   6.822  49.215  1.00  0.00     0.004 A 
HETATM   14  C12 UNL     1      25.265   6.290  49.060  1.00  0.00     0.029 A 
HETATM   15  C13 UNL     1      25.467   4.997  49.480  1.00  0.00     0.035 A 
HETATM   16  C14 UNL     1      24.386   4.371  50.004  1.00  0.00     0.059 A 
HETATM   17  N2  UNL     1      26.694   4.237  49.453  1.00  0.00    -0.351 N 
HETATM   18  C15 UNL     1      26.732   2.916  50.023  1.00  0.00     0.201 C 
HETATM   19  N3  UNL     1      26.370   3.068  51.223  1.00  0.00    -0.276 NA
HETATM   20  C16 UNL     1      26.221   2.140  52.232  1.00  0.00     0.151 C 
HETATM   21  C17 UNL     1      26.356   1.339  53.224  1.00  0.00     0.101 C 
HETATM   22  C18 UNL     1      25.101   0.902  53.152  1.00  0.00    -0.146 C 
HETATM   23  P1  UNL     1      23.768   0.459  53.091  1.00  0.00    -0.047 P 
HETATM   24  H9  UNL     1      22.618   3.262  50.895  1.00  0.00     0.169 HD
HETATM   25  H14 UNL     1      27.451   4.807  48.979  1.00  0.00     0.166 HD
HETATM   26  H18 UNL     1      23.297   0.293  53.065  1.00  0.00     0.071 HD
ENDROOT
TORSDOF 0
ENDMDL
MODEL 7
REMARK VINA RESULT:      -7.6      2.956      4.129
REMARK  0 active torsions:
REMARK  status: ('A' for Active; 'I' for Inactive)
ROOT
HETATM    1  C1  UNL     1      24.482   5.063  50.165  1.00  0.00     0.026 C 
HETATM    2  C2  UNL     1      24.192   3.863  50.934  1.00  0.00     0.007 C 
HETATM    3  C3  UNL     1      23.915   2.633  50.264  1.00  0.00    -0.011 C 
HETATM    4  C4  UNL     1      23.186   1.758  50.932  1.00  0.00     0.014 C 
HETATM    5  C5  UNL     1      23.335   1.802  52.388  1.00  0.00     0.028 C 
HETATM    6  C6  UNL     1      24.110   2.615  53.057  1.00  0.00    -0.008 C 
HETATM    7  C7  UNL     1      23.955   3.943  52.351  1.00  0.00     0.047 C 
HETATM    8  C8  UNL     1      22.462   0.823  53.096  1.00  0.00     0.255 C 
HETATM    9  O1  UNL     1      22.301   0.007  54.044  1.00  0.00    -0.267 OA
HETATM   10  N1  UNL     1      21.171   0.369  52.874  1.00  0.00    -0.323 N 
HETATM   11  C9  UNL     1      19.851  -0.099  52.651  1.00  0.00     0.037 A 
HETATM   12  C10 UNL     1      19.309  -1.024  53.491  1.00  0.00     0.029 A 
HETATM   13  C11 UNL     1      18.011  -1.421  53.259  1.00  0.00     0.004 A 
HETATM   14  C12 UNL     1      17.197  -0.942  52.221  1.00  0.00     0.029 A 
HETATM   15  C13 UNL     1      17.744  -0.008  51.373  1.00  0.00     0.035 A 
HETATM   16  C14 UNL     1      19.023   0.352  51.636  1.00  0.00     0.059 A 
HETATM   17  N2  UNL     1      17.112   0.650  50.254  1.00  0.00    -0.351 N 
HETATM   18  C15 UNL     1      17.820   1.674  49.531  1.00  0.00     0.201 C 
HETATM   19  N3  UNL     1      18.121   2.539  50.401  1.00  0.00    -0.276 NA
HETATM   20  C16 UNL     1      18.806   3.728  50.273  1.00  0.00     0.151 C 
HETATM   21  C17 UNL     1      19.183   4.943  50.107  1.00  0.00     0.101 C 
HETATM   22  C18 UNL     1      20.469   4.659  50.291  1.00  0.00    -0.146 C 
HETATM   23  P1  UNL     1      21.826   4.363  50.510  1.00  0.00    -0.047 P 
HETATM   24  H9  UNL     1      21.162   1.004  52.019  1.00  0.00     0.169 HD
HETATM   25  H14 UNL     1      16.139   0.254  50.116  1.00  0.00     0.166 HD
HETATM   26  H18 UNL     1      22.310   4.258  50.578  1.00  0.00     0.071 HD
ENDROOT
TORSDOF 0
ENDMDL
MODEL 8
REMARK VINA RESULT:      -7.5      4.766      8.121
REMARK  0 active torsions:
REMARK  status: ('A' for Active; 'I' for Inactive)
ROOT
HETATM    1  C1  UNL     1      20.437   3.394  51.304  1.00  0.00     0.026 C 
HETATM    2  C2  UNL     1      21.891   3.337  51.316  1.00  0.00     0.007 C 
HETATM    3  C3  UNL     1      22.645   4.416  51.867  1.00  0.00    -0.011 C 
HETATM    4  C4  UNL     1      23.876   4.558  51.411  1.00  0.00     0.014 C 
HETATM    5  C5  UNL     1      24.535   3.319  50.992  1.00  0.00     0.028 C 
HETATM    6  C6  UNL     1      24.015   2.120  51.035  1.00  0.00    -0.008 C 
HETATM    7  C7  UNL     1      22.587   2.316  50.578  1.00  0.00     0.047 C 
HETATM    8  C8  UNL     1      25.904   3.539  50.449  1.00  0.00     0.255 C 
HETATM    9  O1  UNL     1      27.098   3.146  50.335  1.00  0.00    -0.267 OA
HETATM   10  N1  UNL     1      26.466   4.535  49.663  1.00  0.00    -0.323 N 
HETATM   11  C9  UNL     1      27.044   5.551  48.861  1.00  0.00     0.037 A 
HETATM   12  C10 UNL     1      28.361   5.478  48.519  1.00  0.00     0.029 A 
HETATM   13  C11 UNL     1      28.870   6.465  47.707  1.00  0.00     0.004 A 
HETATM   14  C12 UNL     1      28.134   7.547  47.198  1.00  0.00     0.029 A 
HETATM   15  C13 UNL     1      26.805   7.621  47.543  1.00  0.00     0.035 A 
HETATM   16  C14 UNL     1      26.347   6.631  48.344  1.00  0.00     0.059 A 
HETATM   17  N2  UNL     1      25.838   8.613  47.134  1.00  0.00    -0.351 N 
HETATM   18  C15 UNL     1      24.461   8.475  47.528  1.00  0.00     0.201 C 
HETATM   19  N3  UNL     1      24.106   7.347  47.085  1.00  0.00    -0.276 NA
HETATM   20  C16 UNL     1      22.893   6.698  47.173  1.00  0.00     0.151 C 
HETATM   21  C17 UNL     1      21.710   6.230  47.010  1.00  0.00     0.101 C 
HETATM   22  C18 UNL     1      21.748   5.511  48.129  1.00  0.00    -0.146 C 
HETATM   23  P1  UNL     1      21.797   4.732  49.298  1.00  0.00    -0.047 P 
HETATM   24  H9  UNL     1      25.509   5.002  49.684  1.00  0.00     0.169 HD
HETATM   25  H14 UNL     1      26.320   9.358  46.556  1.00  0.00     0.166 HD
HETATM   26  H18 UNL     1      21.809   4.462  49.719  1.00  0.00     0.071 HD
ENDROOT
TORSDOF 0
ENDMDL
MODEL 9
REMARK VINA RESULT:      -7.5     10.334     13.058
REMARK  0 active torsions:
REMARK  status: ('A' for Active; 'I' for Inactive)
ROOT
HETATM    1  C1  UNL     1      28.665  11.583  47.919  1.00  0.00     0.026 C 
HETATM    2  C2  UNL     1      28.721  10.141  48.096  1.00  0.00     0.007 C 
HETATM    3  C3  UNL     1      29.336   9.585  49.258  1.00  0.00    -0.011 C 
HETATM    4  C4  UNL     1      29.808   8.359  49.136  1.00  0.00     0.014 C 
HETATM    5  C5  UNL     1      29.093   7.505  48.185  1.00  0.00     0.028 C 
HETATM    6  C6  UNL     1      28.055   7.853  47.470  1.00  0.00    -0.008 C 
HETATM    7  C7  UNL     1      28.372   9.259  47.014  1.00  0.00     0.047 C 
HETATM    8  C8  UNL     1      29.689   6.145  48.056  1.00  0.00     0.255 C 
HETATM    9  O1  UNL     1      29.526   4.903  47.904  1.00  0.00    -0.267 OA
HETATM   10  N1  UNL     1      30.994   5.676  48.058  1.00  0.00    -0.323 N 
HETATM   11  C9  UNL     1      32.328   5.193  48.060  1.00  0.00     0.037 A 
HETATM   12  C10 UNL     1      32.565   3.859  47.921  1.00  0.00     0.029 A 
HETATM   13  C11 UNL     1      33.875   3.439  47.889  1.00  0.00     0.004 A 
HETATM   14  C12 UNL     1      34.992   4.282  47.987  1.00  0.00     0.029 A 
HETATM   15  C13 UNL     1      34.754   5.629  48.127  1.00  0.00     0.035 A 
HETATM   16  C14 UNL     1      33.451   5.998  48.155  1.00  0.00     0.059 A 
HETATM   17  N2  UNL     1      35.723   6.695  48.223  1.00  0.00    -0.351 N 
HETATM   18  C15 UNL     1      35.279   8.063  48.276  1.00  0.00     0.201 C 
HETATM   19  N3  UNL     1      34.592   8.225  47.229  1.00  0.00    -0.276 NA
HETATM   20  C16 UNL     1      33.923   9.338  46.767  1.00  0.00     0.151 C 
HETATM   21  C17 UNL     1      33.548  10.429  46.208  1.00  0.00     0.101 C 
HETATM   22  C18 UNL     1      32.320  10.368  46.716  1.00  0.00    -0.146 C 
HETATM   23  P1  UNL     1      31.015  10.290  47.233  1.00  0.00    -0.047 P 
HETATM   24  H9  UNL     1      31.291   6.689  48.208  1.00  0.00     0.169 HD
HETATM   25  H14 UNL     1      36.698   6.284  48.241  1.00  0.00     0.166 HD
HETATM   26  H18 UNL     1      30.553  10.270  47.424  1.00  0.00     0.071 HD
ENDROOT
TORSDOF 0
ENDMDL
