MODEL 1
REMARK VINA RESULT:      -8.5      0.000      0.000
REMARK  0 active torsions:
REMARK  status: ('A' for Active; 'I' for Inactive)
ROOT
HETATM    1  O1  UNL     1      20.423  -0.473  53.237  1.00  0.00    -0.266 OA
HETATM    2  C1  UNL     1      21.555  -0.111  53.167  1.00  0.00     0.273 C 
HETATM    3  N1  UNL     1      22.916  -0.126  53.883  1.00  0.00    -0.321 N 
HETATM    4  C2  UNL     1      24.236   0.324  53.289  1.00  0.00     0.042 A 
HETATM    5  C3  UNL     1      24.954  -0.723  53.832  1.00  0.00     0.033 A 
HETATM    6  C4  UNL     1      26.279  -0.753  53.477  1.00  0.00     0.044 A 
HETATM    7  C5  UNL     1      26.832   0.186  52.649  1.00  0.00     0.117 A 
HETATM    8  F1  UNL     1      28.139   0.157  52.296  1.00  0.00    -0.206 F 
HETATM    9  C6  UNL     1      26.101   1.207  52.131  1.00  0.00     0.052 A 
HETATM   10  C7  UNL     1      24.772   1.366  52.399  1.00  0.00    -0.018 A 
HETATM   11  C8  UNL     1      24.165   2.645  51.816  1.00  0.00     0.074 C 
HETATM   12  C9  UNL     1      22.816   2.647  52.491  1.00  0.00     0.144 C 
HETATM   13  N2  UNL     1      22.359   1.437  51.547  1.00  0.00    -0.340 N 
HETATM   14  C10 UNL     1      21.416   0.561  51.857  1.00  0.00     0.104 A 
HETATM   15  C11 UNL     1      20.839   0.345  50.620  1.00  0.00     0.049 A 
HETATM   16  C12 UNL     1      21.568   1.137  49.702  1.00  0.00    -0.006 A 
HETATM   17  C13 UNL     1      21.660   1.483  48.380  1.00  0.00     0.014 A 
HETATM   18  C14 UNL     1      22.717   2.394  48.093  1.00  0.00     0.002 A 
HETATM   19  C15 UNL     1      23.647   2.950  49.011  1.00  0.00     0.010 A 
HETATM   20  C16 UNL     1      23.683   2.688  50.414  1.00  0.00    -0.020 A 
HETATM   21  C17 UNL     1      22.609   1.854  50.332  1.00  0.00     0.052 A 
HETATM   22  H1  UNL     1      22.752  -0.530  54.785  1.00  0.00     0.169 HD
ENDROOT
TORSDOF 0
ENDMDL
MODEL 2
REMARK VINA RESULT:      -8.3      2.989      5.712
REMARK  0 active torsions:
REMARK  status: ('A' for Active; 'I' for Inactive)
ROOT
HETATM    1  O1  UNL     1      27.155   3.638  49.979  1.00  0.00    -0.266 OA
HETATM    2  C1  UNL     1      26.005   3.348  50.078  1.00  0.00     0.273 C 
HETATM    3  N1  UNL     1      24.599   3.605  49.508  1.00  0.00    -0.321 N 
HETATM    4  C2  UNL     1      23.352   2.806  49.829  1.00  0.00     0.042 A 
HETATM    5  C3  UNL     1      22.896   2.800  48.526  1.00  0.00     0.033 A 
HETATM    6  C4  UNL     1      21.744   2.084  48.325  1.00  0.00     0.044 A 
HETATM    7  C5  UNL     1      21.107   1.430  49.345  1.00  0.00     0.117 A 
HETATM    8  F1  UNL     1      19.970   0.721  49.149  1.00  0.00    -0.206 F 
HETATM    9  C6  UNL     1      21.577   1.455  50.619  1.00  0.00     0.052 A 
HETATM   10  C7  UNL     1      22.711   2.129  50.968  1.00  0.00    -0.018 A 
HETATM   11  C8  UNL     1      23.000   2.132  52.472  1.00  0.00     0.074 C 
HETATM   12  C9  UNL     1      24.120   3.139  52.540  1.00  0.00     0.144 C 
HETATM   13  N2  UNL     1      25.105   2.069  51.873  1.00  0.00    -0.340 N 
HETATM   14  C10 UNL     1      26.190   2.378  51.180  1.00  0.00     0.104 A 
HETATM   15  C11 UNL     1      27.041   1.352  51.547  1.00  0.00     0.049 A 
HETATM   16  C12 UNL     1      26.303   0.525  52.425  1.00  0.00    -0.006 A 
HETATM   17  C13 UNL     1      26.375  -0.614  53.182  1.00  0.00     0.014 A 
HETATM   18  C14 UNL     1      25.170  -0.927  53.873  1.00  0.00     0.002 A 
HETATM   19  C15 UNL     1      23.950  -0.200  53.848  1.00  0.00     0.010 A 
HETATM   20  C16 UNL     1      23.717   1.000  53.111  1.00  0.00    -0.020 A 
HETATM   21  C17 UNL     1      24.988   1.001  52.623  1.00  0.00     0.052 A 
HETATM   22  H1  UNL     1      24.695   4.364  48.861  1.00  0.00     0.169 HD
ENDROOT
TORSDOF 0
ENDMDL
MODEL 3
REMARK VINA RESULT:      -7.9      3.743      5.942
REMARK  0 active torsions:
REMARK  status: ('A' for Active; 'I' for Inactive)
ROOT
HETATM    1  O1  UNL     1      22.080   6.284  51.190  1.00  0.00    -0.266 OA
HETATM    2  C1  UNL     1      23.063   5.992  50.586  1.00  0.00     0.273 C 
HETATM    3  N1  UNL     1      23.960   6.380  49.398  1.00  0.00    -0.321 N 
HETATM    4  C2  UNL     1      25.327   5.801  49.093  1.00  0.00     0.042 A 
HETATM    5  C3  UNL     1      25.876   7.018  48.742  1.00  0.00     0.033 A 
HETATM    6  C4  UNL     1      27.212   6.976  48.431  1.00  0.00     0.044 A 
HETATM    7  C5  UNL     1      27.931   5.813  48.471  1.00  0.00     0.117 A 
HETATM    8  F1  UNL     1      29.250   5.769  48.167  1.00  0.00    -0.206 F 
HETATM    9  C6  UNL     1      27.365   4.629  48.819  1.00  0.00     0.052 A 
HETATM   10  C7  UNL     1      26.045   4.518  49.151  1.00  0.00    -0.018 A 
HETATM   11  C8  UNL     1      25.579   3.079  49.392  1.00  0.00     0.074 C 
HETATM   12  C9  UNL     1      24.086   3.278  49.469  1.00  0.00     0.144 C 
HETATM   13  N2  UNL     1      24.266   3.962  50.905  1.00  0.00    -0.340 N 
HETATM   14  C10 UNL     1      23.418   4.831  51.433  1.00  0.00     0.104 A 
HETATM   15  C11 UNL     1      23.479   4.484  52.769  1.00  0.00     0.049 A 
HETATM   16  C12 UNL     1      24.415   3.427  52.858  1.00  0.00    -0.006 A 
HETATM   17  C13 UNL     1      25.027   2.572  53.736  1.00  0.00     0.014 A 
HETATM   18  C14 UNL     1      25.961   1.687  53.126  1.00  0.00     0.002 A 
HETATM   19  C15 UNL     1      26.305   1.614  51.750  1.00  0.00     0.010 A 
HETATM   20  C16 UNL     1      25.759   2.433  50.715  1.00  0.00    -0.020 A 
HETATM   21  C17 UNL     1      24.961   3.095  51.598  1.00  0.00     0.052 A 
HETATM   22  H1  UNL     1      23.477   7.110  48.911  1.00  0.00     0.169 HD
ENDROOT
TORSDOF 0
ENDMDL
MODEL 4
REMARK VINA RESULT:      -7.8      3.013      4.219
REMARK  0 active torsions:
REMARK  status: ('A' for Active; 'I' for Inactive)
ROOT
HETATM    1  O1  UNL     1      20.875   5.588  50.838  1.00  0.00    -0.266 OA
HETATM    2  C1  UNL     1      21.250   4.587  51.362  1.00  0.00     0.273 C 
HETATM    3  N1  UNL     1      20.819   3.405  52.247  1.00  0.00    -0.321 N 
HETATM    4  C2  UNL     1      21.637   2.159  52.523  1.00  0.00     0.042 A 
HETATM    5  C3  UNL     1      20.558   1.304  52.418  1.00  0.00     0.033 A 
HETATM    6  C4  UNL     1      20.868  -0.027  52.542  1.00  0.00     0.044 A 
HETATM    7  C5  UNL     1      22.149  -0.459  52.754  1.00  0.00     0.117 A 
HETATM    8  F1  UNL     1      22.457  -1.771  52.876  1.00  0.00    -0.206 F 
HETATM    9  C6  UNL     1      23.191   0.406  52.855  1.00  0.00     0.052 A 
HETATM   10  C7  UNL     1      23.034   1.758  52.754  1.00  0.00    -0.018 A 
HETATM   11  C8  UNL     1      24.313   2.558  53.018  1.00  0.00     0.074 C 
HETATM   12  C9  UNL     1      23.757   3.958  53.088  1.00  0.00     0.144 C 
HETATM   13  N2  UNL     1      23.536   3.934  51.503  1.00  0.00    -0.340 N 
HETATM   14  C10 UNL     1      22.639   4.667  50.860  1.00  0.00     0.104 A 
HETATM   15  C11 UNL     1      23.321   4.956  49.693  1.00  0.00     0.049 A 
HETATM   16  C12 UNL     1      24.572   4.304  49.797  1.00  0.00    -0.006 A 
HETATM   17  C13 UNL     1      25.753   4.081  49.139  1.00  0.00     0.014 A 
HETATM   18  C14 UNL     1      26.665   3.252  49.854  1.00  0.00     0.002 A 
HETATM   19  C15 UNL     1      26.470   2.657  51.129  1.00  0.00     0.010 A 
HETATM   20  C16 UNL     1      25.300   2.794  51.936  1.00  0.00    -0.020 A 
HETATM   21  C17 UNL     1      24.701   3.596  51.012  1.00  0.00     0.052 A 
HETATM   22  H1  UNL     1      19.889   3.612  52.555  1.00  0.00     0.169 HD
ENDROOT
TORSDOF 0
ENDMDL
MODEL 5
REMARK VINA RESULT:      -7.8      1.145      1.329
REMARK  0 active torsions:
REMARK  status: ('A' for Active; 'I' for Inactive)
ROOT
HETATM    1  O1  UNL     1      19.115  -0.185  51.963  1.00  0.00    -0.266 OA
HETATM    2  C1  UNL     1      20.213   0.132  52.297  1.00  0.00     0.273 C 
HETATM    3  N1  UNL     1      21.251   0.032  53.428  1.00  0.00    -0.321 N 
HETATM    4  C2  UNL     1      22.705   0.450  53.337  1.00  0.00     0.042 A 
HETATM    5  C3  UNL     1      23.170  -0.647  54.035  1.00  0.00     0.033 A 
HETATM    6  C4  UNL     1      24.535  -0.718  54.146  1.00  0.00     0.044 A 
HETATM    7  C5  UNL     1      25.360   0.229  53.603  1.00  0.00     0.117 A 
HETATM    8  F1  UNL     1      26.707   0.159  53.710  1.00  0.00    -0.206 F 
HETATM    9  C6  UNL     1      24.874   1.299  52.922  1.00  0.00     0.052 A 
HETATM   10  C7  UNL     1      23.538   1.503  52.733  1.00  0.00    -0.018 A 
HETATM   11  C8  UNL     1      23.197   2.828  52.047  1.00  0.00     0.074 C 
HETATM   12  C9  UNL     1      21.700   2.859  52.227  1.00  0.00     0.144 C 
HETATM   13  N2  UNL     1      21.558   1.708  51.124  1.00  0.00    -0.340 N 
HETATM   14  C10 UNL     1      20.543   0.860  51.052  1.00  0.00     0.104 A 
HETATM   15  C11 UNL     1      20.414   0.718  49.684  1.00  0.00     0.049 A 
HETATM   16  C12 UNL     1      21.430   1.514  49.107  1.00  0.00    -0.006 A 
HETATM   17  C13 UNL     1      21.974   1.908  47.913  1.00  0.00     0.014 A 
HETATM   18  C14 UNL     1      23.088   2.784  48.045  1.00  0.00     0.002 A 
HETATM   19  C15 UNL     1      23.667   3.264  49.250  1.00  0.00     0.010 A 
HETATM   20  C16 UNL     1      23.219   2.946  50.568  1.00  0.00    -0.020 A 
HETATM   21  C17 UNL     1      22.215   2.162  50.087  1.00  0.00     0.052 A 
HETATM   22  H1  UNL     1      20.781  -0.400  54.200  1.00  0.00     0.169 HD
ENDROOT
TORSDOF 0
ENDMDL
MODEL 6
REMARK VINA RESULT:      -7.6      2.964      4.658
REMARK  0 active torsions:
REMARK  status: ('A' for Active; 'I' for Inactive)
ROOT
HETATM    1  O1  UNL     1      25.971   0.558  53.708  1.00  0.00    -0.266 OA
HETATM    2  C1  UNL     1      24.837   0.345  53.415  1.00  0.00     0.273 C 
HETATM    3  N1  UNL     1      23.748  -0.741  53.348  1.00  0.00    -0.321 N 
HETATM    4  C2  UNL     1      22.276  -0.505  53.079  1.00  0.00     0.042 A 
HETATM    5  C3  UNL     1      21.852  -1.412  54.030  1.00  0.00     0.033 A 
HETATM    6  C4  UNL     1      20.491  -1.484  54.185  1.00  0.00     0.044 A 
HETATM    7  C5  UNL     1      19.633  -0.713  53.450  1.00  0.00     0.117 A 
HETATM    8  F1  UNL     1      18.289  -0.782  53.603  1.00  0.00    -0.206 F 
HETATM    9  C6  UNL     1      20.078   0.170  52.520  1.00  0.00     0.052 A 
HETATM   10  C7  UNL     1      21.405   0.349  52.255  1.00  0.00    -0.018 A 
HETATM   11  C8  UNL     1      21.688   1.300  51.089  1.00  0.00     0.074 C 
HETATM   12  C9  UNL     1      23.167   1.076  50.898  1.00  0.00     0.144 C 
HETATM   13  N2  UNL     1      23.450   1.888  52.248  1.00  0.00    -0.340 N 
HETATM   14  C10 UNL     1      24.524   1.732  53.006  1.00  0.00     0.104 A 
HETATM   15  C11 UNL     1      24.738   3.028  53.435  1.00  0.00     0.049 A 
HETATM   16  C12 UNL     1      23.701   3.805  52.868  1.00  0.00    -0.006 A 
HETATM   17  C13 UNL     1      23.197   5.077  52.791  1.00  0.00     0.014 A 
HETATM   18  C14 UNL     1      22.017   5.184  52.000  1.00  0.00     0.002 A 
HETATM   19  C15 UNL     1      21.342   4.139  51.315  1.00  0.00     0.010 A 
HETATM   20  C16 UNL     1      21.739   2.767  51.300  1.00  0.00    -0.020 A 
HETATM   21  C17 UNL     1      22.820   3.025  52.087  1.00  0.00     0.052 A 
HETATM   22  H1  UNL     1      24.205  -1.606  53.561  1.00  0.00     0.169 HD
ENDROOT
TORSDOF 0
ENDMDL
MODEL 7
REMARK VINA RESULT:      -7.5      2.699      4.921
REMARK  0 active torsions:
REMARK  status: ('A' for Active; 'I' for Inactive)
ROOT
HETATM    1  O1  UNL     1      17.842   1.018  50.856  1.00  0.00    -0.266 OA
HETATM    2  C1  UNL     1      18.895   1.567  50.941  1.00  0.00     0.273 C 
HETATM    3  N1  UNL     1      19.686   2.819  50.525  1.00  0.00    -0.321 N 
HETATM    4  C2  UNL     1      21.040   3.233  51.068  1.00  0.00     0.042 A 
HETATM    5  C3  UNL     1      20.711   4.572  51.148  1.00  0.00     0.033 A 
HETATM    6  C4  UNL     1      21.688   5.370  51.686  1.00  0.00     0.044 A 
HETATM    7  C5  UNL     1      22.890   4.867  52.105  1.00  0.00     0.117 A 
HETATM    8  F1  UNL     1      23.855   5.653  52.638  1.00  0.00    -0.206 F 
HETATM    9  C6  UNL     1      23.186   3.545  52.013  1.00  0.00     0.052 A 
HETATM   10  C7  UNL     1      22.312   2.632  51.497  1.00  0.00    -0.018 A 
HETATM   11  C8  UNL     1      22.886   1.218  51.370  1.00  0.00     0.074 C 
HETATM   12  C9  UNL     1      21.806   0.550  50.557  1.00  0.00     0.144 C 
HETATM   13  N2  UNL     1      20.854   0.558  51.843  1.00  0.00    -0.340 N 
HETATM   14  C10 UNL     1      19.530   0.540  51.796  1.00  0.00     0.104 A 
HETATM   15  C11 UNL     1      19.236  -0.240  52.898  1.00  0.00     0.049 A 
HETATM   16  C12 UNL     1      20.478  -0.571  53.488  1.00  0.00    -0.006 A 
HETATM   17  C13 UNL     1      21.054  -1.250  54.530  1.00  0.00     0.014 A 
HETATM   18  C14 UNL     1      22.475  -1.164  54.561  1.00  0.00     0.002 A 
HETATM   19  C15 UNL     1      23.315  -0.467  53.652  1.00  0.00     0.010 A 
HETATM   20  C16 UNL     1      22.870   0.284  52.522  1.00  0.00    -0.020 A 
HETATM   21  C17 UNL     1      21.566  -0.009  52.784  1.00  0.00     0.052 A 
HETATM   22  H1  UNL     1      19.108   3.309  49.871  1.00  0.00     0.169 HD
ENDROOT
TORSDOF 0
ENDMDL
MODEL 8
REMARK VINA RESULT:      -7.4      3.037      4.508
REMARK  0 active torsions:
REMARK  status: ('A' for Active; 'I' for Inactive)
ROOT
HETATM    1  O1  UNL     1      25.611   2.430  53.378  1.00  0.00    -0.266 OA
HETATM    2  C1  UNL     1      24.606   1.833  53.151  1.00  0.00     0.273 C 
HETATM    3  N1  UNL     1      23.882   0.489  53.342  1.00  0.00    -0.321 N 
HETATM    4  C2  UNL     1      22.422   0.217  53.039  1.00  0.00     0.042 A 
HETATM    5  C3  UNL     1      22.223  -0.542  54.175  1.00  0.00     0.033 A 
HETATM    6  C4  UNL     1      20.934  -0.976  54.355  1.00  0.00     0.044 A 
HETATM    7  C5  UNL     1      19.934  -0.672  53.471  1.00  0.00     0.117 A 
HETATM    8  F1  UNL     1      18.661  -1.097  53.647  1.00  0.00    -0.206 F 
HETATM    9  C6  UNL     1      20.159   0.077  52.361  1.00  0.00     0.052 A 
HETATM   10  C7  UNL     1      21.392   0.575  52.050  1.00  0.00    -0.018 A 
HETATM   11  C8  UNL     1      21.457   1.287  50.697  1.00  0.00     0.074 C 
HETATM   12  C9  UNL     1      22.947   1.471  50.549  1.00  0.00     0.144 C 
HETATM   13  N2  UNL     1      22.904   2.606  51.676  1.00  0.00    -0.340 N 
HETATM   14  C10 UNL     1      23.931   2.942  52.441  1.00  0.00     0.104 A 
HETATM   15  C11 UNL     1      23.737   4.305  52.562  1.00  0.00     0.049 A 
HETATM   16  C12 UNL     1      22.555   4.599  51.843  1.00  0.00    -0.006 A 
HETATM   17  C13 UNL     1      21.712   5.617  51.484  1.00  0.00     0.014 A 
HETATM   18  C14 UNL     1      20.600   5.198  50.699  1.00  0.00     0.002 A 
HETATM   19  C15 UNL     1      20.295   3.876  50.276  1.00  0.00     0.010 A 
HETATM   20  C16 UNL     1      21.070   2.714  50.569  1.00  0.00    -0.020 A 
HETATM   21  C17 UNL     1      21.984   3.443  51.267  1.00  0.00     0.052 A 
HETATM   22  H1  UNL     1      24.555  -0.135  53.742  1.00  0.00     0.169 HD
ENDROOT
TORSDOF 0
ENDMDL
MODEL 9
REMARK VINA RESULT:      -7.4      7.529      9.121
REMARK  0 active torsions:
REMARK  status: ('A' for Active; 'I' for Inactive)
ROOT
HETATM    1  O1  UNL     1      26.402  10.792  49.100  1.00  0.00    -0.266 OA
HETATM    2  C1  UNL     1      27.309  10.037  48.939  1.00  0.00     0.273 C 
HETATM    3  N1  UNL     1      28.816   9.942  48.645  1.00  0.00    -0.321 N 
HETATM    4  C2  UNL     1      29.659   8.686  48.730  1.00  0.00     0.042 A 
HETATM    5  C3  UNL     1      30.732   9.323  49.322  1.00  0.00     0.033 A 
HETATM    6  C4  UNL     1      31.774   8.497  49.659  1.00  0.00     0.044 A 
HETATM    7  C5  UNL     1      31.740   7.150  49.422  1.00  0.00     0.117 A 
HETATM    8  F1  UNL     1      32.766   6.332  49.756  1.00  0.00    -0.206 F 
HETATM    9  C6  UNL     1      30.672   6.550  48.837  1.00  0.00     0.052 A 
HETATM   10  C7  UNL     1      29.564   7.245  48.446  1.00  0.00    -0.018 A 
HETATM   11  C8  UNL     1      28.527   6.402  47.698  1.00  0.00     0.074 C 
HETATM   12  C9  UNL     1      27.599   7.480  47.197  1.00  0.00     0.144 C 
HETATM   13  N2  UNL     1      27.054   7.683  48.688  1.00  0.00    -0.340 N 
HETATM   14  C10 UNL     1      26.516   8.805  49.143  1.00  0.00     0.104 A 
HETATM   15  C11 UNL     1      25.543   8.309  49.990  1.00  0.00     0.049 A 
HETATM   16  C12 UNL     1      25.659   6.900  49.938  1.00  0.00    -0.006 A 
HETATM   17  C13 UNL     1      25.134   5.735  50.432  1.00  0.00     0.014 A 
HETATM   18  C14 UNL     1      25.774   4.560  49.946  1.00  0.00     0.002 A 
HETATM   19  C15 UNL     1      26.863   4.486  49.037  1.00  0.00     0.010 A 
HETATM   20  C16 UNL     1      27.519   5.605  48.438  1.00  0.00    -0.020 A 
HETATM   21  C17 UNL     1      26.697   6.485  49.075  1.00  0.00     0.052 A 
HETATM   22  H1  UNL     1      29.118  10.874  48.436  1.00  0.00     0.169 HD
ENDROOT
TORSDOF 0
ENDMDL
