MODEL 1
REMARK VINA RESULT:      -8.0      0.000      0.000
REMARK  3 active torsions:
REMARK  status: ('A' for Active; 'I' for Inactive)
REMARK    1  A    between atoms: N1_2  and  C1_3 
REMARK    2  A    between atoms: C6_10  and  N4_11 
REMARK    3  A    between atoms: N4_11  and  C7_12 
ROOT
HETATM    1  C1  UNL     1      22.218  -0.414  53.075  1.00  0.00     0.060 A 
HETATM    2  C2  UNL     1      21.355  -0.178  52.026  1.00  0.00     0.034 A 
HETATM    3  C3  UNL     1      21.691   0.761  51.047  1.00  0.00     0.035 A 
HETATM    4  C4  UNL     1      22.921   1.397  51.229  1.00  0.00     0.072 A 
HETATM    5  N2  UNL     1      23.263   2.307  50.306  1.00  0.00    -0.241 NA
HETATM    6  C5  UNL     1      24.428   2.996  50.380  1.00  0.00     0.236 A 
HETATM    7  N3  UNL     1      25.296   2.789  51.393  1.00  0.00    -0.224 NA
HETATM    8  C6  UNL     1      25.006   1.875  52.364  1.00  0.00     0.142 A 
HETATM    9  C13 UNL     1      23.802   1.187  52.258  1.00  0.00     0.041 A 
HETATM   10  C14 UNL     1      23.431   0.238  53.222  1.00  0.00     0.049 A 
ENDROOT
BRANCH   8  11
HETATM   11  N4  UNL     1      25.802   1.555  53.492  1.00  0.00    -0.340 N 
HETATM   12  H5  UNL     1      25.234   1.859  54.314  1.00  0.00     0.167 HD
BRANCH  11  13
HETATM   13  C7  UNL     1      27.097   0.953  53.575  1.00  0.00     0.035 A 
HETATM   14  C8  UNL     1      28.212   1.676  53.906  1.00  0.00     0.032 A 
HETATM   15  C9  UNL     1      29.437   1.059  53.947  1.00  0.00     0.046 A 
HETATM   16  C10 UNL     1      29.467  -0.291  53.642  1.00  0.00     0.138 A 
HETATM   17  F2  UNL     1      30.647  -0.946  53.666  1.00  0.00    -0.204 F 
HETATM   18  C11 UNL     1      28.334  -1.028  53.305  1.00  0.00     0.074 A 
HETATM   19 CL1  UNL     1      28.417  -2.751  52.916  1.00  0.00    -0.081 Cl
HETATM   20  C12 UNL     1      27.111  -0.400  53.268  1.00  0.00     0.056 A 
ENDBRANCH  11  13
ENDBRANCH   8  11
BRANCH   1  21
HETATM   21  N1  UNL     1      21.836  -1.380  54.067  1.00  0.00    -0.225 N 
HETATM   22  F1  UNL     1      20.700  -1.869  54.589  1.00  0.00    -0.101 F 
HETATM   23  H1  UNL     1      22.622  -1.883  54.554  1.00  0.00     0.199 HD
ENDBRANCH   1  21
TORSDOF 3
ENDMDL
MODEL 2
REMARK VINA RESULT:      -8.0      2.453      3.712
REMARK  3 active torsions:
REMARK  status: ('A' for Active; 'I' for Inactive)
REMARK    1  A    between atoms: N1_2  and  C1_3 
REMARK    2  A    between atoms: C6_10  and  N4_11 
REMARK    3  A    between atoms: N4_11  and  C7_12 
ROOT
HETATM    1  C1  UNL     1      20.981   0.518  51.280  1.00  0.00     0.060 A 
HETATM    2  C2  UNL     1      19.859   0.156  51.995  1.00  0.00     0.034 A 
HETATM    3  C3  UNL     1      19.998  -0.430  53.258  1.00  0.00     0.035 A 
HETATM    4  C4  UNL     1      21.313  -0.599  53.694  1.00  0.00     0.072 A 
HETATM    5  N2  UNL     1      21.473  -1.165  54.899  1.00  0.00    -0.241 NA
HETATM    6  C5  UNL     1      22.702  -1.388  55.425  1.00  0.00     0.236 A 
HETATM    7  N3  UNL     1      23.821  -1.046  54.752  1.00  0.00    -0.224 NA
HETATM    8  C6  UNL     1      23.725  -0.466  53.521  1.00  0.00     0.142 A 
HETATM    9  C13 UNL     1      22.450  -0.252  53.010  1.00  0.00     0.041 A 
HETATM   10  C14 UNL     1      22.271   0.333  51.748  1.00  0.00     0.049 A 
ENDROOT
BRANCH   8  11
HETATM   11  N4  UNL     1      24.799  -0.064  52.688  1.00  0.00    -0.340 N 
HETATM   12  H5  UNL     1      24.342   0.318  51.831  1.00  0.00     0.167 HD
BRANCH  11  13
HETATM   13  C7  UNL     1      26.212  -0.130  52.897  1.00  0.00     0.035 A 
HETATM   14  C8  UNL     1      26.893  -1.319  52.872  1.00  0.00     0.032 A 
HETATM   15  C9  UNL     1      28.245  -1.335  53.105  1.00  0.00     0.046 A 
HETATM   16  C10 UNL     1      28.850  -0.116  53.357  1.00  0.00     0.138 A 
HETATM   17  F2  UNL     1      30.179  -0.077  53.594  1.00  0.00    -0.204 F 
HETATM   18  C11 UNL     1      28.160   1.093  53.383  1.00  0.00     0.074 A 
HETATM   19 CL1  UNL     1      28.971   2.629  53.717  1.00  0.00    -0.081 Cl
HETATM   20  C12 UNL     1      26.805   1.098  53.149  1.00  0.00     0.056 A 
ENDBRANCH  11  13
ENDBRANCH   8  11
BRANCH   1  21
HETATM   21  N1  UNL     1      20.800   1.109  49.984  1.00  0.00    -0.225 N 
HETATM   22  F1  UNL     1      21.281   0.943  48.742  1.00  0.00    -0.101 F 
HETATM   23  H1  UNL     1      20.104   1.897  49.926  1.00  0.00     0.199 HD
ENDBRANCH   1  21
TORSDOF 3
ENDMDL
MODEL 3
REMARK VINA RESULT:      -7.9      3.794      5.782
REMARK  3 active torsions:
REMARK  status: ('A' for Active; 'I' for Inactive)
REMARK    1  A    between atoms: N1_2  and  C1_3 
REMARK    2  A    between atoms: C6_10  and  N4_11 
REMARK    3  A    between atoms: N4_11  and  C7_12 
ROOT
HETATM    1  C1  UNL     1      24.465  -0.309  53.471  1.00  0.00     0.060 A 
HETATM    2  C2  UNL     1      24.989  -0.604  54.712  1.00  0.00     0.034 A 
HETATM    3  C3  UNL     1      26.208  -0.042  55.103  1.00  0.00     0.035 A 
HETATM    4  C4  UNL     1      26.805   0.799  54.162  1.00  0.00     0.072 A 
HETATM    5  N2  UNL     1      27.979   1.344  54.511  1.00  0.00    -0.241 NA
HETATM    6  C5  UNL     1      28.658   2.171  53.678  1.00  0.00     0.236 A 
HETATM    7  N3  UNL     1      28.174   2.480  52.456  1.00  0.00    -0.224 NA
HETATM    8  C6  UNL     1      26.983   1.957  52.042  1.00  0.00     0.142 A 
HETATM    9  C13 UNL     1      26.314   1.113  52.921  1.00  0.00     0.041 A 
HETATM   10  C14 UNL     1      25.088   0.531  52.564  1.00  0.00     0.049 A 
ENDROOT
BRANCH   8  11
HETATM   11  N4  UNL     1      26.352   2.173  50.792  1.00  0.00    -0.340 N 
HETATM   12  H5  UNL     1      26.223   1.218  50.390  1.00  0.00     0.167 HD
BRANCH  11  13
HETATM   13  C7  UNL     1      25.947   3.387  50.153  1.00  0.00     0.035 A 
HETATM   14  C8  UNL     1      24.639   3.796  50.138  1.00  0.00     0.032 A 
HETATM   15  C9  UNL     1      24.295   4.955  49.490  1.00  0.00     0.046 A 
HETATM   16  C10 UNL     1      25.319   5.655  48.877  1.00  0.00     0.138 A 
HETATM   17  F2  UNL     1      25.034   6.802  48.223  1.00  0.00    -0.204 F 
HETATM   18  C11 UNL     1      26.649   5.241  48.891  1.00  0.00     0.074 A 
HETATM   19 CL1  UNL     1      27.927   6.163  48.087  1.00  0.00    -0.081 Cl
HETATM   20  C12 UNL     1      26.983   4.078  49.543  1.00  0.00     0.056 A 
ENDBRANCH  11  13
ENDBRANCH   8  11
BRANCH   1  21
HETATM   21  N1  UNL     1      23.214  -0.910  53.100  1.00  0.00    -0.225 N 
HETATM   22  F1  UNL     1      22.171  -1.488  53.716  1.00  0.00    -0.101 F 
HETATM   23  H1  UNL     1      22.995  -0.931  52.071  1.00  0.00     0.199 HD
ENDBRANCH   1  21
TORSDOF 3
ENDMDL
MODEL 4
REMARK VINA RESULT:      -7.8      2.140      3.277
REMARK  3 active torsions:
REMARK  status: ('A' for Active; 'I' for Inactive)
REMARK    1  A    between atoms: N1_2  and  C1_3 
REMARK    2  A    between atoms: C6_10  and  N4_11 
REMARK    3  A    between atoms: N4_11  and  C7_12 
ROOT
HETATM    1  C1  UNL     1      22.870   2.043  50.279  1.00  0.00     0.060 A 
HETATM    2  C2  UNL     1      21.639   1.427  50.187  1.00  0.00     0.034 A 
HETATM    3  C3  UNL     1      21.264   0.477  51.141  1.00  0.00     0.035 A 
HETATM    4  C4  UNL     1      22.208   0.230  52.140  1.00  0.00     0.072 A 
HETATM    5  N2  UNL     1      21.874  -0.682  53.063  1.00  0.00    -0.241 NA
HETATM    6  C5  UNL     1      22.711  -1.013  54.076  1.00  0.00     0.236 A 
HETATM    7  N3  UNL     1      23.923  -0.430  54.196  1.00  0.00    -0.224 NA
HETATM    8  C6  UNL     1      24.322   0.507  53.289  1.00  0.00     0.142 A 
HETATM    9  C13 UNL     1      23.439   0.822  52.262  1.00  0.00     0.041 A 
HETATM   10  C14 UNL     1      23.781   1.771  51.286  1.00  0.00     0.049 A 
ENDROOT
BRANCH   8  11
HETATM   11  N4  UNL     1      25.560   1.196  53.270  1.00  0.00    -0.340 N 
HETATM   12  H5  UNL     1      25.307   2.194  53.099  1.00  0.00     0.167 HD
BRANCH  11  13
HETATM   13  C7  UNL     1      26.895   0.711  53.439  1.00  0.00     0.035 A 
HETATM   14  C8  UNL     1      27.921   1.532  53.827  1.00  0.00     0.032 A 
HETATM   15  C9  UNL     1      29.189   1.027  53.951  1.00  0.00     0.046 A 
HETATM   16  C10 UNL     1      29.356  -0.318  53.668  1.00  0.00     0.138 A 
HETATM   17  F2  UNL     1      30.586  -0.865  53.772  1.00  0.00    -0.204 F 
HETATM   18  C11 UNL     1      28.315  -1.155  53.273  1.00  0.00     0.074 A 
HETATM   19 CL1  UNL     1      28.573  -2.867  52.914  1.00  0.00    -0.081 Cl
HETATM   20  C12 UNL     1      27.047  -0.638  53.152  1.00  0.00     0.056 A 
ENDBRANCH  11  13
ENDBRANCH   8  11
BRANCH   1  21
HETATM   21  N1  UNL     1      23.225   3.008  49.277  1.00  0.00    -0.225 N 
HETATM   22  F1  UNL     1      24.341   3.589  48.812  1.00  0.00    -0.101 F 
HETATM   23  H1  UNL     1      22.430   3.406  48.713  1.00  0.00     0.199 HD
ENDBRANCH   1  21
TORSDOF 3
ENDMDL
MODEL 5
REMARK VINA RESULT:      -7.7      2.531      4.163
REMARK  3 active torsions:
REMARK  status: ('A' for Active; 'I' for Inactive)
REMARK    1  A    between atoms: N1_2  and  C1_3 
REMARK    2  A    between atoms: C6_10  and  N4_11 
REMARK    3  A    between atoms: N4_11  and  C7_12 
ROOT
HETATM    1  C1  UNL     1      25.615   4.085  49.538  1.00  0.00     0.060 A 
HETATM    2  C2  UNL     1      24.390   4.064  48.905  1.00  0.00     0.034 A 
HETATM    3  C3  UNL     1      23.298   3.446  49.523  1.00  0.00     0.035 A 
HETATM    4  C4  UNL     1      23.561   2.888  50.775  1.00  0.00     0.072 A 
HETATM    5  N2  UNL     1      22.531   2.284  51.385  1.00  0.00    -0.241 NA
HETATM    6  C5  UNL     1      22.666   1.697  52.600  1.00  0.00     0.236 A 
HETATM    7  N3  UNL     1      23.850   1.700  53.248  1.00  0.00    -0.224 NA
HETATM    8  C6  UNL     1      24.936   2.299  52.680  1.00  0.00     0.142 A 
HETATM    9  C13 UNL     1      24.764   2.890  51.433  1.00  0.00     0.041 A 
HETATM   10  C14 UNL     1      25.836   3.519  50.782  1.00  0.00     0.049 A 
ENDROOT
BRANCH   8  11
HETATM   11  N4  UNL     1      26.243   2.374  53.223  1.00  0.00    -0.340 N 
HETATM   12  H5  UNL     1      26.347   3.366  53.531  1.00  0.00     0.167 HD
BRANCH  11  13
HETATM   13  C7  UNL     1      27.252   1.369  53.357  1.00  0.00     0.035 A 
HETATM   14  C8  UNL     1      28.510   1.663  53.814  1.00  0.00     0.032 A 
HETATM   15  C9  UNL     1      29.452   0.670  53.901  1.00  0.00     0.046 A 
HETATM   16  C10 UNL     1      29.061  -0.599  53.510  1.00  0.00     0.138 A 
HETATM   17  F2  UNL     1      29.951  -1.613  53.575  1.00  0.00    -0.204 F 
HETATM   18  C11 UNL     1      27.782  -0.899  53.045  1.00  0.00     0.074 A 
HETATM   19 CL1  UNL     1      27.325  -2.534  52.549  1.00  0.00    -0.081 Cl
HETATM   20  C12 UNL     1      26.846   0.103  52.962  1.00  0.00     0.056 A 
ENDBRANCH  11  13
ENDBRANCH   8  11
BRANCH   1  21
HETATM   21  N1  UNL     1      26.715   4.721  48.870  1.00  0.00    -0.225 N 
HETATM   22  F1  UNL     1      27.937   4.383  48.428  1.00  0.00    -0.101 F 
HETATM   23  H1  UNL     1      26.588   5.737  48.627  1.00  0.00     0.199 HD
ENDBRANCH   1  21
TORSDOF 3
ENDMDL
MODEL 6
REMARK VINA RESULT:      -7.6      3.313      5.079
REMARK  3 active torsions:
REMARK  status: ('A' for Active; 'I' for Inactive)
REMARK    1  A    between atoms: N1_2  and  C1_3 
REMARK    2  A    between atoms: C6_10  and  N4_11 
REMARK    3  A    between atoms: N4_11  and  C7_12 
ROOT
HETATM    1  C1  UNL     1      22.426  -0.707  53.841  1.00  0.00     0.060 A 
HETATM    2  C2  UNL     1      22.763  -1.312  55.033  1.00  0.00     0.034 A 
HETATM    3  C3  UNL     1      24.079  -1.243  55.501  1.00  0.00     0.035 A 
HETATM    4  C4  UNL     1      24.965  -0.538  54.683  1.00  0.00     0.072 A 
HETATM    5  N2  UNL     1      26.235  -0.464  55.107  1.00  0.00    -0.241 NA
HETATM    6  C5  UNL     1      27.188   0.186  54.394  1.00  0.00     0.236 A 
HETATM    7  N3  UNL     1      26.892   0.788  53.223  1.00  0.00    -0.224 NA
HETATM    8  C6  UNL     1      25.618   0.749  52.738  1.00  0.00     0.142 A 
HETATM    9  C13 UNL     1      24.665   0.073  53.493  1.00  0.00     0.041 A 
HETATM   10  C14 UNL     1      23.335  -0.017  53.057  1.00  0.00     0.049 A 
ENDROOT
BRANCH   8  11
HETATM   11  N4  UNL     1      25.154   1.317  51.525  1.00  0.00    -0.340 N 
HETATM   12  H5  UNL     1      24.754   0.514  50.991  1.00  0.00     0.167 HD
BRANCH  11  13
HETATM   13  C7  UNL     1      25.185   2.670  51.062  1.00  0.00     0.035 A 
HETATM   14  C8  UNL     1      24.218   3.576  51.408  1.00  0.00     0.032 A 
HETATM   15  C9  UNL     1      24.277   4.856  50.917  1.00  0.00     0.046 A 
HETATM   16  C10 UNL     1      25.338   5.156  50.081  1.00  0.00     0.138 A 
HETATM   17  F2  UNL     1      25.442   6.402  49.569  1.00  0.00    -0.204 F 
HETATM   18  C11 UNL     1      26.322   4.236  49.728  1.00  0.00     0.074 A 
HETATM   19 CL1  UNL     1      27.658   4.659  48.649  1.00  0.00    -0.081 Cl
HETATM   20  C12 UNL     1      26.254   2.956  50.225  1.00  0.00     0.056 A 
ENDBRANCH  11  13
ENDBRANCH   8  11
BRANCH   1  21
HETATM   21  N1  UNL     1      21.067  -0.806  53.388  1.00  0.00    -0.225 N 
HETATM   22  F1  UNL     1      19.910  -1.325  53.828  1.00  0.00    -0.101 F 
HETATM   23  H1  UNL     1      20.853  -0.361  52.458  1.00  0.00     0.199 HD
ENDBRANCH   1  21
TORSDOF 3
ENDMDL
MODEL 7
REMARK VINA RESULT:      -7.4      4.070      6.644
REMARK  3 active torsions:
REMARK  status: ('A' for Active; 'I' for Inactive)
REMARK    1  A    between atoms: N1_2  and  C1_3 
REMARK    2  A    between atoms: C6_10  and  N4_11 
REMARK    3  A    between atoms: N4_11  and  C7_12 
ROOT
HETATM    1  C1  UNL     1      26.626   1.723  53.855  1.00  0.00     0.060 A 
HETATM    2  C2  UNL     1      26.770   0.381  54.138  1.00  0.00     0.034 A 
HETATM    3  C3  UNL     1      25.695  -0.490  53.940  1.00  0.00     0.035 A 
HETATM    4  C4  UNL     1      24.529   0.104  53.453  1.00  0.00     0.072 A 
HETATM    5  N2  UNL     1      23.481  -0.710  53.261  1.00  0.00    -0.241 NA
HETATM    6  C5  UNL     1      22.293  -0.248  52.800  1.00  0.00     0.236 A 
HETATM    7  N3  UNL     1      22.118   1.060  52.513  1.00  0.00    -0.224 NA
HETATM    8  C6  UNL     1      23.146   1.939  52.686  1.00  0.00     0.142 A 
HETATM    9  C13 UNL     1      24.351   1.432  53.162  1.00  0.00     0.041 A 
HETATM   10  C14 UNL     1      25.452   2.276  53.373  1.00  0.00     0.049 A 
ENDROOT
BRANCH   8  11
HETATM   11  N4  UNL     1      23.117   3.335  52.445  1.00  0.00    -0.340 N 
HETATM   12  H5  UNL     1      22.816   3.756  53.352  1.00  0.00     0.167 HD
BRANCH  11  13
HETATM   13  C7  UNL     1      23.418   4.080  51.261  1.00  0.00     0.035 A 
HETATM   14  C8  UNL     1      23.590   3.470  50.047  1.00  0.00     0.032 A 
HETATM   15  C9  UNL     1      23.903   4.223  48.944  1.00  0.00     0.046 A 
HETATM   16  C10 UNL     1      24.030   5.588  49.136  1.00  0.00     0.138 A 
HETATM   17  F2  UNL     1      24.339   6.375  48.083  1.00  0.00    -0.204 F 
HETATM   18  C11 UNL     1      23.856   6.210  50.370  1.00  0.00     0.074 A 
HETATM   19 CL1  UNL     1      24.033   7.958  50.572  1.00  0.00    -0.081 Cl
HETATM   20  C12 UNL     1      23.542   5.446  51.468  1.00  0.00     0.056 A 
ENDBRANCH  11  13
ENDBRANCH   8  11
BRANCH   1  21
HETATM   21  N1  UNL     1      27.749   2.590  54.079  1.00  0.00    -0.225 N 
HETATM   22  F1  UNL     1      28.873   2.943  53.435  1.00  0.00    -0.101 F 
HETATM   23  H1  UNL     1      27.747   3.131  54.982  1.00  0.00     0.199 HD
ENDBRANCH   1  21
TORSDOF 3
ENDMDL
MODEL 8
REMARK VINA RESULT:      -7.3      3.513      6.053
REMARK  3 active torsions:
REMARK  status: ('A' for Active; 'I' for Inactive)
REMARK    1  A    between atoms: N1_2  and  C1_3 
REMARK    2  A    between atoms: C6_10  and  N4_11 
REMARK    3  A    between atoms: N4_11  and  C7_12 
ROOT
HETATM    1  C1  UNL     1      27.613   5.613  48.493  1.00  0.00     0.060 A 
HETATM    2  C2  UNL     1      26.818   6.684  48.144  1.00  0.00     0.034 A 
HETATM    3  C3  UNL     1      25.458   6.675  48.469  1.00  0.00     0.035 A 
HETATM    4  C4  UNL     1      25.015   5.537  49.146  1.00  0.00     0.072 A 
HETATM    5  N2  UNL     1      23.713   5.502  49.463  1.00  0.00    -0.241 NA
HETATM    6  C5  UNL     1      23.164   4.446  50.112  1.00  0.00     0.236 A 
HETATM    7  N3  UNL     1      23.914   3.381  50.469  1.00  0.00    -0.224 NA
HETATM    8  C6  UNL     1      25.246   3.357  50.176  1.00  0.00     0.142 A 
HETATM    9  C13 UNL     1      25.776   4.456  49.508  1.00  0.00     0.041 A 
HETATM   10  C14 UNL     1      27.136   4.500  49.165  1.00  0.00     0.049 A 
ENDROOT
BRANCH   8  11
HETATM   11  N4  UNL     1      26.160   2.314  50.468  1.00  0.00    -0.340 N 
HETATM   12  H5  UNL     1      26.614   2.093  49.554  1.00  0.00     0.167 HD
BRANCH  11  13
HETATM   13  C7  UNL     1      26.455   1.657  51.705  1.00  0.00     0.035 A 
HETATM   14  C8  UNL     1      25.670   0.646  52.193  1.00  0.00     0.032 A 
HETATM   15  C9  UNL     1      25.978   0.064  53.396  1.00  0.00     0.046 A 
HETATM   16  C10 UNL     1      27.092   0.550  54.058  1.00  0.00     0.138 A 
HETATM   17  F2  UNL     1      27.439   0.014  55.247  1.00  0.00    -0.204 F 
HETATM   18  C11 UNL     1      27.892   1.579  53.563  1.00  0.00     0.074 A 
HETATM   19 CL1  UNL     1      29.304   2.175  54.445  1.00  0.00    -0.081 Cl
HETATM   20  C12 UNL     1      27.574   2.154  52.356  1.00  0.00     0.056 A 
ENDBRANCH  11  13
ENDBRANCH   8  11
BRANCH   1  21
HETATM   21  N1  UNL     1      29.003   5.653  48.136  1.00  0.00    -0.225 N 
HETATM   22  F1  UNL     1      29.935   4.802  47.679  1.00  0.00    -0.101 F 
HETATM   23  H1  UNL     1      29.483   6.585  48.236  1.00  0.00     0.199 HD
ENDBRANCH   1  21
TORSDOF 3
ENDMDL
MODEL 9
REMARK VINA RESULT:      -7.1      3.398      5.840
REMARK  3 active torsions:
REMARK  status: ('A' for Active; 'I' for Inactive)
REMARK    1  A    between atoms: N1_2  and  C1_3 
REMARK    2  A    between atoms: C6_10  and  N4_11 
REMARK    3  A    between atoms: N4_11  and  C7_12 
ROOT
HETATM    1  C1  UNL     1      26.238   4.933  49.472  1.00  0.00     0.060 A 
HETATM    2  C2  UNL     1      25.901   6.270  49.448  1.00  0.00     0.034 A 
HETATM    3  C3  UNL     1      24.691   6.692  50.006  1.00  0.00     0.035 A 
HETATM    4  C4  UNL     1      23.905   5.680  50.560  1.00  0.00     0.072 A 
HETATM    5  N2  UNL     1      22.736   6.059  51.096  1.00  0.00    -0.241 NA
HETATM    6  C5  UNL     1      21.884   5.165  51.655  1.00  0.00     0.236 A 
HETATM    7  N3  UNL     1      22.183   3.849  51.696  1.00  0.00    -0.224 NA
HETATM    8  C6  UNL     1      23.358   3.400  51.168  1.00  0.00     0.142 A 
HETATM    9  C13 UNL     1      24.208   4.343  50.601  1.00  0.00     0.041 A 
HETATM   10  C14 UNL     1      25.431   3.957  50.031  1.00  0.00     0.049 A 
ENDROOT
BRANCH   8  11
HETATM   11  N4  UNL     1      23.807   2.057  51.121  1.00  0.00    -0.340 N 
HETATM   12  H5  UNL     1      23.842   1.824  50.104  1.00  0.00     0.167 HD
BRANCH  11  13
HETATM   13  C7  UNL     1      24.157   1.157  52.176  1.00  0.00     0.035 A 
HETATM   14  C8  UNL     1      25.461   0.887  52.495  1.00  0.00     0.032 A 
HETATM   15  C9  UNL     1      25.747  -0.003  53.499  1.00  0.00     0.046 A 
HETATM   16  C10 UNL     1      24.670  -0.588  54.141  1.00  0.00     0.138 A 
HETATM   17  F2  UNL     1      24.896  -1.473  55.135  1.00  0.00    -0.204 F 
HETATM   18  C11 UNL     1      23.342  -0.315  53.818  1.00  0.00     0.074 A 
HETATM   19 CL1  UNL     1      21.994  -1.090  54.660  1.00  0.00    -0.081 Cl
HETATM   20  C12 UNL     1      23.067   0.579  52.811  1.00  0.00     0.056 A 
ENDBRANCH  11  13
ENDBRANCH   8  11
BRANCH   1  21
HETATM   21  N1  UNL     1      27.485   4.535  48.882  1.00  0.00    -0.225 N 
HETATM   22  F1  UNL     1      28.411   5.065  48.068  1.00  0.00    -0.101 F 
HETATM   23  H1  UNL     1      27.824   3.567  49.120  1.00  0.00     0.199 HD
ENDBRANCH   1  21
TORSDOF 3
ENDMDL
