MODEL 1
REMARK VINA RESULT:     -11.3      0.000      0.000
REMARK  0 active torsions:
REMARK  status: ('A' for Active; 'I' for Inactive)
ROOT
HETATM    1  C1  UNL     1      22.092  -1.175  54.789  1.00  0.00     0.019 C 
HETATM    2  C2  UNL     1      22.595  -0.720  53.654  1.00  0.00    -0.058 C 
HETATM    3  C3  UNL     1      21.528  -0.222  52.813  1.00  0.00     0.049 C 
HETATM    4  C4  UNL     1      20.949   0.299  51.804  1.00  0.00     0.116 C 
HETATM    5  F1  UNL     1      19.736   0.637  51.354  1.00  0.00    -0.206 F 
HETATM    6  C5  UNL     1      21.322   0.830  50.545  1.00  0.00     0.039 C 
HETATM    7  C6  UNL     1      21.333   1.360  49.371  1.00  0.00    -0.009 C 
HETATM    8  C7  UNL     1      21.719   1.896  48.094  1.00  0.00     0.078 C 
HETATM    9  C8  UNL     1      22.987   2.654  48.295  1.00  0.00     0.017 C 
HETATM   10  C9  UNL     1      22.422   3.692  48.892  1.00  0.00     0.034 C 
HETATM   11  C10 UNL     1      21.027   3.925  48.529  1.00  0.00     0.050 C 
HETATM   12  C11 UNL     1      20.739   2.951  47.658  1.00  0.00     0.025 C 
HETATM   13 CL1  UNL     1      19.478   3.180  46.458  1.00  0.00    -0.088 Cl
HETATM   14  N1  UNL     1      23.228   4.434  49.793  1.00  0.00    -0.333 N 
HETATM   15  C12 UNL     1      23.917   4.322  51.019  1.00  0.00     0.107 C 
HETATM   16  C13 UNL     1      25.158   4.074  50.549  1.00  0.00     0.003 C 
HETATM   17  C14 UNL     1      25.969   3.006  51.164  1.00  0.00     0.011 C 
HETATM   18  C15 UNL     1      25.799   1.864  51.865  1.00  0.00    -0.020 C 
HETATM   19  C16 UNL     1      24.465   1.225  52.315  1.00  0.00     0.059 C 
HETATM   20  C17 UNL     1      24.940   0.055  52.994  1.00  0.00    -0.007 C 
HETATM   21  C18 UNL     1      26.178  -0.807  53.452  1.00  0.00     0.276 C 
HETATM   22  N2  UNL     1      26.011  -0.825  54.870  1.00  0.00     0.084 N 
HETATM   23  C19 UNL     1      24.575  -0.930  55.083  1.00  0.00     0.279 C 
HETATM   24  C20 UNL     1      24.033  -0.896  53.640  1.00  0.00     0.053 C 
HETATM   25  C21 UNL     1      25.686   4.870  49.422  1.00  0.00     0.039 C 
HETATM   26  C22 UNL     1      27.059   4.609  48.864  1.00  0.00     0.071 C 
HETATM   27  N3  UNL     1      24.878   5.801  48.951  1.00  0.00    -0.268 NA
HETATM   28  C23 UNL     1      23.468   5.794  49.332  1.00  0.00     0.209 C 
HETATM   29  C24 UNL     1      23.148   6.836  50.370  1.00  0.00     0.058 C 
HETATM   30  H15 UNL     1      26.448  -0.015  55.311  1.00  0.00     0.315 HD
ENDROOT
TORSDOF 0
ENDMDL
MODEL 2
REMARK VINA RESULT:      -8.6      8.309     11.363
REMARK  0 active torsions:
REMARK  status: ('A' for Active; 'I' for Inactive)
ROOT
HETATM    1  C1  UNL     1      25.899   8.563  48.547  1.00  0.00     0.019 C 
HETATM    2  C2  UNL     1      27.217   8.455  48.546  1.00  0.00    -0.058 C 
HETATM    3  C3  UNL     1      27.592   7.067  48.382  1.00  0.00     0.049 C 
HETATM    4  C4  UNL     1      28.335   6.038  48.263  1.00  0.00     0.116 C 
HETATM    5  F1  UNL     1      28.268   4.712  48.105  1.00  0.00    -0.206 F 
HETATM    6  C5  UNL     1      29.721   5.749  48.235  1.00  0.00     0.039 C 
HETATM    7  C6  UNL     1      30.873   5.174  48.173  1.00  0.00    -0.009 C 
HETATM    8  C7  UNL     1      32.281   4.889  48.146  1.00  0.00     0.078 C 
HETATM    9  C8  UNL     1      32.942   5.982  47.378  1.00  0.00     0.017 C 
HETATM   10  C9  UNL     1      32.535   5.567  46.188  1.00  0.00     0.034 C 
HETATM   11  C10 UNL     1      32.278   4.132  46.094  1.00  0.00     0.050 C 
HETATM   12  C11 UNL     1      32.545   3.662  47.317  1.00  0.00     0.025 C 
HETATM   13 CL1  UNL     1      33.040   1.991  47.534  1.00  0.00    -0.088 Cl
HETATM   14  N1  UNL     1      32.401   6.549  45.173  1.00  0.00    -0.333 N 
HETATM   15  C12 UNL     1      31.663   7.703  44.833  1.00  0.00     0.107 C 
HETATM   16  C13 UNL     1      32.535   8.647  45.247  1.00  0.00     0.003 C 
HETATM   17  C14 UNL     1      32.042   9.803  46.020  1.00  0.00     0.011 C 
HETATM   18  C15 UNL     1      31.007  10.133  46.824  1.00  0.00    -0.020 C 
HETATM   19  C16 UNL     1      29.818   9.239  47.243  1.00  0.00     0.059 C 
HETATM   20  C17 UNL     1      29.085  10.138  48.085  1.00  0.00    -0.007 C 
HETATM   21  C18 UNL     1      28.984  11.574  48.729  1.00  0.00     0.276 C 
HETATM   22  N2  UNL     1      27.730  12.032  48.224  1.00  0.00     0.084 N 
HETATM   23  C19 UNL     1      26.866  10.861  48.232  1.00  0.00     0.279 C 
HETATM   24  C20 UNL     1      27.824   9.758  48.726  1.00  0.00     0.053 C 
HETATM   25  C21 UNL     1      33.970   8.511  44.925  1.00  0.00     0.039 C 
HETATM   26  C22 UNL     1      34.969   9.537  45.383  1.00  0.00     0.071 C 
HETATM   27  N3  UNL     1      34.299   7.441  44.225  1.00  0.00    -0.268 NA
HETATM   28  C23 UNL     1      33.341   6.349  44.080  1.00  0.00     0.209 C 
HETATM   29  C24 UNL     1      32.681   6.339  42.727  1.00  0.00     0.058 C 
HETATM   30  H15 UNL     1      27.832  12.479  47.312  1.00  0.00     0.315 HD
ENDROOT
TORSDOF 0
ENDMDL
MODEL 3
REMARK VINA RESULT:      -8.5      2.729      4.987
REMARK  0 active torsions:
REMARK  status: ('A' for Active; 'I' for Inactive)
ROOT
HETATM    1  C1  UNL     1      26.785   0.096  52.008  1.00  0.00     0.019 C 
HETATM    2  C2  UNL     1      25.912   1.087  51.935  1.00  0.00    -0.058 C 
HETATM    3  C3  UNL     1      26.419   2.119  51.057  1.00  0.00     0.049 C 
HETATM    4  C4  UNL     1      26.465   3.212  50.402  1.00  0.00     0.116 C 
HETATM    5  F1  UNL     1      27.250   3.898  49.566  1.00  0.00    -0.206 F 
HETATM    6  C5  UNL     1      25.642   4.349  50.210  1.00  0.00     0.039 C 
HETATM    7  C6  UNL     1      25.145   5.479  49.840  1.00  0.00    -0.009 C 
HETATM    8  C7  UNL     1      24.305   6.629  49.650  1.00  0.00     0.078 C 
HETATM    9  C8  UNL     1      22.898   6.145  49.571  1.00  0.00     0.017 C 
HETATM   10  C9  UNL     1      23.001   5.651  48.347  1.00  0.00     0.034 C 
HETATM   11  C10 UNL     1      24.011   6.293  47.509  1.00  0.00     0.050 C 
HETATM   12  C11 UNL     1      24.551   7.232  48.294  1.00  0.00     0.025 C 
HETATM   13 CL1  UNL     1      25.281   8.663  47.587  1.00  0.00    -0.088 Cl
HETATM   14  N1  UNL     1      22.136   4.579  48.008  1.00  0.00    -0.333 N 
HETATM   15  C12 UNL     1      21.843   3.239  48.340  1.00  0.00     0.107 C 
HETATM   16  C13 UNL     1      20.808   3.445  49.181  1.00  0.00     0.003 C 
HETATM   17  C14 UNL     1      20.748   2.703  50.455  1.00  0.00     0.011 C 
HETATM   18  C15 UNL     1      21.579   2.086  51.323  1.00  0.00    -0.020 C 
HETATM   19  C16 UNL     1      23.115   1.946  51.217  1.00  0.00     0.059 C 
HETATM   20  C17 UNL     1      23.405   1.215  52.416  1.00  0.00    -0.007 C 
HETATM   21  C18 UNL     1      22.850   0.532  53.725  1.00  0.00     0.276 C 
HETATM   22  N2  UNL     1      23.283  -0.818  53.553  1.00  0.00     0.084 N 
HETATM   23  C19 UNL     1      24.603  -0.721  52.948  1.00  0.00     0.279 C 
HETATM   24  C20 UNL     1      24.764   0.803  52.772  1.00  0.00     0.053 C 
HETATM   25  C21 UNL     1      19.751   4.411  48.820  1.00  0.00     0.039 C 
HETATM   26  C22 UNL     1      18.592   4.675  49.742  1.00  0.00     0.071 C 
HETATM   27  N3  UNL     1      19.903   5.016  47.656  1.00  0.00    -0.268 NA
HETATM   28  C23 UNL     1      21.187   4.940  46.965  1.00  0.00     0.209 C 
HETATM   29  C24 UNL     1      21.167   3.964  45.820  1.00  0.00     0.058 C 
HETATM   30  H15 UNL     1      22.608  -1.364  53.015  1.00  0.00     0.315 HD
ENDROOT
TORSDOF 0
ENDMDL
MODEL 4
REMARK VINA RESULT:      -8.4      3.889      6.294
REMARK  0 active torsions:
REMARK  status: ('A' for Active; 'I' for Inactive)
ROOT
HETATM    1  C1  UNL     1      17.452  -3.090  53.545  1.00  0.00     0.019 C 
HETATM    2  C2  UNL     1      17.859  -1.848  53.345  1.00  0.00    -0.058 C 
HETATM    3  C3  UNL     1      19.290  -1.767  53.539  1.00  0.00     0.049 C 
HETATM    4  C4  UNL     1      20.459  -1.261  53.604  1.00  0.00     0.116 C 
HETATM    5  F1  UNL     1      21.728  -1.591  53.862  1.00  0.00    -0.206 F 
HETATM    6  C5  UNL     1      21.058   0.010  53.420  1.00  0.00     0.039 C 
HETATM    7  C6  UNL     1      21.880   0.998  53.332  1.00  0.00    -0.009 C 
HETATM    8  C7  UNL     1      22.480   2.290  53.144  1.00  0.00     0.078 C 
HETATM    9  C8  UNL     1      21.803   2.931  51.982  1.00  0.00     0.017 C 
HETATM   10  C9  UNL     1      22.402   2.192  51.061  1.00  0.00     0.034 C 
HETATM   11  C10 UNL     1      23.713   1.676  51.445  1.00  0.00     0.050 C 
HETATM   12  C11 UNL     1      23.905   2.137  52.686  1.00  0.00     0.025 C 
HETATM   13 CL1  UNL     1      25.532   2.374  53.301  1.00  0.00    -0.088 Cl
HETATM   14  N1  UNL     1      21.708   1.996  49.839  1.00  0.00    -0.333 N 
HETATM   15  C12 UNL     1      20.541   1.409  49.305  1.00  0.00     0.107 C 
HETATM   16  C13 UNL     1      19.750   2.503  49.259  1.00  0.00     0.003 C 
HETATM   17  C14 UNL     1      18.354   2.411  49.727  1.00  0.00     0.011 C 
HETATM   18  C15 UNL     1      17.600   1.666  50.564  1.00  0.00    -0.020 C 
HETATM   19  C16 UNL     1      18.057   0.471  51.432  1.00  0.00     0.059 C 
HETATM   20  C17 UNL     1      16.828   0.122  52.083  1.00  0.00    -0.007 C 
HETATM   21  C18 UNL     1      15.292   0.424  52.277  1.00  0.00     0.276 C 
HETATM   22  N2  UNL     1      14.702  -0.816  51.887  1.00  0.00     0.084 N 
HETATM   23  C19 UNL     1      15.599  -1.843  52.395  1.00  0.00     0.279 C 
HETATM   24  C20 UNL     1      16.730  -1.000  53.019  1.00  0.00     0.053 C 
HETATM   25  C21 UNL     1      20.292   3.777  48.746  1.00  0.00     0.039 C 
HETATM   26  C22 UNL     1      19.443   5.017  48.695  1.00  0.00     0.071 C 
HETATM   27  N3  UNL     1      21.552   3.745  48.350  1.00  0.00    -0.268 NA
HETATM   28  C23 UNL     1      22.392   2.605  48.708  1.00  0.00     0.209 C 
HETATM   29  C24 UNL     1      22.594   1.656  47.558  1.00  0.00     0.058 C 
HETATM   30  H15 UNL     1      14.538  -0.855  50.880  1.00  0.00     0.315 HD
ENDROOT
TORSDOF 0
ENDMDL
MODEL 5
REMARK VINA RESULT:      -8.4      6.242      9.689
REMARK  0 active torsions:
REMARK  status: ('A' for Active; 'I' for Inactive)
ROOT
HETATM    1  C1  UNL     1      25.510   4.016  49.009  1.00  0.00     0.019 C 
HETATM    2  C2  UNL     1      26.184   5.124  49.271  1.00  0.00    -0.058 C 
HETATM    3  C3  UNL     1      27.513   5.030  48.706  1.00  0.00     0.049 C 
HETATM    4  C4  UNL     1      28.704   5.363  48.395  1.00  0.00     0.116 C 
HETATM    5  F1  UNL     1      29.785   4.905  47.756  1.00  0.00    -0.206 F 
HETATM    6  C5  UNL     1      29.558   6.477  48.583  1.00  0.00     0.039 C 
HETATM    7  C6  UNL     1      30.549   7.301  48.582  1.00  0.00    -0.009 C 
HETATM    8  C7  UNL     1      31.411   8.435  48.777  1.00  0.00     0.078 C 
HETATM    9  C8  UNL     1      30.574   9.660  48.631  1.00  0.00     0.017 C 
HETATM   10  C9  UNL     1      30.474   9.589  47.312  1.00  0.00     0.034 C 
HETATM   11  C10 UNL     1      31.581   8.906  46.648  1.00  0.00     0.050 C 
HETATM   12  C11 UNL     1      32.395   8.539  47.644  1.00  0.00     0.025 C 
HETATM   13 CL1  UNL     1      34.110   8.315  47.348  1.00  0.00    -0.088 Cl
HETATM   14  N1  UNL     1      29.325  10.175  46.721  1.00  0.00    -0.333 N 
HETATM   15  C12 UNL     1      27.920  10.054  46.663  1.00  0.00     0.107 C 
HETATM   16  C13 UNL     1      27.584  10.987  47.578  1.00  0.00     0.003 C 
HETATM   17  C14 UNL     1      26.548  10.680  48.583  1.00  0.00     0.011 C 
HETATM   18  C15 UNL     1      25.995   9.607  49.192  1.00  0.00    -0.020 C 
HETATM   19  C16 UNL     1      26.345   8.117  48.973  1.00  0.00     0.059 C 
HETATM   20  C17 UNL     1      25.441   7.489  49.893  1.00  0.00    -0.007 C 
HETATM   21  C18 UNL     1      24.305   7.665  50.972  1.00  0.00     0.276 C 
HETATM   22  N2  UNL     1      23.237   6.915  50.394  1.00  0.00     0.084 N 
HETATM   23  C19 UNL     1      23.872   5.759  49.779  1.00  0.00     0.279 C 
HETATM   24  C20 UNL     1      25.366   6.034  50.045  1.00  0.00     0.053 C 
HETATM   25  C21 UNL     1      28.258  12.301  47.567  1.00  0.00     0.039 C 
HETATM   26  C22 UNL     1      27.918  13.357  48.582  1.00  0.00     0.071 C 
HETATM   27  N3  UNL     1      29.166  12.469  46.622  1.00  0.00    -0.268 NA
HETATM   28  C23 UNL     1      29.654  11.313  45.876  1.00  0.00     0.209 C 
HETATM   29  C24 UNL     1      29.054  11.222  44.499  1.00  0.00     0.058 C 
HETATM   30  H15 UNL     1      22.679   7.484  49.756  1.00  0.00     0.315 HD
ENDROOT
TORSDOF 0
ENDMDL
MODEL 6
REMARK VINA RESULT:      -8.4      7.157     10.990
REMARK  0 active torsions:
REMARK  status: ('A' for Active; 'I' for Inactive)
ROOT
HETATM    1  C1  UNL     1      26.049   9.714  49.351  1.00  0.00     0.019 C 
HETATM    2  C2  UNL     1      26.791   9.012  48.510  1.00  0.00    -0.058 C 
HETATM    3  C3  UNL     1      27.640   9.902  47.749  1.00  0.00     0.049 C 
HETATM    4  C4  UNL     1      28.514  10.284  46.904  1.00  0.00     0.116 C 
HETATM    5  F1  UNL     1      29.102  11.389  46.434  1.00  0.00    -0.206 F 
HETATM    6  C5  UNL     1      29.382   9.686  45.957  1.00  0.00     0.039 C 
HETATM    7  C6  UNL     1      30.258   9.459  45.040  1.00  0.00    -0.009 C 
HETATM    8  C7  UNL     1      31.134   8.845  44.080  1.00  0.00     0.078 C 
HETATM    9  C8  UNL     1      31.652   7.588  44.691  1.00  0.00     0.017 C 
HETATM   10  C9  UNL     1      32.495   8.186  45.519  1.00  0.00     0.034 C 
HETATM   11  C10 UNL     1      32.975   9.491  45.070  1.00  0.00     0.050 C 
HETATM   12  C11 UNL     1      32.368   9.685  43.894  1.00  0.00     0.025 C 
HETATM   13 CL1  UNL     1      33.100  10.723  42.682  1.00  0.00    -0.088 Cl
HETATM   14  N1  UNL     1      32.821   7.498  46.716  1.00  0.00    -0.333 N 
HETATM   15  C12 UNL     1      32.250   7.022  47.915  1.00  0.00     0.107 C 
HETATM   16  C13 UNL     1      32.041   5.736  47.560  1.00  0.00     0.003 C 
HETATM   17  C14 UNL     1      30.754   5.091  47.887  1.00  0.00     0.011 C 
HETATM   18  C15 UNL     1      29.471   5.431  48.137  1.00  0.00    -0.020 C 
HETATM   19  C16 UNL     1      28.862   6.852  48.163  1.00  0.00     0.059 C 
HETATM   20  C17 UNL     1      27.493   6.555  48.470  1.00  0.00    -0.007 C 
HETATM   21  C18 UNL     1      26.406   5.452  48.776  1.00  0.00     0.276 C 
HETATM   22  N2  UNL     1      25.950   5.846  50.070  1.00  0.00     0.084 N 
HETATM   23  C19 UNL     1      25.930   7.301  50.041  1.00  0.00     0.279 C 
HETATM   24  C20 UNL     1      26.482   7.602  48.632  1.00  0.00     0.053 C 
HETATM   25  C21 UNL     1      33.098   4.993  46.846  1.00  0.00     0.039 C 
HETATM   26  C22 UNL     1      32.892   3.564  46.423  1.00  0.00     0.071 C 
HETATM   27  N3  UNL     1      34.209   5.665  46.609  1.00  0.00    -0.268 NA
HETATM   28  C23 UNL     1      34.224   7.116  46.773  1.00  0.00     0.209 C 
HETATM   29  C24 UNL     1      34.903   7.544  48.046  1.00  0.00     0.058 C 
HETATM   30  H15 UNL     1      26.525   5.444  50.810  1.00  0.00     0.315 HD
ENDROOT
TORSDOF 0
ENDMDL
MODEL 7
REMARK VINA RESULT:      -8.4      5.465      8.316
REMARK  0 active torsions:
REMARK  status: ('A' for Active; 'I' for Inactive)
ROOT
HETATM    1  C1  UNL     1      23.228   6.099  49.962  1.00  0.00     0.019 C 
HETATM    2  C2  UNL     1      24.195   6.083  49.060  1.00  0.00    -0.058 C 
HETATM    3  C3  UNL     1      24.071   7.234  48.192  1.00  0.00     0.049 C 
HETATM    4  C4  UNL     1      24.333   8.050  47.249  1.00  0.00     0.116 C 
HETATM    5  F1  UNL     1      23.893   9.184  46.694  1.00  0.00    -0.206 F 
HETATM    6  C5  UNL     1      25.302   8.185  46.224  1.00  0.00     0.039 C 
HETATM    7  C6  UNL     1      26.007   8.581  45.221  1.00  0.00    -0.009 C 
HETATM    8  C7  UNL     1      26.994   8.711  44.183  1.00  0.00     0.078 C 
HETATM    9  C8  UNL     1      28.303   8.291  44.759  1.00  0.00     0.017 C 
HETATM   10  C9  UNL     1      28.485   9.389  45.477  1.00  0.00     0.034 C 
HETATM   11  C10 UNL     1      27.826  10.582  44.952  1.00  0.00     0.050 C 
HETATM   12  C11 UNL     1      27.202  10.162  43.846  1.00  0.00     0.025 C 
HETATM   13 CL1  UNL     1      26.864  11.285  42.540  1.00  0.00    -0.088 Cl
HETATM   14  N1  UNL     1      29.282   9.271  46.644  1.00  0.00    -0.333 N 
HETATM   15  C12 UNL     1      29.316   8.645  47.908  1.00  0.00     0.107 C 
HETATM   16  C13 UNL     1      30.096   7.586  47.605  1.00  0.00     0.003 C 
HETATM   17  C14 UNL     1      29.717   6.243  48.084  1.00  0.00     0.011 C 
HETATM   18  C15 UNL     1      28.613   5.564  48.466  1.00  0.00    -0.020 C 
HETATM   19  C16 UNL     1      27.161   6.088  48.530  1.00  0.00     0.059 C 
HETATM   20  C17 UNL     1      26.469   4.919  48.992  1.00  0.00    -0.007 C 
HETATM   21  C18 UNL     1      26.560   3.409  49.437  1.00  0.00     0.276 C 
HETATM   22  N2  UNL     1      26.040   3.467  50.766  1.00  0.00     0.084 N 
HETATM   23  C19 UNL     1      24.958   4.438  50.710  1.00  0.00     0.279 C 
HETATM   24  C20 UNL     1      25.027   4.911  49.243  1.00  0.00     0.053 C 
HETATM   25  C21 UNL     1      31.314   7.782  46.794  1.00  0.00     0.039 C 
HETATM   26  C22 UNL     1      32.197   6.621  46.425  1.00  0.00     0.071 C 
HETATM   27  N3  UNL     1      31.559   9.025  46.422  1.00  0.00    -0.268 NA
HETATM   28  C23 UNL     1      30.516  10.038  46.554  1.00  0.00     0.209 C 
HETATM   29  C24 UNL     1      30.738  10.943  47.736  1.00  0.00     0.058 C 
HETATM   30  H15 UNL     1      26.769   3.682  51.447  1.00  0.00     0.315 HD
ENDROOT
TORSDOF 0
ENDMDL
MODEL 8
REMARK VINA RESULT:      -8.2      8.709     11.157
REMARK  0 active torsions:
REMARK  status: ('A' for Active; 'I' for Inactive)
ROOT
HETATM    1  C1  UNL     1      34.661   3.777  47.346  1.00  0.00     0.019 C 
HETATM    2  C2  UNL     1      33.561   4.337  46.868  1.00  0.00    -0.058 C 
HETATM    3  C3  UNL     1      32.704   4.737  47.963  1.00  0.00     0.049 C 
HETATM    4  C4  UNL     1      31.696   5.226  48.571  1.00  0.00     0.116 C 
HETATM    5  F1  UNL     1      31.216   5.433  49.802  1.00  0.00    -0.206 F 
HETATM    6  C5  UNL     1      30.472   5.851  48.228  1.00  0.00     0.039 C 
HETATM    7  C6  UNL     1      29.320   6.428  48.247  1.00  0.00    -0.009 C 
HETATM    8  C7  UNL     1      28.079   7.061  47.891  1.00  0.00     0.078 C 
HETATM    9  C8  UNL     1      28.353   7.957  46.733  1.00  0.00     0.017 C 
HETATM   10  C9  UNL     1      28.969   8.894  47.439  1.00  0.00     0.034 C 
HETATM   11  C10 UNL     1      28.566   8.970  48.841  1.00  0.00     0.050 C 
HETATM   12  C11 UNL     1      27.649   8.006  48.980  1.00  0.00     0.025 C 
HETATM   13 CL1  UNL     1      26.416   8.131  50.223  1.00  0.00    -0.088 Cl
HETATM   14  N1  UNL     1      29.926   9.689  46.758  1.00  0.00    -0.333 N 
HETATM   15  C12 UNL     1      31.170   9.610  46.097  1.00  0.00     0.107 C 
HETATM   16  C13 UNL     1      30.734   9.535  44.822  1.00  0.00     0.003 C 
HETATM   17  C14 UNL     1      31.336   8.548  43.904  1.00  0.00     0.011 C 
HETATM   18  C15 UNL     1      31.987   7.366  43.954  1.00  0.00    -0.020 C 
HETATM   19  C16 UNL     1      32.364   6.551  45.212  1.00  0.00     0.059 C 
HETATM   20  C17 UNL     1      33.015   5.419  44.618  1.00  0.00    -0.007 C 
HETATM   21  C18 UNL     1      33.483   4.695  43.297  1.00  0.00     0.276 C 
HETATM   22  N2  UNL     1      34.892   4.597  43.504  1.00  0.00     0.084 N 
HETATM   23  C19 UNL     1      35.051   4.309  44.921  1.00  0.00     0.279 C 
HETATM   24  C20 UNL     1      33.591   4.338  45.420  1.00  0.00     0.053 C 
HETATM   25  C21 UNL     1      29.658  10.436  44.362  1.00  0.00     0.039 C 
HETATM   26  C22 UNL     1      29.139  10.367  42.951  1.00  0.00     0.071 C 
HETATM   27  N3  UNL     1      29.195  11.281  45.264  1.00  0.00    -0.268 NA
HETATM   28  C23 UNL     1      29.526  11.086  46.672  1.00  0.00     0.209 C 
HETATM   29  C24 UNL     1      30.591  12.037  47.149  1.00  0.00     0.058 C 
HETATM   30  H15 UNL     1      35.379   5.435  43.183  1.00  0.00     0.315 HD
ENDROOT
TORSDOF 0
ENDMDL
MODEL 9
REMARK VINA RESULT:      -8.2      4.586      7.202
REMARK  0 active torsions:
REMARK  status: ('A' for Active; 'I' for Inactive)
ROOT
HETATM    1  C1  UNL     1      14.245  -1.155  52.335  1.00  0.00     0.019 C 
HETATM    2  C2  UNL     1      15.235  -0.303  52.542  1.00  0.00    -0.058 C 
HETATM    3  C3  UNL     1      16.466  -1.031  52.765  1.00  0.00     0.049 C 
HETATM    4  C4  UNL     1      17.701  -1.243  52.998  1.00  0.00     0.116 C 
HETATM    5  F1  UNL     1      18.581  -2.239  53.149  1.00  0.00    -0.206 F 
HETATM    6  C5  UNL     1      18.866  -0.473  53.231  1.00  0.00     0.039 C 
HETATM    7  C6  UNL     1      20.068  -0.072  53.467  1.00  0.00    -0.009 C 
HETATM    8  C7  UNL     1      21.246   0.716  53.704  1.00  0.00     0.078 C 
HETATM    9  C8  UNL     1      21.180   1.898  52.799  1.00  0.00     0.017 C 
HETATM   10  C9  UNL     1      21.488   1.232  51.696  1.00  0.00     0.034 C 
HETATM   11  C10 UNL     1      22.292   0.031  51.909  1.00  0.00     0.050 C 
HETATM   12  C11 UNL     1      22.468  -0.025  53.234  1.00  0.00     0.025 C 
HETATM   13 CL1  UNL     1      23.870  -0.840  53.907  1.00  0.00    -0.088 Cl
HETATM   14  N1  UNL     1      21.009   1.759  50.470  1.00  0.00    -0.333 N 
HETATM   15  C12 UNL     1      19.815   2.029  49.767  1.00  0.00     0.107 C 
HETATM   16  C13 UNL     1      19.682   3.340  50.063  1.00  0.00     0.003 C 
HETATM   17  C14 UNL     1      18.363   3.865  50.465  1.00  0.00     0.011 C 
HETATM   18  C15 UNL     1      17.210   3.427  51.016  1.00  0.00    -0.020 C 
HETATM   19  C16 UNL     1      16.868   1.988  51.465  1.00  0.00     0.059 C 
HETATM   20  C17 UNL     1      15.534   2.167  51.961  1.00  0.00    -0.007 C 
HETATM   21  C18 UNL     1      14.335   3.158  52.227  1.00  0.00     0.276 C 
HETATM   22  N2  UNL     1      13.291   2.561  51.458  1.00  0.00     0.084 N 
HETATM   23  C19 UNL     1      13.468   1.126  51.623  1.00  0.00     0.279 C 
HETATM   24  C20 UNL     1      14.741   1.057  52.492  1.00  0.00     0.053 C 
HETATM   25  C21 UNL     1      20.857   4.231  49.984  1.00  0.00     0.039 C 
HETATM   26  C22 UNL     1      20.747   5.693  50.321  1.00  0.00     0.071 C 
HETATM   27  N3  UNL     1      21.986   3.657  49.610  1.00  0.00    -0.268 NA
HETATM   28  C23 UNL     1      22.085   2.201  49.596  1.00  0.00     0.209 C 
HETATM   29  C24 UNL     1      21.991   1.631  48.206  1.00  0.00     0.058 C 
HETATM   30  H15 UNL     1      13.304   2.882  50.490  1.00  0.00     0.315 HD
ENDROOT
TORSDOF 0
ENDMDL
