MODEL 1
REMARK VINA RESULT:      -7.9      0.000      0.000
REMARK  9 active torsions:
REMARK  status: ('A' for Active; 'I' for Inactive)
REMARK    1  A    between atoms: N1_2  and  C2_3 
REMARK    2  A    between atoms: C2_3  and  C3_4 
REMARK    3  A    between atoms: C3_4  and  C4_5 
REMARK    4  A    between atoms: C3_4  and  C5_8 
REMARK    5  A    between atoms: C4_5  and  N2_6 
REMARK    6  A    between atoms: C5_8  and  C6_10 
REMARK    7  A    between atoms: C9_13  and  O2_14 
REMARK    8  A    between atoms: O2_14  and  C10_15 
REMARK    9  A    between atoms: C10_15  and  C11_16 
ROOT
HETATM    1  C6  UNL     1      23.360  -0.385  53.398  1.00  0.00     0.010 A 
HETATM    2  C7  UNL     1      22.773  -1.165  54.364  1.00  0.00     0.018 A 
HETATM    3  C8  UNL     1      21.370  -1.147  54.312  1.00  0.00     0.037 A 
HETATM    4  C9  UNL     1      20.643  -0.399  53.361  1.00  0.00     0.069 A 
HETATM    5  C17 UNL     1      21.353   0.338  52.451  1.00  0.00     0.037 A 
HETATM    6  C18 UNL     1      22.729   0.373  52.435  1.00  0.00     0.018 A 
ENDROOT
BRANCH   1   7
HETATM    7  C5  UNL     1      24.795  -0.315  53.321  1.00  0.00     0.167 C 
HETATM    8  O1  UNL     1      25.261   0.361  52.338  1.00  0.00    -0.292 OA
BRANCH   7   9
HETATM    9  C3  UNL     1      26.138  -0.588  53.750  1.00  0.00     0.110 C 
BRANCH   9  10
HETATM   10  C2  UNL     1      26.897   0.741  53.878  1.00  0.00     0.283 C 
BRANCH  10  11
HETATM   11  N1  UNL     1      27.872   0.613  54.945  1.00  0.00     0.080 N 
HETATM   12  C1  UNL     1      29.144   1.155  54.457  1.00  0.00     0.306 C 
HETATM   13  H4  UNL     1      28.065  -0.384  55.144  1.00  0.00     0.315 HD
ENDBRANCH  10  11
ENDBRANCH   9  10
BRANCH   9  14
HETATM   14  C4  UNL     1      26.876  -1.363  52.666  1.00  0.00     0.187 C 
BRANCH  14  15
HETATM   15  N2  UNL     1      28.007  -2.070  53.190  1.00  0.00    -0.200 NA
HETATM   16  N3  UNL     1      28.266  -3.257  52.938  1.00  0.00    -0.209 NA
HETATM   17  H10 UNL     1      27.672  -3.829  52.318  1.00  0.00     0.211 HD
ENDBRANCH  14  15
ENDBRANCH   9  14
ENDBRANCH   7   9
ENDBRANCH   1   7
BRANCH   4  18
HETATM   18  O2  UNL     1      19.332  -0.624  53.620  1.00  0.00    -0.347 OA
BRANCH  18  19
HETATM   19  C10 UNL     1      18.212  -0.644  52.850  1.00  0.00     0.214 C 
BRANCH  19  20
HETATM   20  C11 UNL     1      17.428  -1.882  53.010  1.00  0.00    -0.034 A 
HETATM   21  C12 UNL     1      16.183  -1.903  52.386  1.00  0.00     0.009 A 
HETATM   22  C13 UNL     1      15.281  -2.964  52.386  1.00  0.00     0.001 A 
HETATM   23  C14 UNL     1      15.701  -4.103  53.092  1.00  0.00     0.000 A 
HETATM   24  C15 UNL     1      16.913  -4.169  53.736  1.00  0.00     0.001 A 
HETATM   25  C16 UNL     1      17.694  -3.046  53.647  1.00  0.00     0.009 A 
ENDBRANCH  19  20
ENDBRANCH  18  19
ENDBRANCH   4  18
TORSDOF 9
ENDMDL
MODEL 2
REMARK VINA RESULT:      -7.9      1.342      2.240
REMARK  9 active torsions:
REMARK  status: ('A' for Active; 'I' for Inactive)
REMARK    1  A    between atoms: N1_2  and  C2_3 
REMARK    2  A    between atoms: C2_3  and  C3_4 
REMARK    3  A    between atoms: C3_4  and  C4_5 
REMARK    4  A    between atoms: C3_4  and  C5_8 
REMARK    5  A    between atoms: C4_5  and  N2_6 
REMARK    6  A    between atoms: C5_8  and  C6_10 
REMARK    7  A    between atoms: C9_13  and  O2_14 
REMARK    8  A    between atoms: O2_14  and  C10_15 
REMARK    9  A    between atoms: C10_15  and  C11_16 
ROOT
HETATM    1  C6  UNL     1      23.911  -0.290  53.438  1.00  0.00     0.010 A 
HETATM    2  C7  UNL     1      23.097   0.313  52.509  1.00  0.00     0.018 A 
HETATM    3  C8  UNL     1      21.733   0.222  52.830  1.00  0.00     0.037 A 
HETATM    4  C9  UNL     1      21.254  -0.424  53.989  1.00  0.00     0.069 A 
HETATM    5  C17 UNL     1      22.175  -0.985  54.834  1.00  0.00     0.037 A 
HETATM    6  C18 UNL     1      23.529  -0.939  54.592  1.00  0.00     0.018 A 
ENDROOT
BRANCH   1   7
HETATM    7  C5  UNL     1      25.337  -0.267  53.248  1.00  0.00     0.167 C 
HETATM    8  O1  UNL     1      25.990  -1.168  53.883  1.00  0.00    -0.292 OA
BRANCH   7   9
HETATM    9  C3  UNL     1      26.572   0.225  52.706  1.00  0.00     0.110 C 
BRANCH   9  10
HETATM   10  C2  UNL     1      27.690  -0.778  53.028  1.00  0.00     0.283 C 
BRANCH  10  11
HETATM   11  N1  UNL     1      28.628  -0.146  53.938  1.00  0.00     0.080 N 
HETATM   12  C1  UNL     1      29.955  -0.708  53.674  1.00  0.00     0.306 C 
HETATM   13  H4  UNL     1      28.417  -0.406  54.917  1.00  0.00     0.315 HD
ENDBRANCH  10  11
ENDBRANCH   9  10
BRANCH   9  14
HETATM   14  C4  UNL     1      26.973   1.508  53.423  1.00  0.00     0.187 C 
BRANCH  14  15
HETATM   15  N2  UNL     1      27.805   2.341  52.606  1.00  0.00    -0.200 NA
HETATM   16  N3  UNL     1      28.880   2.834  52.978  1.00  0.00    -0.209 NA
HETATM   17  H10 UNL     1      29.259   2.674  53.924  1.00  0.00     0.211 HD
ENDBRANCH  14  15
ENDBRANCH   9  14
ENDBRANCH   7   9
ENDBRANCH   1   7
BRANCH   4  18
HETATM   18  O2  UNL     1      19.904  -0.312  53.959  1.00  0.00    -0.347 OA
BRANCH  18  19
HETATM   19  C10 UNL     1      18.984  -0.288  52.959  1.00  0.00     0.214 C 
BRANCH  19  20
HETATM   20  C11 UNL     1      18.031  -1.410  53.029  1.00  0.00    -0.034 A 
HETATM   21  C12 UNL     1      16.817  -1.225  52.371  1.00  0.00     0.009 A 
HETATM   22  C13 UNL     1      15.777  -2.148  52.289  1.00  0.00     0.001 A 
HETATM   23  C14 UNL     1      16.010  -3.368  52.942  1.00  0.00     0.000 A 
HETATM   24  C15 UNL     1      17.178  -3.635  53.615  1.00  0.00     0.001 A 
HETATM   25  C16 UNL     1      18.111  -2.630  53.608  1.00  0.00     0.009 A 
ENDBRANCH  19  20
ENDBRANCH  18  19
ENDBRANCH   4  18
TORSDOF 9
ENDMDL
MODEL 3
REMARK VINA RESULT:      -7.8      5.364      9.029
REMARK  9 active torsions:
REMARK  status: ('A' for Active; 'I' for Inactive)
REMARK    1  A    between atoms: N1_2  and  C2_3 
REMARK    2  A    between atoms: C2_3  and  C3_4 
REMARK    3  A    between atoms: C3_4  and  C4_5 
REMARK    4  A    between atoms: C3_4  and  C5_8 
REMARK    5  A    between atoms: C4_5  and  N2_6 
REMARK    6  A    between atoms: C5_8  and  C6_10 
REMARK    7  A    between atoms: C9_13  and  O2_14 
REMARK    8  A    between atoms: O2_14  and  C10_15 
REMARK    9  A    between atoms: C10_15  and  C11_16 
ROOT
HETATM    1  C6  UNL     1      25.469   1.373  51.862  1.00  0.00     0.010 A 
HETATM    2  C7  UNL     1      26.628   1.914  51.361  1.00  0.00     0.018 A 
HETATM    3  C8  UNL     1      26.401   2.932  50.421  1.00  0.00     0.037 A 
HETATM    4  C9  UNL     1      25.111   3.352  50.035  1.00  0.00     0.069 A 
HETATM    5  C17 UNL     1      24.037   2.728  50.613  1.00  0.00     0.037 A 
HETATM    6  C18 UNL     1      24.174   1.722  51.542  1.00  0.00     0.018 A 
ENDROOT
BRANCH   1   7
HETATM    7  C5  UNL     1      25.545   0.325  52.844  1.00  0.00     0.167 C 
HETATM    8  O1  UNL     1      24.463   0.097  53.491  1.00  0.00    -0.292 OA
BRANCH   7   9
HETATM    9  C3  UNL     1      26.192  -0.716  53.593  1.00  0.00     0.110 C 
BRANCH   9  10
HETATM   10  C2  UNL     1      26.905  -0.088  54.800  1.00  0.00     0.283 C 
BRANCH  10  11
HETATM   11  N1  UNL     1      28.332  -0.317  54.661  1.00  0.00     0.080 N 
HETATM   12  C1  UNL     1      28.995   0.990  54.631  1.00  0.00     0.306 C 
HETATM   13  H4  UNL     1      28.545  -0.746  53.744  1.00  0.00     0.315 HD
ENDBRANCH  10  11
ENDBRANCH   9  10
BRANCH   9  14
HETATM   14  C4  UNL     1      27.303  -1.337  52.755  1.00  0.00     0.187 C 
BRANCH  14  15
HETATM   15  N2  UNL     1      27.483  -2.727  53.053  1.00  0.00    -0.200 NA
HETATM   16  N3  UNL     1      28.575  -3.246  53.330  1.00  0.00    -0.209 NA
HETATM   17  H10 UNL     1      29.449  -2.699  53.370  1.00  0.00     0.211 HD
ENDBRANCH  14  15
ENDBRANCH   9  14
ENDBRANCH   7   9
ENDBRANCH   1   7
BRANCH   4  18
HETATM   18  O2  UNL     1      25.286   4.338  49.122  1.00  0.00    -0.347 OA
BRANCH  18  19
HETATM   19  C10 UNL     1      25.375   5.691  49.205  1.00  0.00     0.214 C 
BRANCH  19  20
HETATM   20  C11 UNL     1      26.584   6.228  48.554  1.00  0.00    -0.034 A 
HETATM   21  C12 UNL     1      27.716   5.419  48.604  1.00  0.00     0.009 A 
HETATM   22  C13 UNL     1      28.960   5.709  48.047  1.00  0.00     0.001 A 
HETATM   23  C14 UNL     1      29.040   6.941  47.380  1.00  0.00     0.000 A 
HETATM   24  C15 UNL     1      27.973   7.800  47.282  1.00  0.00     0.001 A 
HETATM   25  C16 UNL     1      26.813   7.378  47.879  1.00  0.00     0.009 A 
ENDBRANCH  19  20
ENDBRANCH  18  19
ENDBRANCH   4  18
TORSDOF 9
ENDMDL
MODEL 4
REMARK VINA RESULT:      -7.6      1.562      2.756
REMARK  9 active torsions:
REMARK  status: ('A' for Active; 'I' for Inactive)
REMARK    1  A    between atoms: N1_2  and  C2_3 
REMARK    2  A    between atoms: C2_3  and  C3_4 
REMARK    3  A    between atoms: C3_4  and  C4_5 
REMARK    4  A    between atoms: C3_4  and  C5_8 
REMARK    5  A    between atoms: C4_5  and  N2_6 
REMARK    6  A    between atoms: C5_8  and  C6_10 
REMARK    7  A    between atoms: C9_13  and  O2_14 
REMARK    8  A    between atoms: O2_14  and  C10_15 
REMARK    9  A    between atoms: C10_15  and  C11_16 
ROOT
HETATM    1  C6  UNL     1      24.386  -0.196  53.788  1.00  0.00     0.010 A 
HETATM    2  C7  UNL     1      23.760   0.550  52.819  1.00  0.00     0.018 A 
HETATM    3  C8  UNL     1      22.360   0.459  52.870  1.00  0.00     0.037 A 
HETATM    4  C9  UNL     1      21.672  -0.323  53.821  1.00  0.00     0.069 A 
HETATM    5  C17 UNL     1      22.419  -1.021  54.734  1.00  0.00     0.037 A 
HETATM    6  C18 UNL     1      23.794  -0.984  54.752  1.00  0.00     0.018 A 
ENDROOT
BRANCH   1   7
HETATM    7  C5  UNL     1      25.822  -0.192  53.866  1.00  0.00     0.167 C 
HETATM    8  O1  UNL     1      26.313  -0.541  54.997  1.00  0.00    -0.292 OA
BRANCH   7   9
HETATM    9  C3  UNL     1      27.155  -0.006  53.363  1.00  0.00     0.110 C 
BRANCH   9  10
HETATM   10  C2  UNL     1      28.130   0.035  54.549  1.00  0.00     0.283 C 
BRANCH  10  11
HETATM   11  N1  UNL     1      29.466  -0.249  54.056  1.00  0.00     0.080 N 
HETATM   12  C1  UNL     1      29.431  -1.556  53.396  1.00  0.00     0.306 C 
HETATM   13  H4  UNL     1      30.127  -0.364  54.843  1.00  0.00     0.315 HD
ENDBRANCH  10  11
ENDBRANCH   9  10
BRANCH   9  14
HETATM   14  C4  UNL     1      27.270   1.365  52.707  1.00  0.00     0.187 C 
BRANCH  14  15
HETATM   15  N2  UNL     1      28.066   2.266  53.488  1.00  0.00    -0.200 NA
HETATM   16  N3  UNL     1      29.001   2.942  53.035  1.00  0.00    -0.209 NA
HETATM   17  H10 UNL     1      29.276   2.905  52.041  1.00  0.00     0.211 HD
ENDBRANCH  14  15
ENDBRANCH   9  14
ENDBRANCH   7   9
ENDBRANCH   1   7
BRANCH   4  18
HETATM   18  O2  UNL     1      20.351  -0.167  53.561  1.00  0.00    -0.347 OA
BRANCH  18  19
HETATM   19  C10 UNL     1      19.650   0.266  52.480  1.00  0.00     0.214 C 
BRANCH  19  20
HETATM   20  C11 UNL     1      18.363  -0.434  52.314  1.00  0.00    -0.034 A 
HETATM   21  C12 UNL     1      18.137  -1.511  53.167  1.00  0.00     0.009 A 
HETATM   22  C13 UNL     1      16.994  -2.306  53.204  1.00  0.00     0.001 A 
HETATM   23  C14 UNL     1      15.997  -1.958  52.279  1.00  0.00     0.000 A 
HETATM   24  C15 UNL     1      16.136  -0.910  51.400  1.00  0.00     0.001 A 
HETATM   25  C16 UNL     1      17.317  -0.219  51.483  1.00  0.00     0.009 A 
ENDBRANCH  19  20
ENDBRANCH  18  19
ENDBRANCH   4  18
TORSDOF 9
ENDMDL
MODEL 5
REMARK VINA RESULT:      -7.5      1.567      2.011
REMARK  9 active torsions:
REMARK  status: ('A' for Active; 'I' for Inactive)
REMARK    1  A    between atoms: N1_2  and  C2_3 
REMARK    2  A    between atoms: C2_3  and  C3_4 
REMARK    3  A    between atoms: C3_4  and  C4_5 
REMARK    4  A    between atoms: C3_4  and  C5_8 
REMARK    5  A    between atoms: C4_5  and  N2_6 
REMARK    6  A    between atoms: C5_8  and  C6_10 
REMARK    7  A    between atoms: C9_13  and  O2_14 
REMARK    8  A    between atoms: O2_14  and  C10_15 
REMARK    9  A    between atoms: C10_15  and  C11_16 
ROOT
HETATM    1  C6  UNL     1      24.078  -0.165  53.283  1.00  0.00     0.010 A 
HETATM    2  C7  UNL     1      23.004  -1.021  53.268  1.00  0.00     0.018 A 
HETATM    3  C8  UNL     1      21.817  -0.408  52.836  1.00  0.00     0.037 A 
HETATM    4  C9  UNL     1      21.742   0.949  52.457  1.00  0.00     0.069 A 
HETATM    5  C17 UNL     1      22.891   1.693  52.519  1.00  0.00     0.037 A 
HETATM    6  C18 UNL     1      24.094   1.168  52.930  1.00  0.00     0.018 A 
ENDROOT
BRANCH   1   7
HETATM    7  C5  UNL     1      25.367  -0.656  53.694  1.00  0.00     0.167 C 
HETATM    8  O1  UNL     1      25.484  -0.914  54.943  1.00  0.00    -0.292 OA
BRANCH   7   9
HETATM    9  C3  UNL     1      26.729  -1.065  53.497  1.00  0.00     0.110 C 
BRANCH   9  10
HETATM   10  C2  UNL     1      27.510   0.098  52.866  1.00  0.00     0.283 C 
BRANCH  10  11
HETATM   11  N1  UNL     1      28.878   0.048  53.346  1.00  0.00     0.080 N 
HETATM   12  C1  UNL     1      28.843   0.129  54.809  1.00  0.00     0.306 C 
HETATM   13  H4  UNL     1      29.401   0.889  53.044  1.00  0.00     0.315 HD
ENDBRANCH  10  11
ENDBRANCH   9  10
BRANCH   9  14
HETATM   14  C4  UNL     1      26.786  -2.186  52.467  1.00  0.00     0.187 C 
BRANCH  14  15
HETATM   15  N2  UNL     1      28.081  -2.799  52.414  1.00  0.00    -0.200 NA
HETATM   16  N3  UNL     1      28.661  -3.291  53.393  1.00  0.00    -0.209 NA
HETATM   17  H10 UNL     1      28.241  -3.296  54.336  1.00  0.00     0.211 HD
ENDBRANCH  14  15
ENDBRANCH   9  14
ENDBRANCH   7   9
ENDBRANCH   1   7
BRANCH   4  18
HETATM   18  O2  UNL     1      20.453   1.177  52.106  1.00  0.00    -0.347 OA
BRANCH  18  19
HETATM   19  C10 UNL     1      19.664   0.743  51.089  1.00  0.00     0.214 C 
BRANCH  19  20
HETATM   20  C11 UNL     1      18.503  -0.036  51.557  1.00  0.00    -0.034 A 
HETATM   21  C12 UNL     1      17.411  -0.085  50.694  1.00  0.00     0.009 A 
HETATM   22  C13 UNL     1      16.217  -0.768  50.915  1.00  0.00     0.001 A 
HETATM   23  C14 UNL     1      16.146  -1.463  52.133  1.00  0.00     0.000 A 
HETATM   24  C15 UNL     1      17.177  -1.470  53.042  1.00  0.00     0.001 A 
HETATM   25  C16 UNL     1      18.289  -0.752  52.685  1.00  0.00     0.009 A 
ENDBRANCH  19  20
ENDBRANCH  18  19
ENDBRANCH   4  18
TORSDOF 9
ENDMDL
MODEL 6
REMARK VINA RESULT:      -7.3      7.098      9.755
REMARK  9 active torsions:
REMARK  status: ('A' for Active; 'I' for Inactive)
REMARK    1  A    between atoms: N1_2  and  C2_3 
REMARK    2  A    between atoms: C2_3  and  C3_4 
REMARK    3  A    between atoms: C3_4  and  C4_5 
REMARK    4  A    between atoms: C3_4  and  C5_8 
REMARK    5  A    between atoms: C4_5  and  N2_6 
REMARK    6  A    between atoms: C5_8  and  C6_10 
REMARK    7  A    between atoms: C9_13  and  O2_14 
REMARK    8  A    between atoms: O2_14  and  C10_15 
REMARK    9  A    between atoms: C10_15  and  C11_16 
ROOT
HETATM    1  C6  UNL     1      27.131   6.335  48.541  1.00  0.00     0.010 A 
HETATM    2  C7  UNL     1      25.858   6.521  49.020  1.00  0.00     0.018 A 
HETATM    3  C8  UNL     1      25.297   5.354  49.563  1.00  0.00     0.037 A 
HETATM    4  C9  UNL     1      25.977   4.119  49.607  1.00  0.00     0.069 A 
HETATM    5  C17 UNL     1      27.246   4.071  49.093  1.00  0.00     0.037 A 
HETATM    6  C18 UNL     1      27.867   5.169  48.544  1.00  0.00     0.018 A 
ENDROOT
BRANCH   1   7
HETATM    7  C5  UNL     1      27.839   7.447  47.964  1.00  0.00     0.167 C 
HETATM    8  O1  UNL     1      28.672   7.149  47.038  1.00  0.00    -0.292 OA
BRANCH   7   9
HETATM    9  C3  UNL     1      28.185   8.832  47.808  1.00  0.00     0.110 C 
BRANCH   9  10
HETATM   10  C2  UNL     1      29.620   9.044  48.316  1.00  0.00     0.283 C 
BRANCH  10  11
HETATM   11  N1  UNL     1      29.898   8.051  49.337  1.00  0.00     0.080 N 
HETATM   12  C1  UNL     1      31.347   7.837  49.371  1.00  0.00     0.306 C 
HETATM   13  H4  UNL     1      29.498   7.134  49.071  1.00  0.00     0.315 HD
ENDBRANCH  10  11
ENDBRANCH   9  10
BRANCH   9  14
HETATM   14  C4  UNL     1      27.313   9.686  48.719  1.00  0.00     0.187 C 
BRANCH  14  15
HETATM   15  N2  UNL     1      27.926   9.906  49.996  1.00  0.00    -0.200 NA
HETATM   16  N3  UNL     1      27.516   9.421  51.060  1.00  0.00    -0.209 NA
HETATM   17  H10 UNL     1      26.686   8.809  51.101  1.00  0.00     0.211 HD
ENDBRANCH  14  15
ENDBRANCH   9  14
ENDBRANCH   7   9
ENDBRANCH   1   7
BRANCH   4  18
HETATM   18  O2  UNL     1      25.131   3.236  50.191  1.00  0.00    -0.347 OA
BRANCH  18  19
HETATM   19  C10 UNL     1      24.797   2.965  51.480  1.00  0.00     0.214 C 
BRANCH  19  20
HETATM   20  C11 UNL     1      25.314   1.665  51.944  1.00  0.00    -0.034 A 
HETATM   21  C12 UNL     1      24.444   0.901  52.718  1.00  0.00     0.009 A 
HETATM   22  C13 UNL     1      24.707  -0.359  53.251  1.00  0.00     0.001 A 
HETATM   23  C14 UNL     1      25.979  -0.875  52.958  1.00  0.00     0.000 A 
HETATM   24  C15 UNL     1      26.900  -0.190  52.202  1.00  0.00     0.001 A 
HETATM   25  C16 UNL     1      26.497   1.039  51.746  1.00  0.00     0.009 A 
ENDBRANCH  19  20
ENDBRANCH  18  19
ENDBRANCH   4  18
TORSDOF 9
ENDMDL
MODEL 7
REMARK VINA RESULT:      -7.1      5.686      7.369
REMARK  9 active torsions:
REMARK  status: ('A' for Active; 'I' for Inactive)
REMARK    1  A    between atoms: N1_2  and  C2_3 
REMARK    2  A    between atoms: C2_3  and  C3_4 
REMARK    3  A    between atoms: C3_4  and  C4_5 
REMARK    4  A    between atoms: C3_4  and  C5_8 
REMARK    5  A    between atoms: C4_5  and  N2_6 
REMARK    6  A    between atoms: C5_8  and  C6_10 
REMARK    7  A    between atoms: C9_13  and  O2_14 
REMARK    8  A    between atoms: O2_14  and  C10_15 
REMARK    9  A    between atoms: C10_15  and  C11_16 
ROOT
HETATM    1  C6  UNL     1      26.152   4.233  49.502  1.00  0.00     0.010 A 
HETATM    2  C7  UNL     1      26.675   3.344  50.410  1.00  0.00     0.018 A 
HETATM    3  C8  UNL     1      25.699   2.537  51.016  1.00  0.00     0.037 A 
HETATM    4  C9  UNL     1      24.323   2.635  50.720  1.00  0.00     0.069 A 
HETATM    5  C17 UNL     1      23.935   3.567  49.793  1.00  0.00     0.037 A 
HETATM    6  C18 UNL     1      24.829   4.395  49.154  1.00  0.00     0.018 A 
ENDROOT
BRANCH   1   7
HETATM    7  C5  UNL     1      27.036   5.119  48.793  1.00  0.00     0.167 C 
HETATM    8  O1  UNL     1      28.275   4.796  48.817  1.00  0.00    -0.292 OA
BRANCH   7   9
HETATM    9  C3  UNL     1      27.367   6.266  47.994  1.00  0.00     0.110 C 
BRANCH   9  10
HETATM   10  C2  UNL     1      28.866   6.562  48.148  1.00  0.00     0.283 C 
BRANCH  10  11
HETATM   11  N1  UNL     1      29.024   7.678  49.062  1.00  0.00     0.080 N 
HETATM   12  C1  UNL     1      30.416   8.127  48.984  1.00  0.00     0.306 C 
HETATM   13  H4  UNL     1      28.897   7.368  50.041  1.00  0.00     0.315 HD
ENDBRANCH  10  11
ENDBRANCH   9  10
BRANCH   9  14
HETATM   14  C4  UNL     1      26.661   7.498  48.547  1.00  0.00     0.187 C 
BRANCH  14  15
HETATM   15  N2  UNL     1      26.344   7.354  49.937  1.00  0.00    -0.200 NA
HETATM   16  N3  UNL     1      26.583   8.212  50.800  1.00  0.00    -0.209 NA
HETATM   17  H10 UNL     1      27.036   9.110  50.572  1.00  0.00     0.211 HD
ENDBRANCH  14  15
ENDBRANCH   9  14
ENDBRANCH   7   9
ENDBRANCH   1   7
BRANCH   4  18
HETATM   18  O2  UNL     1      23.699   1.711  51.491  1.00  0.00    -0.347 OA
BRANCH  18  19
HETATM   19  C10 UNL     1      24.125   0.832  52.435  1.00  0.00     0.214 C 
BRANCH  19  20
HETATM   20  C11 UNL     1      23.018   0.100  53.077  1.00  0.00    -0.034 A 
HETATM   21  C12 UNL     1      21.748   0.324  52.550  1.00  0.00     0.009 A 
HETATM   22  C13 UNL     1      20.562  -0.265  52.981  1.00  0.00     0.001 A 
HETATM   23  C14 UNL     1      20.699  -1.165  54.049  1.00  0.00     0.000 A 
HETATM   24  C15 UNL     1      21.912  -1.446  54.629  1.00  0.00     0.001 A 
HETATM   25  C16 UNL     1      22.992  -0.789  54.096  1.00  0.00     0.009 A 
ENDBRANCH  19  20
ENDBRANCH  18  19
ENDBRANCH   4  18
TORSDOF 9
ENDMDL
MODEL 8
REMARK VINA RESULT:      -6.8      6.596      8.519
REMARK  9 active torsions:
REMARK  status: ('A' for Active; 'I' for Inactive)
REMARK    1  A    between atoms: N1_2  and  C2_3 
REMARK    2  A    between atoms: C2_3  and  C3_4 
REMARK    3  A    between atoms: C3_4  and  C4_5 
REMARK    4  A    between atoms: C3_4  and  C5_8 
REMARK    5  A    between atoms: C4_5  and  N2_6 
REMARK    6  A    between atoms: C5_8  and  C6_10 
REMARK    7  A    between atoms: C9_13  and  O2_14 
REMARK    8  A    between atoms: O2_14  and  C10_15 
REMARK    9  A    between atoms: C10_15  and  C11_16 
ROOT
HETATM    1  C6  UNL     1      26.721   5.033  48.934  1.00  0.00     0.010 A 
HETATM    2  C7  UNL     1      26.862   3.772  49.461  1.00  0.00     0.018 A 
HETATM    3  C8  UNL     1      25.645   3.212  49.882  1.00  0.00     0.037 A 
HETATM    4  C9  UNL     1      24.408   3.881  49.774  1.00  0.00     0.069 A 
HETATM    5  C17 UNL     1      24.409   5.139  49.229  1.00  0.00     0.037 A 
HETATM    6  C18 UNL     1      25.557   5.758  48.791  1.00  0.00     0.018 A 
ENDROOT
BRANCH   1   7
HETATM    7  C5  UNL     1      27.883   5.730  48.450  1.00  0.00     0.167 C 
HETATM    8  O1  UNL     1      28.949   5.026  48.360  1.00  0.00    -0.292 OA
BRANCH   7   9
HETATM    9  C3  UNL     1      28.612   6.867  47.960  1.00  0.00     0.110 C 
BRANCH   9  10
HETATM   10  C2  UNL     1      30.092   6.706  48.336  1.00  0.00     0.283 C 
BRANCH  10  11
HETATM   11  N1  UNL     1      30.403   7.646  49.397  1.00  0.00     0.080 N 
HETATM   12  C1  UNL     1      31.854   7.848  49.407  1.00  0.00     0.306 C 
HETATM   13  H4  UNL     1      30.183   7.236  50.322  1.00  0.00     0.315 HD
ENDBRANCH  10  11
ENDBRANCH   9  10
BRANCH   9  14
HETATM   14  C4  UNL     1      28.153   8.124  48.687  1.00  0.00     0.187 C 
BRANCH  14  15
HETATM   15  N2  UNL     1      28.155   9.271  47.827  1.00  0.00    -0.200 NA
HETATM   16  N3  UNL     1      29.163   9.940  47.557  1.00  0.00    -0.209 NA
HETATM   17  H10 UNL     1      30.093   9.711  47.941  1.00  0.00     0.211 HD
ENDBRANCH  14  15
ENDBRANCH   9  14
ENDBRANCH   7   9
ENDBRANCH   1   7
BRANCH   4  18
HETATM   18  O2  UNL     1      23.473   3.040  50.277  1.00  0.00    -0.347 OA
BRANCH  18  19
HETATM   19  C10 UNL     1      22.761   3.010  51.434  1.00  0.00     0.214 C 
BRANCH  19  20
HETATM   20  C11 UNL     1      23.022   1.802  52.237  1.00  0.00    -0.034 A 
HETATM   21  C12 UNL     1      21.911   1.213  52.836  1.00  0.00     0.009 A 
HETATM   22  C13 UNL     1      21.913   0.062  53.622  1.00  0.00     0.001 A 
HETATM   23  C14 UNL     1      23.172  -0.532  53.804  1.00  0.00     0.000 A 
HETATM   24  C15 UNL     1      24.319  -0.019  53.249  1.00  0.00     0.001 A 
HETATM   25  C16 UNL     1      24.160   1.118  52.499  1.00  0.00     0.009 A 
ENDBRANCH  19  20
ENDBRANCH  18  19
ENDBRANCH   4  18
TORSDOF 9
ENDMDL
MODEL 9
REMARK VINA RESULT:      -6.7      6.816      9.664
REMARK  9 active torsions:
REMARK  status: ('A' for Active; 'I' for Inactive)
REMARK    1  A    between atoms: N1_2  and  C2_3 
REMARK    2  A    between atoms: C2_3  and  C3_4 
REMARK    3  A    between atoms: C3_4  and  C4_5 
REMARK    4  A    between atoms: C3_4  and  C5_8 
REMARK    5  A    between atoms: C4_5  and  N2_6 
REMARK    6  A    between atoms: C5_8  and  C6_10 
REMARK    7  A    between atoms: C9_13  and  O2_14 
REMARK    8  A    between atoms: O2_14  and  C10_15 
REMARK    9  A    between atoms: C10_15  and  C11_16 
ROOT
HETATM    1  C6  UNL     1      26.771   5.489  48.954  1.00  0.00     0.010 A 
HETATM    2  C7  UNL     1      27.232   4.195  48.926  1.00  0.00     0.018 A 
HETATM    3  C8  UNL     1      26.412   3.303  49.634  1.00  0.00     0.037 A 
HETATM    4  C9  UNL     1      25.236   3.701  50.305  1.00  0.00     0.069 A 
HETATM    5  C17 UNL     1      24.890   5.026  50.253  1.00  0.00     0.037 A 
HETATM    6  C18 UNL     1      25.639   5.963  49.580  1.00  0.00     0.018 A 
ENDROOT
BRANCH   1   7
HETATM    7  C5  UNL     1      27.504   6.515  48.261  1.00  0.00     0.167 C 
HETATM    8  O1  UNL     1      26.792   7.346  47.595  1.00  0.00    -0.292 OA
BRANCH   7   9
HETATM    9  C3  UNL     1      28.685   7.217  47.842  1.00  0.00     0.110 C 
BRANCH   9  10
HETATM   10  C2  UNL     1      29.907   6.317  48.080  1.00  0.00     0.283 C 
BRANCH  10  11
HETATM   11  N1  UNL     1      30.517   6.693  49.343  1.00  0.00     0.080 N 
HETATM   12  C1  UNL     1      31.763   5.935  49.482  1.00  0.00     0.306 C 
HETATM   13  H4  UNL     1      29.927   6.387  50.137  1.00  0.00     0.315 HD
ENDBRANCH  10  11
ENDBRANCH   9  10
BRANCH   9  14
HETATM   14  C4  UNL     1      28.907   8.430  48.736  1.00  0.00     0.187 C 
BRANCH  14  15
HETATM   15  N2  UNL     1      29.693   9.437  48.087  1.00  0.00    -0.200 NA
HETATM   16  N3  UNL     1      30.852   9.735  48.412  1.00  0.00    -0.209 NA
HETATM   17  H10 UNL     1      31.343   9.266  49.189  1.00  0.00     0.211 HD
ENDBRANCH  14  15
ENDBRANCH   9  14
ENDBRANCH   7   9
ENDBRANCH   1   7
BRANCH   4  18
HETATM   18  O2  UNL     1      24.719   2.582  50.868  1.00  0.00    -0.347 OA
BRANCH  18  19
HETATM   19  C10 UNL     1      24.633   2.125  52.145  1.00  0.00     0.214 C 
BRANCH  19  20
HETATM   20  C11 UNL     1      25.890   1.520  52.624  1.00  0.00    -0.034 A 
HETATM   21  C12 UNL     1      26.093   0.184  52.287  1.00  0.00     0.009 A 
HETATM   22  C13 UNL     1      27.206  -0.586  52.614  1.00  0.00     0.001 A 
HETATM   23  C14 UNL     1      28.196   0.082  53.352  1.00  0.00     0.000 A 
HETATM   24  C15 UNL     1      28.078   1.398  53.725  1.00  0.00     0.001 A 
HETATM   25  C16 UNL     1      26.926   2.027  53.330  1.00  0.00     0.009 A 
ENDBRANCH  19  20
ENDBRANCH  18  19
ENDBRANCH   4  18
TORSDOF 9
ENDMDL
