MODEL 1
REMARK VINA RESULT:      -7.4      0.000      0.000
REMARK  1 active torsions:
REMARK  status: ('A' for Active; 'I' for Inactive)
REMARK    1  A    between atoms: O1_2  and  C2_3 
ROOT
HETATM    1  C2  UNL     1      25.162   3.572  50.022  1.00  0.00     0.077 C 
HETATM    2  C3  UNL     1      23.943   3.577  49.510  1.00  0.00     0.030 C 
HETATM    3  C4  UNL     1      23.018   2.471  49.906  1.00  0.00     0.055 C 
HETATM    4  N1  UNL     1      22.531   1.760  48.905  1.00  0.00    -0.263 NA
HETATM    5  C5  UNL     1      21.943   2.305  47.693  1.00  0.00     0.126 C 
HETATM    6  C6  UNL     1      21.861   3.582  47.223  1.00  0.00    -0.017 C 
HETATM    7  C7  UNL     1      21.259   3.934  45.945  1.00  0.00     0.052 C 
HETATM    8  C8  UNL     1      22.388   4.769  47.967  1.00  0.00     0.047 C 
HETATM    9  C9  UNL     1      23.601   4.680  48.556  1.00  0.00     0.002 C 
HETATM   10  C10 UNL     1      24.676   5.668  48.280  1.00  0.00     0.177 C 
HETATM   11  N2  UNL     1      25.556   5.855  49.381  1.00  0.00    -0.310 N 
HETATM   12  C11 UNL     1      25.799   7.065  50.039  1.00  0.00     0.180 C 
HETATM   13  N3  UNL     1      26.017   8.059  50.586  1.00  0.00    -0.172 NA
HETATM   14  C12 UNL     1      26.183   4.583  49.735  1.00  0.00     0.200 C 
HETATM   15  N4  UNL     1      21.377   5.801  47.887  1.00  0.00    -0.373 N 
HETATM   16  C13 UNL     1      20.362   5.521  46.907  1.00  0.00     0.150 C 
HETATM   17  C14 UNL     1      19.108   4.956  47.610  1.00  0.00    -0.004 C 
HETATM   18  C15 UNL     1      19.016   4.822  48.927  1.00  0.00     0.034 C 
HETATM   19  C16 UNL     1      19.816   5.419  50.032  1.00  0.00     0.073 C 
HETATM   20  C17 UNL     1      20.460   6.604  49.874  1.00  0.00     0.030 C 
HETATM   21  C18 UNL     1      21.602   6.883  48.901  1.00  0.00     0.153 C 
HETATM   22  O2  UNL     1      19.795   4.610  51.171  1.00  0.00    -0.315 OA
HETATM   23  C19 UNL     1      20.876   3.801  51.508  1.00  0.00     0.054 C 
HETATM   24  C20 UNL     1      21.833   4.529  52.107  1.00  0.00     0.032 C 
HETATM   25  C21 UNL     1      23.103   3.926  52.564  1.00  0.00    -0.001 C 
HETATM   26  C22 UNL     1      23.225   2.624  52.341  1.00  0.00    -0.015 C 
HETATM   27  C23 UNL     1      22.509   1.984  51.238  1.00  0.00     0.067 C 
HETATM   28  C24 UNL     1      21.020   2.357  51.274  1.00  0.00     0.079 C 
ENDROOT
BRANCH   1  29
HETATM   29  O1  UNL     1      25.525   2.557  50.888  1.00  0.00    -0.358 OA
HETATM   30  C1  UNL     1      26.777   2.443  51.479  1.00  0.00     0.209 C 
ENDBRANCH   1  29
TORSDOF 1
ENDMDL
MODEL 2
REMARK VINA RESULT:      -7.2      7.538     10.068
REMARK  1 active torsions:
REMARK  status: ('A' for Active; 'I' for Inactive)
REMARK    1  A    between atoms: O1_2  and  C2_3 
ROOT
HETATM    1  C2  UNL     1      32.571   5.741  45.662  1.00  0.00     0.077 C 
HETATM    2  C3  UNL     1      31.637   6.300  46.412  1.00  0.00     0.030 C 
HETATM    3  C4  UNL     1      31.392   5.719  47.767  1.00  0.00     0.055 C 
HETATM    4  N1  UNL     1      30.154   5.320  47.992  1.00  0.00    -0.263 NA
HETATM    5  C5  UNL     1      28.956   6.092  47.710  1.00  0.00     0.126 C 
HETATM    6  C6  UNL     1      28.777   7.280  47.063  1.00  0.00    -0.017 C 
HETATM    7  C7  UNL     1      27.472   7.887  46.838  1.00  0.00     0.052 C 
HETATM    8  C8  UNL     1      29.903   8.090  46.503  1.00  0.00     0.047 C 
HETATM    9  C9  UNL     1      30.886   7.457  45.826  1.00  0.00     0.002 C 
HETATM   10  C10 UNL     1      31.272   7.864  44.450  1.00  0.00     0.177 C 
HETATM   11  N2  UNL     1      32.642   7.616  44.160  1.00  0.00    -0.310 N 
HETATM   12  C11 UNL     1      33.585   8.577  43.782  1.00  0.00     0.180 C 
HETATM   13  N3  UNL     1      34.373   9.358  43.459  1.00  0.00    -0.172 NA
HETATM   14  C12 UNL     1      32.931   6.192  44.315  1.00  0.00     0.200 C 
HETATM   15  N4  UNL     1      29.657   9.468  46.875  1.00  0.00    -0.373 N 
HETATM   16  C13 UNL     1      28.323   9.689  47.364  1.00  0.00     0.150 C 
HETATM   17  C14 UNL     1      28.340   9.734  48.907  1.00  0.00    -0.004 C 
HETATM   18  C15 UNL     1      29.454   9.631  49.621  1.00  0.00     0.034 C 
HETATM   19  C16 UNL     1      30.883   9.786  49.236  1.00  0.00     0.073 C 
HETATM   20  C17 UNL     1      31.248  10.560  48.182  1.00  0.00     0.030 C 
HETATM   21  C18 UNL     1      30.885  10.315  46.719  1.00  0.00     0.153 C 
HETATM   22  O2  UNL     1      31.721   9.052  50.079  1.00  0.00    -0.315 OA
HETATM   23  C19 UNL     1      32.273   7.838  49.680  1.00  0.00     0.054 C 
HETATM   24  C20 UNL     1      33.339   8.049  48.891  1.00  0.00     0.032 C 
HETATM   25  C21 UNL     1      34.116   6.934  48.311  1.00  0.00    -0.001 C 
HETATM   26  C22 UNL     1      33.685   5.719  48.626  1.00  0.00    -0.015 C 
HETATM   27  C23 UNL     1      32.281   5.488  48.962  1.00  0.00     0.067 C 
HETATM   28  C24 UNL     1      31.810   6.488  50.028  1.00  0.00     0.079 C 
ENDROOT
BRANCH   1  29
HETATM   29  O1  UNL     1      33.272   4.655  46.156  1.00  0.00    -0.358 OA
HETATM   30  C1  UNL     1      34.384   4.096  45.541  1.00  0.00     0.209 C 
ENDBRANCH   1  29
TORSDOF 1
ENDMDL
MODEL 3
REMARK VINA RESULT:      -7.2      2.050      5.489
REMARK  1 active torsions:
REMARK  status: ('A' for Active; 'I' for Inactive)
REMARK    1  A    between atoms: O1_2  and  C2_3 
ROOT
HETATM    1  C2  UNL     1      22.409   5.823  46.482  1.00  0.00     0.077 C 
HETATM    2  C3  UNL     1      22.970   5.497  47.635  1.00  0.00     0.030 C 
HETATM    3  C4  UNL     1      23.669   6.577  48.397  1.00  0.00     0.055 C 
HETATM    4  N1  UNL     1      24.939   6.340  48.669  1.00  0.00    -0.263 NA
HETATM    5  C5  UNL     1      25.465   5.106  49.227  1.00  0.00     0.126 C 
HETATM    6  C6  UNL     1      24.875   3.902  49.476  1.00  0.00    -0.017 C 
HETATM    7  C7  UNL     1      25.587   2.750  50.010  1.00  0.00     0.052 C 
HETATM    8  C8  UNL     1      23.427   3.627  49.219  1.00  0.00     0.047 C 
HETATM    9  C9  UNL     1      22.876   4.065  48.066  1.00  0.00     0.002 C 
HETATM   10  C10 UNL     1      22.154   3.147  47.148  1.00  0.00     0.177 C 
HETATM   11  N2  UNL     1      21.122   3.793  46.412  1.00  0.00    -0.310 N 
HETATM   12  C11 UNL     1      19.766   3.452  46.432  1.00  0.00     0.180 C 
HETATM   13  N3  UNL     1      18.645   3.174  46.430  1.00  0.00    -0.172 NA
HETATM   14  C12 UNL     1      21.687   4.883  45.620  1.00  0.00     0.200 C 
HETATM   15  N4  UNL     1      22.920   2.918  50.375  1.00  0.00    -0.373 N 
HETATM   16  C13 UNL     1      23.963   2.431  51.238  1.00  0.00     0.150 C 
HETATM   17  C14 UNL     1      24.127   3.386  52.441  1.00  0.00    -0.004 C 
HETATM   18  C15 UNL     1      23.358   4.452  52.627  1.00  0.00     0.034 C 
HETATM   19  C16 UNL     1      22.043   4.827  52.038  1.00  0.00     0.073 C 
HETATM   20  C17 UNL     1      21.179   3.883  51.587  1.00  0.00     0.030 C 
HETATM   21  C18 UNL     1      21.421   2.926  50.422  1.00  0.00     0.153 C 
HETATM   22  O2  UNL     1      21.867   6.214  52.028  1.00  0.00    -0.315 OA
HETATM   23  C19 UNL     1      22.027   6.959  50.863  1.00  0.00     0.054 C 
HETATM   24  C20 UNL     1      20.928   6.866  50.097  1.00  0.00     0.032 C 
HETATM   25  C21 UNL     1      20.826   7.551  48.791  1.00  0.00    -0.001 C 
HETATM   26  C22 UNL     1      21.891   8.259  48.437  1.00  0.00    -0.015 C 
HETATM   27  C23 UNL     1      23.220   7.910  48.936  1.00  0.00     0.067 C 
HETATM   28  C24 UNL     1      23.197   7.753  50.464  1.00  0.00     0.079 C 
ENDROOT
BRANCH   1  29
HETATM   29  O1  UNL     1      22.493   7.128  46.036  1.00  0.00    -0.358 OA
HETATM   30  C1  UNL     1      23.076   7.509  44.834  1.00  0.00     0.209 C 
ENDBRANCH   1  29
TORSDOF 1
ENDMDL
MODEL 4
REMARK VINA RESULT:      -7.1      2.459      5.520
REMARK  1 active torsions:
REMARK  status: ('A' for Active; 'I' for Inactive)
REMARK    1  A    between atoms: O1_2  and  C2_3 
ROOT
HETATM    1  C2  UNL     1      19.251   2.297  51.791  1.00  0.00     0.077 C 
HETATM    2  C3  UNL     1      20.116   3.177  51.317  1.00  0.00     0.030 C 
HETATM    3  C4  UNL     1      21.567   2.939  51.586  1.00  0.00     0.055 C 
HETATM    4  N1  UNL     1      22.190   3.919  52.215  1.00  0.00    -0.263 NA
HETATM    5  C5  UNL     1      22.115   5.327  51.864  1.00  0.00     0.126 C 
HETATM    6  C6  UNL     1      21.342   5.994  50.960  1.00  0.00    -0.017 C 
HETATM    7  C7  UNL     1      21.380   7.438  50.776  1.00  0.00     0.052 C 
HETATM    8  C8  UNL     1      20.361   5.315  50.057  1.00  0.00     0.047 C 
HETATM    9  C9  UNL     1      19.563   4.352  50.569  1.00  0.00     0.002 C 
HETATM   10  C10 UNL     1      18.085   4.411  50.434  1.00  0.00     0.177 C 
HETATM   11  N2  UNL     1      17.479   3.125  50.392  1.00  0.00    -0.310 N 
HETATM   12  C11 UNL     1      16.693   2.623  49.350  1.00  0.00     0.180 C 
HETATM   13  N3  UNL     1      16.033   2.200  48.501  1.00  0.00    -0.172 NA
HETATM   14  C12 UNL     1      17.799   2.387  51.613  1.00  0.00     0.200 C 
HETATM   15  N4  UNL     1      20.535   5.886  48.738  1.00  0.00    -0.373 N 
HETATM   16  C13 UNL     1      21.324   7.089  48.745  1.00  0.00     0.150 C 
HETATM   17  C14 UNL     1      22.770   6.760  48.316  1.00  0.00    -0.004 C 
HETATM   18  C15 UNL     1      23.158   5.544  47.954  1.00  0.00     0.034 C 
HETATM   19  C16 UNL     1      22.374   4.346  47.545  1.00  0.00     0.073 C 
HETATM   20  C17 UNL     1      21.141   4.468  46.991  1.00  0.00     0.030 C 
HETATM   21  C18 UNL     1      19.901   5.039  47.675  1.00  0.00     0.153 C 
HETATM   22  O2  UNL     1      23.072   3.165  47.811  1.00  0.00    -0.315 OA
HETATM   23  C19 UNL     1      22.758   2.366  48.907  1.00  0.00     0.054 C 
HETATM   24  C20 UNL     1      21.683   1.608  48.637  1.00  0.00     0.032 C 
HETATM   25  C21 UNL     1      21.120   0.668  49.628  1.00  0.00    -0.001 C 
HETATM   26  C22 UNL     1      21.750   0.629  50.795  1.00  0.00    -0.015 C 
HETATM   27  C23 UNL     1      22.494   1.791  51.281  1.00  0.00     0.067 C 
HETATM   28  C24 UNL     1      23.454   2.308  50.200  1.00  0.00     0.079 C 
ENDROOT
BRANCH   1  29
HETATM   29  O1  UNL     1      19.717   1.211  52.508  1.00  0.00    -0.358 OA
HETATM   30  C1  UNL     1      19.014   0.026  52.680  1.00  0.00     0.209 C 
ENDBRANCH   1  29
TORSDOF 1
ENDMDL
MODEL 5
REMARK VINA RESULT:      -7.0      2.063      5.141
REMARK  1 active torsions:
REMARK  status: ('A' for Active; 'I' for Inactive)
REMARK    1  A    between atoms: O1_2  and  C2_3 
ROOT
HETATM    1  C2  UNL     1      21.282   7.274  50.174  1.00  0.00     0.077 C 
HETATM    2  C3  UNL     1      21.003   5.983  50.238  1.00  0.00     0.030 C 
HETATM    3  C4  UNL     1      19.771   5.504  49.541  1.00  0.00     0.055 C 
HETATM    4  N1  UNL     1      18.900   4.876  50.308  1.00  0.00    -0.263 NA
HETATM    5  C5  UNL     1      19.217   3.815  51.250  1.00  0.00     0.126 C 
HETATM    6  C6  UNL     1      20.410   3.309  51.673  1.00  0.00    -0.017 C 
HETATM    7  C7  UNL     1      20.531   2.255  52.671  1.00  0.00     0.052 C 
HETATM    8  C8  UNL     1      21.734   3.787  51.165  1.00  0.00     0.047 C 
HETATM    9  C9  UNL     1      21.936   5.115  51.026  1.00  0.00     0.002 C 
HETATM   10  C10 UNL     1      23.093   5.799  51.661  1.00  0.00     0.177 C 
HETATM   11  N2  UNL     1      23.539   6.934  50.929  1.00  0.00    -0.310 N 
HETATM   12  C11 UNL     1      24.822   7.116  50.403  1.00  0.00     0.180 C 
HETATM   13  N3  UNL     1      25.881   7.285  49.972  1.00  0.00    -0.172 NA
HETATM   14  C12 UNL     1      22.450   7.900  50.801  1.00  0.00     0.200 C 
HETATM   15  N4  UNL     1      22.535   2.610  50.901  1.00  0.00    -0.373 N 
HETATM   16  C13 UNL     1      21.980   1.412  51.472  1.00  0.00     0.150 C 
HETATM   17  C14 UNL     1      21.236   0.615  50.378  1.00  0.00    -0.004 C 
HETATM   18  C15 UNL     1      21.192   0.999  49.108  1.00  0.00     0.034 C 
HETATM   19  C16 UNL     1      22.023   1.973  48.349  1.00  0.00     0.073 C 
HETATM   20  C17 UNL     1      23.296   2.257  48.726  1.00  0.00     0.030 C 
HETATM   21  C18 UNL     1      23.718   2.923  50.033  1.00  0.00     0.153 C 
HETATM   22  O2  UNL     1      21.321   2.507  47.265  1.00  0.00    -0.315 OA
HETATM   23  C19 UNL     1      20.772   3.785  47.312  1.00  0.00     0.054 C 
HETATM   24  C20 UNL     1      21.722   4.707  47.083  1.00  0.00     0.032 C 
HETATM   25  C21 UNL     1      21.423   6.154  47.084  1.00  0.00    -0.001 C 
HETATM   26  C22 UNL     1      20.158   6.472  47.325  1.00  0.00    -0.015 C 
HETATM   27  C23 UNL     1      19.302   5.584  48.111  1.00  0.00     0.067 C 
HETATM   28  C24 UNL     1      19.373   4.149  47.570  1.00  0.00     0.079 C 
ENDROOT
BRANCH   1  29
HETATM   29  O1  UNL     1      20.434   8.114  49.477  1.00  0.00    -0.358 OA
HETATM   30  C1  UNL     1      19.747   9.180  50.044  1.00  0.00     0.209 C 
ENDBRANCH   1  29
TORSDOF 1
ENDMDL
MODEL 6
REMARK VINA RESULT:      -6.8      2.350      5.798
REMARK  1 active torsions:
REMARK  status: ('A' for Active; 'I' for Inactive)
REMARK    1  A    between atoms: O1_2  and  C2_3 
ROOT
HETATM    1  C2  UNL     1      17.995   3.973  51.037  1.00  0.00     0.077 C 
HETATM    2  C3  UNL     1      19.312   4.065  50.978  1.00  0.00     0.030 C 
HETATM    3  C4  UNL     1      20.110   3.224  51.922  1.00  0.00     0.055 C 
HETATM    4  N1  UNL     1      20.936   3.891  52.707  1.00  0.00    -0.263 NA
HETATM    5  C5  UNL     1      21.862   4.924  52.273  1.00  0.00     0.126 C 
HETATM    6  C6  UNL     1      22.029   5.540  51.069  1.00  0.00    -0.017 C 
HETATM    7  C7  UNL     1      22.999   6.600  50.832  1.00  0.00     0.052 C 
HETATM    8  C8  UNL     1      21.225   5.202  49.853  1.00  0.00     0.047 C 
HETATM    9  C9  UNL     1      19.892   5.023  49.983  1.00  0.00     0.002 C 
HETATM   10  C10 UNL     1      18.919   5.780  49.154  1.00  0.00     0.177 C 
HETATM   11  N2  UNL     1      17.716   5.061  48.911  1.00  0.00    -0.310 N 
HETATM   12  C11 UNL     1      17.209   4.715  47.654  1.00  0.00     0.180 C 
HETATM   13  N3  UNL     1      16.772   4.432  46.623  1.00  0.00    -0.172 NA
HETATM   14  C12 UNL     1      17.074   4.727  50.181  1.00  0.00     0.200 C 
HETATM   15  N4  UNL     1      22.152   5.119  48.744  1.00  0.00    -0.373 N 
HETATM   16  C13 UNL     1      23.446   5.667  49.049  1.00  0.00     0.150 C 
HETATM   17  C14 UNL     1      24.426   4.522  49.386  1.00  0.00    -0.004 C 
HETATM   18  C15 UNL     1      24.085   3.240  49.332  1.00  0.00     0.034 C 
HETATM   19  C16 UNL     1      22.936   2.558  48.677  1.00  0.00     0.073 C 
HETATM   20  C17 UNL     1      22.320   3.098  47.595  1.00  0.00     0.030 C 
HETATM   21  C18 UNL     1      21.549   4.415  47.564  1.00  0.00     0.153 C 
HETATM   22  O2  UNL     1      22.622   1.358  49.320  1.00  0.00    -0.315 OA
HETATM   23  C19 UNL     1      21.533   1.257  50.182  1.00  0.00     0.054 C 
HETATM   24  C20 UNL     1      20.396   1.118  49.480  1.00  0.00     0.032 C 
HETATM   25  C21 UNL     1      19.080   0.999  50.141  1.00  0.00    -0.001 C 
HETATM   26  C22 UNL     1      19.105   1.039  51.467  1.00  0.00    -0.015 C 
HETATM   27  C23 UNL     1      20.176   1.740  52.173  1.00  0.00     0.067 C 
HETATM   28  C24 UNL     1      21.549   1.292  51.650  1.00  0.00     0.079 C 
ENDROOT
BRANCH   1  29
HETATM   29  O1  UNL     1      17.418   3.117  51.957  1.00  0.00    -0.358 OA
HETATM   30  C1  UNL     1      16.056   2.856  52.039  1.00  0.00     0.209 C 
ENDBRANCH   1  29
TORSDOF 1
ENDMDL
MODEL 7
REMARK VINA RESULT:      -6.8     24.454     27.427
REMARK  1 active torsions:
REMARK  status: ('A' for Active; 'I' for Inactive)
REMARK    1  A    between atoms: O1_2  and  C2_3 
ROOT
HETATM    1  C2  UNL     1      40.239   1.901  69.903  1.00  0.00     0.077 C 
HETATM    2  C3  UNL     1      40.219   0.772  69.215  1.00  0.00     0.030 C 
HETATM    3  C4  UNL     1      41.381   0.483  68.320  1.00  0.00     0.055 C 
HETATM    4  N1  UNL     1      41.077   0.284  67.051  1.00  0.00    -0.263 NA
HETATM    5  C5  UNL     1      40.021  -0.588  66.564  1.00  0.00     0.126 C 
HETATM    6  C6  UNL     1      39.044  -1.277  67.219  1.00  0.00    -0.017 C 
HETATM    7  C7  UNL     1      38.033  -2.080  66.545  1.00  0.00     0.052 C 
HETATM    8  C8  UNL     1      38.895  -1.279  68.708  1.00  0.00     0.047 C 
HETATM    9  C9  UNL     1      39.020  -0.111  69.376  1.00  0.00     0.002 C 
HETATM   10  C10 UNL     1      37.963   0.374  70.301  1.00  0.00     0.177 C 
HETATM   11  N2  UNL     1      38.476   1.167  71.364  1.00  0.00    -0.310 N 
HETATM   12  C11 UNL     1      38.340   0.894  72.729  1.00  0.00     0.180 C 
HETATM   13  N3  UNL     1      38.226   0.686  73.860  1.00  0.00    -0.172 NA
HETATM   14  C12 UNL     1      39.180   2.328  70.822  1.00  0.00     0.200 C 
HETATM   15  N4  UNL     1      38.656  -2.650  69.106  1.00  0.00    -0.373 N 
HETATM   16  C13 UNL     1      38.331  -3.510  68.000  1.00  0.00     0.150 C 
HETATM   17  C14 UNL     1      39.584  -4.309  67.581  1.00  0.00    -0.004 C 
HETATM   18  C15 UNL     1      40.745  -4.217  68.216  1.00  0.00     0.034 C 
HETATM   19  C16 UNL     1      41.087  -3.680  69.562  1.00  0.00     0.073 C 
HETATM   20  C17 UNL     1      40.172  -3.657  70.564  1.00  0.00     0.030 C 
HETATM   21  C18 UNL     1      38.875  -2.851  70.577  1.00  0.00     0.153 C 
HETATM   22  O2  UNL     1      42.411  -3.236  69.612  1.00  0.00    -0.315 OA
HETATM   23  C19 UNL     1      42.727  -1.882  69.552  1.00  0.00     0.054 C 
HETATM   24  C20 UNL     1      42.545  -1.309  70.753  1.00  0.00     0.032 C 
HETATM   25  C21 UNL     1      42.795   0.130  70.978  1.00  0.00    -0.001 C 
HETATM   26  C22 UNL     1      43.210   0.807  69.915  1.00  0.00    -0.015 C 
HETATM   27  C23 UNL     1      42.863   0.364  68.566  1.00  0.00     0.067 C 
HETATM   28  C24 UNL     1      43.196  -1.124  68.384  1.00  0.00     0.079 C 
ENDROOT
BRANCH   1  29
HETATM   29  O1  UNL     1      41.317   2.756  69.765  1.00  0.00    -0.358 OA
HETATM   30  C1  UNL     1      41.389   4.022  70.332  1.00  0.00     0.209 C 
ENDBRANCH   1  29
TORSDOF 1
ENDMDL
MODEL 8
REMARK VINA RESULT:      -6.7      9.138     11.577
REMARK  1 active torsions:
REMARK  status: ('A' for Active; 'I' for Inactive)
REMARK    1  A    between atoms: O1_2  and  C2_3 
ROOT
HETATM    1  C2  UNL     1      32.805   5.076  45.627  1.00  0.00     0.077 C 
HETATM    2  C3  UNL     1      32.194   6.237  45.790  1.00  0.00     0.030 C 
HETATM    3  C4  UNL     1      31.743   6.598  47.168  1.00  0.00     0.055 C 
HETATM    4  N1  UNL     1      30.453   6.853  47.289  1.00  0.00    -0.263 NA
HETATM    5  C5  UNL     1      29.681   7.722  46.418  1.00  0.00     0.126 C 
HETATM    6  C6  UNL     1      30.004   8.354  45.254  1.00  0.00    -0.017 C 
HETATM    7  C7  UNL     1      29.067   9.165  44.489  1.00  0.00     0.052 C 
HETATM    8  C8  UNL     1      31.360   8.278  44.625  1.00  0.00     0.047 C 
HETATM    9  C9  UNL     1      31.986   7.082  44.570  1.00  0.00     0.002 C 
HETATM   10  C10 UNL     1      32.492   6.525  43.289  1.00  0.00     0.177 C 
HETATM   11  N2  UNL     1      33.633   5.693  43.456  1.00  0.00    -0.310 N 
HETATM   12  C11 UNL     1      34.887   5.895  42.870  1.00  0.00     0.180 C 
HETATM   13  N3  UNL     1      35.924   6.043  42.383  1.00  0.00    -0.172 NA
HETATM   14  C12 UNL     1      33.307   4.578  44.344  1.00  0.00     0.200 C 
HETATM   15  N4  UNL     1      31.712   9.622  44.216  1.00  0.00    -0.373 N 
HETATM   16  C13 UNL     1      30.594  10.527  44.237  1.00  0.00     0.150 C 
HETATM   17  C14 UNL     1      30.643  11.377  45.526  1.00  0.00    -0.004 C 
HETATM   18  C15 UNL     1      31.620  11.281  46.418  1.00  0.00     0.034 C 
HETATM   19  C16 UNL     1      32.982  10.686  46.321  1.00  0.00     0.073 C 
HETATM   20  C17 UNL     1      33.624  10.590  45.130  1.00  0.00     0.030 C 
HETATM   21  C18 UNL     1      33.179   9.754  43.934  1.00  0.00     0.153 C 
HETATM   22  O2  UNL     1      33.447  10.272  47.572  1.00  0.00    -0.315 OA
HETATM   23  C19 UNL     1      33.441   8.931  47.943  1.00  0.00     0.054 C 
HETATM   24  C20 UNL     1      34.492   8.294  47.400  1.00  0.00     0.032 C 
HETATM   25  C21 UNL     1      34.730   6.852  47.619  1.00  0.00    -0.001 C 
HETATM   26  C22 UNL     1      33.837   6.239  48.385  1.00  0.00    -0.015 C 
HETATM   27  C23 UNL     1      32.467   6.740  48.482  1.00  0.00     0.067 C 
HETATM   28  C24 UNL     1      32.464   8.243  48.798  1.00  0.00     0.079 C 
ENDROOT
BRANCH   1  29
HETATM   29  O1  UNL     1      32.997   4.255  46.723  1.00  0.00    -0.358 OA
HETATM   30  C1  UNL     1      32.575   2.934  46.795  1.00  0.00     0.209 C 
ENDBRANCH   1  29
TORSDOF 1
ENDMDL
MODEL 9
REMARK VINA RESULT:      -6.3      2.321      6.090
REMARK  1 active torsions:
REMARK  status: ('A' for Active; 'I' for Inactive)
REMARK    1  A    between atoms: O1_2  and  C2_3 
ROOT
HETATM    1  C2  UNL     1      18.464   5.784  48.203  1.00  0.00     0.077 C 
HETATM    2  C3  UNL     1      19.714   5.359  48.293  1.00  0.00     0.030 C 
HETATM    3  C4  UNL     1      20.782   6.213  47.690  1.00  0.00     0.055 C 
HETATM    4  N1  UNL     1      21.529   5.618  46.778  1.00  0.00    -0.263 NA
HETATM    5  C5  UNL     1      22.148   4.311  46.918  1.00  0.00     0.126 C 
HETATM    6  C6  UNL     1      22.031   3.354  47.882  1.00  0.00    -0.017 C 
HETATM    7  C7  UNL     1      22.711   2.067  47.827  1.00  0.00     0.052 C 
HETATM    8  C8  UNL     1      21.183   3.515  49.104  1.00  0.00     0.047 C 
HETATM    9  C9  UNL     1      19.947   4.044  48.972  1.00  0.00     0.002 C 
HETATM   10  C10 UNL     1      18.740   3.343  49.482  1.00  0.00     0.177 C 
HETATM   11  N2  UNL     1      17.704   4.234  49.877  1.00  0.00    -0.310 N 
HETATM   12  C11 UNL     1      17.139   4.319  51.153  1.00  0.00     0.180 C 
HETATM   13  N3  UNL     1      16.655   4.392  52.200  1.00  0.00    -0.172 NA
HETATM   14  C12 UNL     1      17.306   5.065  48.742  1.00  0.00     0.200 C 
HETATM   15  N4  UNL     1      21.967   3.047  50.227  1.00  0.00    -0.373 N 
HETATM   16  C13 UNL     1      23.136   2.310  49.830  1.00  0.00     0.150 C 
HETATM   17  C14 UNL     1      24.376   3.228  49.907  1.00  0.00    -0.004 C 
HETATM   18  C15 UNL     1      24.321   4.483  50.335  1.00  0.00     0.034 C 
HETATM   19  C16 UNL     1      23.279   5.209  51.113  1.00  0.00     0.073 C 
HETATM   20  C17 UNL     1      22.437   4.548  51.947  1.00  0.00     0.030 C 
HETATM   21  C18 UNL     1      21.398   3.509  51.536  1.00  0.00     0.153 C 
HETATM   22  O2  UNL     1      23.315   6.582  50.855  1.00  0.00    -0.315 OA
HETATM   23  C19 UNL     1      22.385   7.188  50.015  1.00  0.00     0.054 C 
HETATM   24  C20 UNL     1      21.231   7.394  50.672  1.00  0.00     0.032 C 
HETATM   25  C21 UNL     1      20.060   8.016  50.018  1.00  0.00    -0.001 C 
HETATM   26  C22 UNL     1      20.233   8.353  48.746  1.00  0.00    -0.015 C 
HETATM   27  C23 UNL     1      21.201   7.644  47.910  1.00  0.00     0.067 C 
HETATM   28  C24 UNL     1      22.567   7.573  48.609  1.00  0.00     0.079 C 
ENDROOT
BRANCH   1  29
HETATM   29  O1  UNL     1      18.203   6.981  47.563  1.00  0.00    -0.358 OA
HETATM   30  C1  UNL     1      16.972   7.326  47.019  1.00  0.00     0.209 C 
ENDBRANCH   1  29
TORSDOF 1
ENDMDL
