MODEL 1
REMARK VINA RESULT:      -6.9      0.000      0.000
REMARK  9 active torsions:
REMARK  status: ('A' for Active; 'I' for Inactive)
REMARK    1  A    between atoms: C2_2  and  C3_3 
REMARK    2  A    between atoms: C2_2  and  C12_15 
REMARK    3  A    between atoms: C4_4  and  C5_5 
REMARK    4  A    between atoms: C5_5  and  C6_6 
REMARK    5  A    between atoms: C6_6  and  C7_8 
REMARK    6  A    between atoms: C7_8  and  N1_9 
REMARK    7  A    between atoms: C12_15  and  O3_16 
REMARK    8  A    between atoms: O3_16  and  C13_17 
REMARK    9  A    between atoms: C13_17  and  C14_18 
ROOT
HETATM    1  C3  UNL     1      22.691   0.831  53.229  1.00  0.00     0.005 C 
HETATM    2  C4  UNL     1      23.461  -0.210  53.162  1.00  0.00    -0.019 C 
ENDROOT
BRANCH   1   3
HETATM    3  C2  UNL     1      22.078   1.495  52.090  1.00  0.00    -0.044 C 
HETATM    4  C1  UNL     1      21.893   0.909  50.919  1.00  0.00     0.021 C 
BRANCH   3   5
HETATM    5  C12 UNL     1      21.631   2.905  52.233  1.00  0.00     0.205 C 
BRANCH   5   6
HETATM    6  O3  UNL     1      22.264   3.713  51.298  1.00  0.00    -0.382 OA
BRANCH   6   7
HETATM    7  C13 UNL     1      23.384   4.345  51.814  1.00  0.00     0.206 C 
BRANCH   7   8
HETATM    8  C14 UNL     1      24.584   4.209  50.936  1.00  0.00    -0.035 A 
HETATM    9  C15 UNL     1      25.331   3.055  51.092  1.00  0.00     0.009 A 
HETATM   10  C16 UNL     1      26.457   2.890  50.293  1.00  0.00     0.001 A 
HETATM   11  C17 UNL     1      26.842   3.820  49.373  1.00  0.00     0.000 A 
HETATM   12  C18 UNL     1      26.097   4.970  49.218  1.00  0.00     0.001 A 
HETATM   13  C19 UNL     1      24.977   5.151  50.002  1.00  0.00     0.009 A 
ENDBRANCH   7   8
ENDBRANCH   6   7
ENDBRANCH   5   6
ENDBRANCH   3   5
ENDBRANCH   1   3
BRANCH   2  14
HETATM   14  C5  UNL     1      24.062  -0.847  54.368  1.00  0.00     0.107 C 
BRANCH  14  15
HETATM   15  C6  UNL     1      25.441  -0.340  54.589  1.00  0.00     0.158 C 
HETATM   16  O1  UNL     1      25.366  -1.159  55.517  1.00  0.00    -0.296 OA
BRANCH  15  17
HETATM   17  C7  UNL     1      26.768   0.312  54.606  1.00  0.00     0.354 C 
BRANCH  17  18
HETATM   18  N1  UNL     1      27.359   0.471  53.307  1.00  0.00     0.125 N 
HETATM   19  C8  UNL     1      27.804  -0.850  52.892  1.00  0.00     0.302 C 
HETATM   20  C9  UNL     1      29.063  -0.969  53.761  1.00  0.00     0.201 C 
HETATM   21  O2  UNL     1      29.342   0.338  54.205  1.00  0.00    -0.356 OA
HETATM   22  C10 UNL     1      28.645   1.121  53.317  1.00  0.00     0.355 C 
HETATM   23  C11 UNL     1      28.646   2.570  53.598  1.00  0.00     0.073 C 
ENDBRANCH  17  18
ENDBRANCH  15  17
ENDBRANCH  14  15
ENDBRANCH   2  14
TORSDOF 9
ENDMDL
MODEL 2
REMARK VINA RESULT:      -6.8      2.545      4.286
REMARK  9 active torsions:
REMARK  status: ('A' for Active; 'I' for Inactive)
REMARK    1  A    between atoms: C2_2  and  C3_3 
REMARK    2  A    between atoms: C2_2  and  C12_15 
REMARK    3  A    between atoms: C4_4  and  C5_5 
REMARK    4  A    between atoms: C5_5  and  C6_6 
REMARK    5  A    between atoms: C6_6  and  C7_8 
REMARK    6  A    between atoms: C7_8  and  N1_9 
REMARK    7  A    between atoms: C12_15  and  O3_16 
REMARK    8  A    between atoms: O3_16  and  C13_17 
REMARK    9  A    between atoms: C13_17  and  C14_18 
ROOT
HETATM    1  C3  UNL     1      23.763  -0.473  53.361  1.00  0.00     0.005 C 
HETATM    2  C4  UNL     1      23.861   0.805  53.167  1.00  0.00    -0.019 C 
ENDROOT
BRANCH   1   3
HETATM    3  C2  UNL     1      22.973  -1.106  54.405  1.00  0.00    -0.044 C 
HETATM    4  C1  UNL     1      23.436  -1.348  55.620  1.00  0.00     0.021 C 
BRANCH   3   5
HETATM    5  C12 UNL     1      21.575  -1.507  54.107  1.00  0.00     0.205 C 
BRANCH   5   6
HETATM    6  O3  UNL     1      20.706  -0.447  54.331  1.00  0.00    -0.382 OA
BRANCH   6   7
HETATM    7  C13 UNL     1      19.858  -0.221  53.258  1.00  0.00     0.206 C 
BRANCH   7   8
HETATM    8  C14 UNL     1      20.435   0.715  52.248  1.00  0.00    -0.035 A 
HETATM    9  C15 UNL     1      20.472   2.052  52.602  1.00  0.00     0.009 A 
HETATM   10  C16 UNL     1      21.002   2.957  51.690  1.00  0.00     0.001 A 
HETATM   11  C17 UNL     1      21.479   2.571  50.471  1.00  0.00     0.000 A 
HETATM   12  C18 UNL     1      21.441   1.239  50.119  1.00  0.00     0.001 A 
HETATM   13  C19 UNL     1      20.919   0.326  51.012  1.00  0.00     0.009 A 
ENDBRANCH   7   8
ENDBRANCH   6   7
ENDBRANCH   5   6
ENDBRANCH   3   5
ENDBRANCH   1   3
BRANCH   2  14
HETATM   14  C5  UNL     1      24.690   1.393  52.076  1.00  0.00     0.107 C 
BRANCH  14  15
HETATM   15  C6  UNL     1      26.055   0.809  52.091  1.00  0.00     0.158 C 
HETATM   16  O1  UNL     1      26.243   1.764  51.322  1.00  0.00    -0.296 OA
BRANCH  15  17
HETATM   17  C7  UNL     1      27.316   0.056  52.265  1.00  0.00     0.354 C 
BRANCH  17  18
HETATM   18  N1  UNL     1      27.537  -0.415  53.603  1.00  0.00     0.125 N 
HETATM   19  C8  UNL     1      27.532   0.759  54.460  1.00  0.00     0.302 C 
HETATM   20  C9  UNL     1      28.923   1.314  54.124  1.00  0.00     0.201 C 
HETATM   21  O2  UNL     1      29.607   0.261  53.488  1.00  0.00    -0.356 OA
HETATM   22  C10 UNL     1      28.887  -0.847  53.864  1.00  0.00     0.355 C 
HETATM   23  C11 UNL     1      29.299  -2.123  53.246  1.00  0.00     0.073 C 
ENDBRANCH  17  18
ENDBRANCH  15  17
ENDBRANCH  14  15
ENDBRANCH   2  14
TORSDOF 9
ENDMDL
MODEL 3
REMARK VINA RESULT:      -6.8      1.436      2.354
REMARK  9 active torsions:
REMARK  status: ('A' for Active; 'I' for Inactive)
REMARK    1  A    between atoms: C2_2  and  C3_3 
REMARK    2  A    between atoms: C2_2  and  C12_15 
REMARK    3  A    between atoms: C4_4  and  C5_5 
REMARK    4  A    between atoms: C5_5  and  C6_6 
REMARK    5  A    between atoms: C6_6  and  C7_8 
REMARK    6  A    between atoms: C7_8  and  N1_9 
REMARK    7  A    between atoms: C12_15  and  O3_16 
REMARK    8  A    between atoms: O3_16  and  C13_17 
REMARK    9  A    between atoms: C13_17  and  C14_18 
ROOT
HETATM    1  C3  UNL     1      24.245   1.471  52.862  1.00  0.00     0.005 C 
HETATM    2  C4  UNL     1      23.531   0.444  53.203  1.00  0.00    -0.019 C 
ENDROOT
BRANCH   1   3
HETATM    3  C2  UNL     1      23.813   2.532  51.965  1.00  0.00    -0.044 C 
HETATM    4  C1  UNL     1      22.852   3.390  52.265  1.00  0.00     0.021 C 
BRANCH   3   5
HETATM    5  C12 UNL     1      24.473   2.670  50.642  1.00  0.00     0.205 C 
BRANCH   5   6
HETATM    6  O3  UNL     1      25.594   3.482  50.740  1.00  0.00    -0.382 OA
BRANCH   6   7
HETATM    7  C13 UNL     1      26.444   3.346  49.654  1.00  0.00     0.206 C 
BRANCH   7   8
HETATM    8  C14 UNL     1      26.831   4.656  49.051  1.00  0.00    -0.035 A 
HETATM    9  C15 UNL     1      25.831   5.607  48.957  1.00  0.00     0.009 A 
HETATM   10  C16 UNL     1      26.149   6.841  48.401  1.00  0.00     0.001 A 
HETATM   11  C17 UNL     1      27.403   7.137  47.951  1.00  0.00     0.000 A 
HETATM   12  C18 UNL     1      28.399   6.189  48.044  1.00  0.00     0.001 A 
HETATM   13  C19 UNL     1      28.101   4.958  48.593  1.00  0.00     0.009 A 
ENDBRANCH   7   8
ENDBRANCH   6   7
ENDBRANCH   5   6
ENDBRANCH   3   5
ENDBRANCH   1   3
BRANCH   2  14
HETATM   14  C5  UNL     1      24.032  -0.613  54.128  1.00  0.00     0.107 C 
BRANCH  14  15
HETATM   15  C6  UNL     1      25.465  -0.386  54.446  1.00  0.00     0.158 C 
HETATM   16  O1  UNL     1      25.186  -1.222  55.318  1.00  0.00    -0.296 OA
BRANCH  15  17
HETATM   17  C7  UNL     1      26.887   0.003  54.567  1.00  0.00     0.354 C 
BRANCH  17  18
HETATM   18  N1  UNL     1      27.561   0.158  53.308  1.00  0.00     0.125 N 
HETATM   19  C8  UNL     1      28.305  -1.071  53.085  1.00  0.00     0.302 C 
HETATM   20  C9  UNL     1      29.469  -0.833  54.057  1.00  0.00     0.201 C 
HETATM   21  O2  UNL     1      29.429   0.540  54.367  1.00  0.00    -0.356 OA
HETATM   22  C10 UNL     1      28.679   1.066  53.343  1.00  0.00     0.355 C 
HETATM   23  C11 UNL     1      28.356   2.502  53.453  1.00  0.00     0.073 C 
ENDBRANCH  17  18
ENDBRANCH  15  17
ENDBRANCH  14  15
ENDBRANCH   2  14
TORSDOF 9
ENDMDL
MODEL 4
REMARK VINA RESULT:      -6.7      2.228      3.923
REMARK  9 active torsions:
REMARK  status: ('A' for Active; 'I' for Inactive)
REMARK    1  A    between atoms: C2_2  and  C3_3 
REMARK    2  A    between atoms: C2_2  and  C12_15 
REMARK    3  A    between atoms: C4_4  and  C5_5 
REMARK    4  A    between atoms: C5_5  and  C6_6 
REMARK    5  A    between atoms: C6_6  and  C7_8 
REMARK    6  A    between atoms: C7_8  and  N1_9 
REMARK    7  A    between atoms: C12_15  and  O3_16 
REMARK    8  A    between atoms: O3_16  and  C13_17 
REMARK    9  A    between atoms: C13_17  and  C14_18 
ROOT
HETATM    1  C3  UNL     1      23.205   0.257  52.861  1.00  0.00     0.005 C 
HETATM    2  C4  UNL     1      23.519   1.487  52.600  1.00  0.00    -0.019 C 
ENDROOT
BRANCH   1   3
HETATM    3  C2  UNL     1      22.241  -0.169  53.864  1.00  0.00    -0.044 C 
HETATM    4  C1  UNL     1      22.488  -1.115  54.754  1.00  0.00     0.021 C 
BRANCH   3   5
HETATM    5  C12 UNL     1      20.907   0.483  53.902  1.00  0.00     0.205 C 
BRANCH   5   6
HETATM    6  O3  UNL     1      20.118   0.038  52.850  1.00  0.00    -0.382 OA
BRANCH   6   7
HETATM    7  C13 UNL     1      19.541   1.080  52.142  1.00  0.00     0.206 C 
BRANCH   7   8
HETATM    8  C14 UNL     1      20.348   1.493  50.955  1.00  0.00    -0.035 A 
HETATM    9  C15 UNL     1      20.611   2.846  50.833  1.00  0.00     0.009 A 
HETATM   10  C16 UNL     1      21.359   3.272  49.742  1.00  0.00     0.001 A 
HETATM   11  C17 UNL     1      21.834   2.407  48.800  1.00  0.00     0.000 A 
HETATM   12  C18 UNL     1      21.571   1.060  48.922  1.00  0.00     0.001 A 
HETATM   13  C19 UNL     1      20.830   0.618  49.998  1.00  0.00     0.009 A 
ENDBRANCH   7   8
ENDBRANCH   6   7
ENDBRANCH   5   6
ENDBRANCH   3   5
ENDBRANCH   1   3
BRANCH   2  14
HETATM   14  C5  UNL     1      24.517   1.860  51.558  1.00  0.00     0.107 C 
BRANCH  14  15
HETATM   15  C6  UNL     1      25.876   1.417  51.961  1.00  0.00     0.158 C 
HETATM   16  O1  UNL     1      26.170   2.426  51.303  1.00  0.00    -0.296 OA
BRANCH  15  17
HETATM   17  C7  UNL     1      27.109   0.786  52.481  1.00  0.00     0.354 C 
BRANCH  17  18
HETATM   18  N1  UNL     1      27.492   1.239  53.789  1.00  0.00     0.125 N 
HETATM   19  C8  UNL     1      28.936   1.405  53.761  1.00  0.00     0.302 C 
HETATM   20  C9  UNL     1      29.354  -0.069  53.842  1.00  0.00     0.201 C 
HETATM   21  O2  UNL     1      28.205  -0.766  54.264  1.00  0.00    -0.356 OA
HETATM   22  C10 UNL     1      27.426   0.225  54.810  1.00  0.00     0.355 C 
HETATM   23  C11 UNL     1      26.076  -0.183  55.245  1.00  0.00     0.073 C 
ENDBRANCH  17  18
ENDBRANCH  15  17
ENDBRANCH  14  15
ENDBRANCH   2  14
TORSDOF 9
ENDMDL
MODEL 5
REMARK VINA RESULT:      -6.7      1.680      4.576
REMARK  9 active torsions:
REMARK  status: ('A' for Active; 'I' for Inactive)
REMARK    1  A    between atoms: C2_2  and  C3_3 
REMARK    2  A    between atoms: C2_2  and  C12_15 
REMARK    3  A    between atoms: C4_4  and  C5_5 
REMARK    4  A    between atoms: C5_5  and  C6_6 
REMARK    5  A    between atoms: C6_6  and  C7_8 
REMARK    6  A    between atoms: C7_8  and  N1_9 
REMARK    7  A    between atoms: C12_15  and  O3_16 
REMARK    8  A    between atoms: O3_16  and  C13_17 
REMARK    9  A    between atoms: C13_17  and  C14_18 
ROOT
HETATM    1  C3  UNL     1      23.389   3.537  51.254  1.00  0.00     0.005 C 
HETATM    2  C4  UNL     1      24.523   3.074  51.678  1.00  0.00    -0.019 C 
ENDROOT
BRANCH   1   3
HETATM    3  C2  UNL     1      22.401   4.218  52.075  1.00  0.00    -0.044 C 
HETATM    4  C1  UNL     1      22.717   5.018  53.079  1.00  0.00     0.021 C 
BRANCH   3   5
HETATM    5  C12 UNL     1      20.959   4.013  51.785  1.00  0.00     0.205 C 
BRANCH   5   6
HETATM    6  O3  UNL     1      20.399   3.129  52.698  1.00  0.00    -0.382 OA
BRANCH   6   7
HETATM    7  C13 UNL     1      20.276   1.846  52.188  1.00  0.00     0.206 C 
BRANCH   7   8
HETATM    8  C14 UNL     1      21.039   0.832  52.974  1.00  0.00    -0.035 A 
HETATM    9  C15 UNL     1      22.128   0.257  52.342  1.00  0.00     0.009 A 
HETATM   10  C16 UNL     1      22.865  -0.692  53.040  1.00  0.00     0.001 A 
HETATM   11  C17 UNL     1      22.551  -1.070  54.312  1.00  0.00     0.000 A 
HETATM   12  C18 UNL     1      21.466  -0.497  54.942  1.00  0.00     0.001 A 
HETATM   13  C19 UNL     1      20.722   0.447  54.265  1.00  0.00     0.009 A 
ENDBRANCH   7   8
ENDBRANCH   6   7
ENDBRANCH   5   6
ENDBRANCH   3   5
ENDBRANCH   1   3
BRANCH   2  14
HETATM   14  C5  UNL     1      25.496   2.383  50.784  1.00  0.00     0.107 C 
BRANCH  14  15
HETATM   15  C6  UNL     1      26.496   1.634  51.588  1.00  0.00     0.158 C 
HETATM   16  O1  UNL     1      27.161   2.644  51.312  1.00  0.00    -0.296 OA
BRANCH  15  17
HETATM   17  C7  UNL     1      27.309   0.712  52.410  1.00  0.00     0.354 C 
BRANCH  17  18
HETATM   18  N1  UNL     1      27.602   1.205  53.726  1.00  0.00     0.125 N 
HETATM   19  C8  UNL     1      29.049   1.316  53.812  1.00  0.00     0.302 C 
HETATM   20  C9  UNL     1      29.400  -0.168  53.983  1.00  0.00     0.201 C 
HETATM   21  O2  UNL     1      28.194  -0.804  54.334  1.00  0.00    -0.356 OA
HETATM   22  C10 UNL     1      27.413   0.236  54.776  1.00  0.00     0.355 C 
HETATM   23  C11 UNL     1      26.016  -0.104  55.112  1.00  0.00     0.073 C 
ENDBRANCH  17  18
ENDBRANCH  15  17
ENDBRANCH  14  15
ENDBRANCH   2  14
TORSDOF 9
ENDMDL
MODEL 6
REMARK VINA RESULT:      -6.7      2.023      4.823
REMARK  9 active torsions:
REMARK  status: ('A' for Active; 'I' for Inactive)
REMARK    1  A    between atoms: C2_2  and  C3_3 
REMARK    2  A    between atoms: C2_2  and  C12_15 
REMARK    3  A    between atoms: C4_4  and  C5_5 
REMARK    4  A    between atoms: C5_5  and  C6_6 
REMARK    5  A    between atoms: C6_6  and  C7_8 
REMARK    6  A    between atoms: C7_8  and  N1_9 
REMARK    7  A    between atoms: C12_15  and  O3_16 
REMARK    8  A    between atoms: O3_16  and  C13_17 
REMARK    9  A    between atoms: C13_17  and  C14_18 
ROOT
HETATM    1  C3  UNL     1      23.274   2.559  49.742  1.00  0.00     0.005 C 
HETATM    2  C4  UNL     1      24.078   2.490  50.757  1.00  0.00    -0.019 C 
ENDROOT
BRANCH   1   3
HETATM    3  C2  UNL     1      21.883   2.135  49.743  1.00  0.00    -0.044 C 
HETATM    4  C1  UNL     1      21.442   1.089  49.066  1.00  0.00     0.021 C 
BRANCH   3   5
HETATM    5  C12 UNL     1      20.896   2.908  50.539  1.00  0.00     0.205 C 
BRANCH   5   6
HETATM    6  O3  UNL     1      20.113   2.055  51.305  1.00  0.00    -0.382 OA
BRANCH   6   7
HETATM    7  C13 UNL     1      20.447   2.093  52.649  1.00  0.00     0.206 C 
BRANCH   7   8
HETATM    8  C14 UNL     1      20.959   0.785  53.158  1.00  0.00    -0.035 A 
HETATM    9  C15 UNL     1      20.005  -0.137  53.549  1.00  0.00     0.009 A 
HETATM   10  C16 UNL     1      20.439  -1.367  54.028  1.00  0.00     0.001 A 
HETATM   11  C17 UNL     1      21.762  -1.687  54.125  1.00  0.00     0.000 A 
HETATM   12  C18 UNL     1      22.712  -0.767  53.736  1.00  0.00     0.001 A 
HETATM   13  C19 UNL     1      22.300   0.459  53.257  1.00  0.00     0.009 A 
ENDBRANCH   7   8
ENDBRANCH   6   7
ENDBRANCH   5   6
ENDBRANCH   3   5
ENDBRANCH   1   3
BRANCH   2  14
HETATM   14  C5  UNL     1      25.498   2.941  50.692  1.00  0.00     0.107 C 
BRANCH  14  15
HETATM   15  C6  UNL     1      26.377   1.989  51.418  1.00  0.00     0.158 C 
HETATM   16  O1  UNL     1      27.184   2.909  51.215  1.00  0.00    -0.296 OA
BRANCH  15  17
HETATM   17  C7  UNL     1      27.046   0.893  52.151  1.00  0.00     0.354 C 
BRANCH  17  18
HETATM   18  N1  UNL     1      26.161   0.106  52.963  1.00  0.00     0.125 N 
HETATM   19  C8  UNL     1      26.131   0.738  54.272  1.00  0.00     0.302 C 
HETATM   20  C9  UNL     1      27.492   0.268  54.803  1.00  0.00     0.201 C 
HETATM   21  O2  UNL     1      27.885  -0.787  53.957  1.00  0.00    -0.356 OA
HETATM   22  C10 UNL     1      26.703  -1.166  53.368  1.00  0.00     0.355 C 
HETATM   23  C11 UNL     1      26.808  -2.199  52.318  1.00  0.00     0.073 C 
ENDBRANCH  17  18
ENDBRANCH  15  17
ENDBRANCH  14  15
ENDBRANCH   2  14
TORSDOF 9
ENDMDL
MODEL 7
REMARK VINA RESULT:      -6.7      2.286      4.357
REMARK  9 active torsions:
REMARK  status: ('A' for Active; 'I' for Inactive)
REMARK    1  A    between atoms: C2_2  and  C3_3 
REMARK    2  A    between atoms: C2_2  and  C12_15 
REMARK    3  A    between atoms: C4_4  and  C5_5 
REMARK    4  A    between atoms: C5_5  and  C6_6 
REMARK    5  A    between atoms: C6_6  and  C7_8 
REMARK    6  A    between atoms: C7_8  and  N1_9 
REMARK    7  A    between atoms: C12_15  and  O3_16 
REMARK    8  A    between atoms: O3_16  and  C13_17 
REMARK    9  A    between atoms: C13_17  and  C14_18 
ROOT
HETATM    1  C3  UNL     1      23.157   2.842  52.297  1.00  0.00     0.005 C 
HETATM    2  C4  UNL     1      24.382   2.465  52.494  1.00  0.00    -0.019 C 
ENDROOT
BRANCH   1   3
HETATM    3  C2  UNL     1      22.451   2.765  51.028  1.00  0.00    -0.044 C 
HETATM    4  C1  UNL     1      23.053   2.848  49.854  1.00  0.00     0.021 C 
BRANCH   3   5
HETATM    5  C12 UNL     1      20.976   2.586  51.035  1.00  0.00     0.205 C 
BRANCH   5   6
HETATM    6  O3  UNL     1      20.636   1.327  50.557  1.00  0.00    -0.382 OA
BRANCH   6   7
HETATM    7  C13 UNL     1      20.003   0.550  51.513  1.00  0.00     0.206 C 
BRANCH   7   8
HETATM    8  C14 UNL     1      20.935   0.053  52.569  1.00  0.00    -0.035 A 
HETATM    9  C15 UNL     1      20.536   0.243  53.880  1.00  0.00     0.009 A 
HETATM   10  C16 UNL     1      21.375  -0.205  54.892  1.00  0.00     0.001 A 
HETATM   11  C17 UNL     1      22.567  -0.818  54.635  1.00  0.00     0.000 A 
HETATM   12  C18 UNL     1      22.965  -1.006  53.329  1.00  0.00     0.001 A 
HETATM   13  C19 UNL     1      22.145  -0.568  52.310  1.00  0.00     0.009 A 
ENDBRANCH   7   8
ENDBRANCH   6   7
ENDBRANCH   5   6
ENDBRANCH   3   5
ENDBRANCH   1   3
BRANCH   2  14
HETATM   14  C5  UNL     1      25.053   2.570  53.821  1.00  0.00     0.107 C 
BRANCH  14  15
HETATM   15  C6  UNL     1      26.062   1.492  53.979  1.00  0.00     0.158 C 
HETATM   16  O1  UNL     1      26.755   2.474  54.280  1.00  0.00    -0.296 OA
BRANCH  15  17
HETATM   17  C7  UNL     1      26.878   0.261  54.066  1.00  0.00     0.354 C 
BRANCH  17  18
HETATM   18  N1  UNL     1      27.690   0.014  52.908  1.00  0.00     0.125 N 
HETATM   19  C8  UNL     1      26.809  -0.556  51.901  1.00  0.00     0.302 C 
HETATM   20  C9  UNL     1      26.682  -1.978  52.464  1.00  0.00     0.201 C 
HETATM   21  O2  UNL     1      27.725  -2.111  53.400  1.00  0.00    -0.356 OA
HETATM   22  C10 UNL     1      28.589  -1.104  53.043  1.00  0.00     0.355 C 
HETATM   23  C11 UNL     1      29.751  -0.908  53.932  1.00  0.00     0.073 C 
ENDBRANCH  17  18
ENDBRANCH  15  17
ENDBRANCH  14  15
ENDBRANCH   2  14
TORSDOF 9
ENDMDL
MODEL 8
REMARK VINA RESULT:      -6.5      2.285      4.865
REMARK  9 active torsions:
REMARK  status: ('A' for Active; 'I' for Inactive)
REMARK    1  A    between atoms: C2_2  and  C3_3 
REMARK    2  A    between atoms: C2_2  and  C12_15 
REMARK    3  A    between atoms: C4_4  and  C5_5 
REMARK    4  A    between atoms: C5_5  and  C6_6 
REMARK    5  A    between atoms: C6_6  and  C7_8 
REMARK    6  A    between atoms: C7_8  and  N1_9 
REMARK    7  A    between atoms: C12_15  and  O3_16 
REMARK    8  A    between atoms: O3_16  and  C13_17 
REMARK    9  A    between atoms: C13_17  and  C14_18 
ROOT
HETATM    1  C3  UNL     1      23.710   1.626  53.038  1.00  0.00     0.005 C 
HETATM    2  C4  UNL     1      23.537   0.350  52.892  1.00  0.00    -0.019 C 
ENDROOT
BRANCH   1   3
HETATM    3  C2  UNL     1      23.158   2.652  52.168  1.00  0.00    -0.044 C 
HETATM    4  C1  UNL     1      23.280   3.948  52.404  1.00  0.00     0.021 C 
BRANCH   3   5
HETATM    5  C12 UNL     1      22.413   2.240  50.950  1.00  0.00     0.205 C 
BRANCH   5   6
HETATM    6  O3  UNL     1      21.046   2.243  51.192  1.00  0.00    -0.382 OA
BRANCH   6   7
HETATM    7  C13 UNL     1      20.383   1.243  50.497  1.00  0.00     0.206 C 
BRANCH   7   8
HETATM    8  C14 UNL     1      19.503   0.413  51.373  1.00  0.00    -0.035 A 
HETATM    9  C15 UNL     1      18.227   0.165  50.902  1.00  0.00     0.009 A 
HETATM   10  C16 UNL     1      17.376  -0.604  51.687  1.00  0.00     0.001 A 
HETATM   11  C17 UNL     1      17.758  -1.113  52.894  1.00  0.00     0.000 A 
HETATM   12  C18 UNL     1      19.030  -0.865  53.364  1.00  0.00     0.001 A 
HETATM   13  C19 UNL     1      19.888  -0.104  52.598  1.00  0.00     0.009 A 
ENDBRANCH   7   8
ENDBRANCH   6   7
ENDBRANCH   5   6
ENDBRANCH   3   5
ENDBRANCH   1   3
BRANCH   2  14
HETATM   14  C5  UNL     1      24.133  -0.655  53.818  1.00  0.00     0.107 C 
BRANCH  14  15
HETATM   15  C6  UNL     1      25.455  -0.188  54.308  1.00  0.00     0.158 C 
HETATM   16  O1  UNL     1      25.265  -1.135  55.086  1.00  0.00    -0.296 OA
BRANCH  15  17
HETATM   17  C7  UNL     1      26.753   0.453  54.613  1.00  0.00     0.354 C 
BRANCH  17  18
HETATM   18  N1  UNL     1      27.717   0.355  53.554  1.00  0.00     0.125 N 
HETATM   19  C8  UNL     1      29.002   0.108  54.187  1.00  0.00     0.302 C 
HETATM   20  C9  UNL     1      29.296   1.522  54.706  1.00  0.00     0.201 C 
HETATM   21  O2  UNL     1      28.411   2.371  54.015  1.00  0.00    -0.356 OA
HETATM   22  C10 UNL     1      28.041   1.613  52.930  1.00  0.00     0.355 C 
HETATM   23  C11 UNL     1      27.003   2.200  52.058  1.00  0.00     0.073 C 
ENDBRANCH  17  18
ENDBRANCH  15  17
ENDBRANCH  14  15
ENDBRANCH   2  14
TORSDOF 9
ENDMDL
MODEL 9
REMARK VINA RESULT:      -6.4      3.158      5.952
REMARK  9 active torsions:
REMARK  status: ('A' for Active; 'I' for Inactive)
REMARK    1  A    between atoms: C2_2  and  C3_3 
REMARK    2  A    between atoms: C2_2  and  C12_15 
REMARK    3  A    between atoms: C4_4  and  C5_5 
REMARK    4  A    between atoms: C5_5  and  C6_6 
REMARK    5  A    between atoms: C6_6  and  C7_8 
REMARK    6  A    between atoms: C7_8  and  N1_9 
REMARK    7  A    between atoms: C12_15  and  O3_16 
REMARK    8  A    between atoms: O3_16  and  C13_17 
REMARK    9  A    between atoms: C13_17  and  C14_18 
ROOT
HETATM    1  C3  UNL     1      23.807   1.326  52.764  1.00  0.00     0.005 C 
HETATM    2  C4  UNL     1      24.078   1.742  51.566  1.00  0.00    -0.019 C 
ENDROOT
BRANCH   1   3
HETATM    3  C2  UNL     1      22.566   0.684  53.168  1.00  0.00    -0.044 C 
HETATM    4  C1  UNL     1      22.521  -0.393  53.933  1.00  0.00     0.021 C 
BRANCH   3   5
HETATM    5  C12 UNL     1      21.276   1.254  52.703  1.00  0.00     0.205 C 
BRANCH   5   6
HETATM    6  O3  UNL     1      20.684   0.419  51.765  1.00  0.00    -0.382 OA
BRANCH   6   7
HETATM    7  C13 UNL     1      19.368   0.764  51.504  1.00  0.00     0.206 C 
BRANCH   7   8
HETATM    8  C14 UNL     1      18.393  -0.259  51.988  1.00  0.00    -0.035 A 
HETATM    9  C15 UNL     1      17.202  -0.352  51.290  1.00  0.00     0.009 A 
HETATM   10  C16 UNL     1      16.268  -1.291  51.708  1.00  0.00     0.001 A 
HETATM   11  C17 UNL     1      16.486  -2.113  52.775  1.00  0.00     0.000 A 
HETATM   12  C18 UNL     1      17.672  -2.020  53.471  1.00  0.00     0.001 A 
HETATM   13  C19 UNL     1      18.612  -1.093  53.070  1.00  0.00     0.009 A 
ENDBRANCH   7   8
ENDBRANCH   6   7
ENDBRANCH   5   6
ENDBRANCH   3   5
ENDBRANCH   1   3
BRANCH   2  14
HETATM   14  C5  UNL     1      25.371   2.395  51.214  1.00  0.00     0.107 C 
BRANCH  14  15
HETATM   15  C6  UNL     1      26.508   1.644  51.804  1.00  0.00     0.158 C 
HETATM   16  O1  UNL     1      27.119   2.617  51.337  1.00  0.00    -0.296 OA
BRANCH  15  17
HETATM   17  C7  UNL     1      27.464   0.727  52.462  1.00  0.00     0.354 C 
BRANCH  17  18
HETATM   18  N1  UNL     1      27.838   1.125  53.790  1.00  0.00     0.125 N 
HETATM   19  C8  UNL     1      29.290   1.083  53.839  1.00  0.00     0.302 C 
HETATM   20  C9  UNL     1      29.488  -0.436  53.936  1.00  0.00     0.201 C 
HETATM   21  O2  UNL     1      28.231  -0.960  54.294  1.00  0.00    -0.356 OA
HETATM   22  C10 UNL     1      27.575   0.135  54.802  1.00  0.00     0.355 C 
HETATM   23  C11 UNL     1      26.158  -0.074  55.163  1.00  0.00     0.073 C 
ENDBRANCH  17  18
ENDBRANCH  15  17
ENDBRANCH  14  15
ENDBRANCH   2  14
TORSDOF 9
ENDMDL
