MODEL 1
REMARK VINA RESULT:      -9.1      0.000      0.000
REMARK  0 active torsions:
REMARK  status: ('A' for Active; 'I' for Inactive)
ROOT
HETATM    1  F1  UNL     1      26.882  -0.700  51.595  1.00  0.00    -0.199 F 
HETATM    2  C1  UNL     1      26.727  -0.029  52.806  1.00  0.00     0.271 A 
HETATM    3  C2  UNL     1      25.343  -0.241  53.290  1.00  0.00     0.049 C 
HETATM    4  C3  UNL     1      24.201  -0.550  53.846  1.00  0.00    -0.020 C 
HETATM    5  C4  UNL     1      22.846  -0.803  54.374  1.00  0.00     0.063 C 
HETATM    6  C5  UNL     1      21.795  -0.050  53.689  1.00  0.00    -0.050 A 
HETATM    7  C6  UNL     1      21.984   1.152  53.179  1.00  0.00     0.043 A 
HETATM    8  C7  UNL     1      20.779   1.625  52.522  1.00  0.00     0.086 A 
HETATM    9  C8  UNL     1      20.835   2.838  51.954  1.00  0.00     0.154 C 
HETATM   10  N1  UNL     1      22.204   3.147  52.285  1.00  0.00    -0.251 NA
HETATM   11  C9  UNL     1      22.944   3.464  51.260  1.00  0.00     0.233 C 
HETATM   12  N2  UNL     1      24.209   3.707  51.884  1.00  0.00    -0.237 NA
HETATM   13  C10 UNL     1      25.163   2.868  51.639  1.00  0.00     0.208 C 
HETATM   14  N3  UNL     1      26.503   2.440  51.821  1.00  0.00    -0.349 N 
HETATM   15  C11 UNL     1      27.040   1.414  52.639  1.00  0.00     0.082 A 
HETATM   16  C12 UNL     1      28.037   1.955  53.362  1.00  0.00     0.033 A 
HETATM   17  C13 UNL     1      28.845   1.180  54.324  1.00  0.00     0.026 A 
HETATM   18  C14 UNL     1      28.573  -0.108  54.471  1.00  0.00     0.139 A 
HETATM   19  O1  UNL     1      27.565  -0.655  53.733  1.00  0.00    -0.313 OA
HETATM   20  O2  UNL     1      19.830   0.626  52.667  1.00  0.00    -0.345 OA
HETATM   21  C15 UNL     1      20.388  -0.422  53.428  1.00  0.00     0.210 A 
HETATM   22  H9  UNL     1      27.163   3.025  51.220  1.00  0.00     0.166 HD
ENDROOT
TORSDOF 0
ENDMDL
MODEL 2
REMARK VINA RESULT:      -8.4      2.799      4.497
REMARK  0 active torsions:
REMARK  status: ('A' for Active; 'I' for Inactive)
ROOT
HETATM    1  F1  UNL     1      24.052   4.440  52.332  1.00  0.00    -0.199 F 
HETATM    2  C1  UNL     1      24.436   3.372  51.523  1.00  0.00     0.271 A 
HETATM    3  C2  UNL     1      23.536   2.228  51.792  1.00  0.00     0.049 C 
HETATM    4  C3  UNL     1      22.661   1.259  51.859  1.00  0.00    -0.020 C 
HETATM    5  C4  UNL     1      21.733   0.130  52.068  1.00  0.00     0.063 C 
HETATM    6  C5  UNL     1      21.954  -0.590  53.323  1.00  0.00    -0.050 A 
HETATM    7  C6  UNL     1      23.144  -0.729  53.876  1.00  0.00     0.043 A 
HETATM    8  C7  UNL     1      23.044  -1.447  55.134  1.00  0.00     0.086 A 
HETATM    9  C8  UNL     1      24.186  -1.654  55.806  1.00  0.00     0.154 C 
HETATM   10  N1  UNL     1      25.079  -1.002  54.881  1.00  0.00    -0.251 NA
HETATM   11  C9  UNL     1      25.816  -0.070  55.415  1.00  0.00     0.233 C 
HETATM   12  N2  UNL     1      26.572   0.381  54.286  1.00  0.00    -0.237 NA
HETATM   13  C10 UNL     1      26.326   1.571  53.844  1.00  0.00     0.208 C 
HETATM   14  N3  UNL     1      26.580   2.619  52.922  1.00  0.00    -0.349 N 
HETATM   15  C11 UNL     1      25.860   3.027  51.770  1.00  0.00     0.082 A 
HETATM   16  C12 UNL     1      26.737   3.097  50.751  1.00  0.00     0.033 A 
HETATM   17  C13 UNL     1      26.351   3.507  49.387  1.00  0.00     0.026 A 
HETATM   18  C14 UNL     1      25.084   3.822  49.164  1.00  0.00     0.139 A 
HETATM   19  O1  UNL     1      24.199   3.754  50.199  1.00  0.00    -0.313 OA
HETATM   20  O2  UNL     1      21.702  -1.741  55.317  1.00  0.00    -0.345 OA
HETATM   21  C15 UNL     1      20.980  -1.278  54.197  1.00  0.00     0.210 A 
HETATM   22  H9  UNL     1      27.468   3.143  53.193  1.00  0.00     0.166 HD
ENDROOT
TORSDOF 0
ENDMDL
MODEL 3
REMARK VINA RESULT:      -8.4      2.384      5.633
REMARK  0 active torsions:
REMARK  status: ('A' for Active; 'I' for Inactive)
ROOT
HETATM    1  F1  UNL     1      21.879   3.681  51.521  1.00  0.00    -0.199 F 
HETATM    2  C1  UNL     1      22.256   2.570  50.769  1.00  0.00     0.271 A 
HETATM    3  C2  UNL     1      22.594   1.465  51.695  1.00  0.00     0.049 C 
HETATM    4  C3  UNL     1      22.723   0.412  52.459  1.00  0.00    -0.020 C 
HETATM    5  C4  UNL     1      23.002  -0.719  53.365  1.00  0.00     0.063 C 
HETATM    6  C5  UNL     1      24.282  -0.612  54.065  1.00  0.00    -0.050 A 
HETATM    7  C6  UNL     1      25.347  -0.038  53.538  1.00  0.00     0.043 A 
HETATM    8  C7  UNL     1      26.450  -0.041  54.482  1.00  0.00     0.086 A 
HETATM    9  C8  UNL     1      27.598   0.520  54.073  1.00  0.00     0.154 C 
HETATM   10  N1  UNL     1      27.168   0.911  52.755  1.00  0.00    -0.251 NA
HETATM   11  C9  UNL     1      27.334   2.176  52.490  1.00  0.00     0.233 C 
HETATM   12  N2  UNL     1      26.828   2.259  51.154  1.00  0.00    -0.237 NA
HETATM   13  C10 UNL     1      25.727   2.913  50.975  1.00  0.00     0.208 C 
HETATM   14  N3  UNL     1      24.707   3.397  50.115  1.00  0.00    -0.349 N 
HETATM   15  C11 UNL     1      23.395   2.915  49.878  1.00  0.00     0.082 A 
HETATM   16  C12 UNL     1      23.246   2.789  48.547  1.00  0.00     0.033 A 
HETATM   17  C13 UNL     1      21.994   2.322  47.920  1.00  0.00     0.026 A 
HETATM   18  C14 UNL     1      20.974   2.020  48.709  1.00  0.00     0.139 A 
HETATM   19  O1  UNL     1      21.127   2.154  50.058  1.00  0.00    -0.313 OA
HETATM   20  O2  UNL     1      25.988  -0.662  55.631  1.00  0.00    -0.345 OA
HETATM   21  C15 UNL     1      24.660  -1.086  55.414  1.00  0.00     0.210 A 
HETATM   22  H9  UNL     1      25.046   4.262  49.591  1.00  0.00     0.166 HD
ENDROOT
TORSDOF 0
ENDMDL
MODEL 4
REMARK VINA RESULT:      -8.0      2.399      3.987
REMARK  0 active torsions:
REMARK  status: ('A' for Active; 'I' for Inactive)
ROOT
HETATM    1  F1  UNL     1      27.650   2.516  54.379  1.00  0.00    -0.199 F 
HETATM    2  C1  UNL     1      27.704   1.573  53.355  1.00  0.00     0.271 A 
HETATM    3  C2  UNL     1      27.111   2.166  52.134  1.00  0.00     0.049 C 
HETATM    4  C3  UNL     1      26.770   2.704  50.993  1.00  0.00    -0.020 C 
HETATM    5  C4  UNL     1      26.241   3.301  49.751  1.00  0.00     0.063 C 
HETATM    6  C5  UNL     1      24.782   3.414  49.726  1.00  0.00    -0.050 A 
HETATM    7  C6  UNL     1      23.981   2.552  50.321  1.00  0.00     0.043 A 
HETATM    8  C7  UNL     1      22.593   2.949  50.164  1.00  0.00     0.086 A 
HETATM    9  C8  UNL     1      21.669   2.158  50.728  1.00  0.00     0.154 C 
HETATM   10  N1  UNL     1      22.566   1.179  51.291  1.00  0.00    -0.251 NA
HETATM   11  C9  UNL     1      22.418   0.992  52.573  1.00  0.00     0.233 C 
HETATM   12  N2  UNL     1      23.415  -0.000  52.835  1.00  0.00    -0.237 NA
HETATM   13  C10 UNL     1      24.435   0.356  53.545  1.00  0.00     0.208 C 
HETATM   14  N3  UNL     1      25.673   0.045  54.166  1.00  0.00    -0.349 N 
HETATM   15  C11 UNL     1      27.003   0.328  53.763  1.00  0.00     0.082 A 
HETATM   16  C12 UNL     1      27.690  -0.827  53.804  1.00  0.00     0.033 A 
HETATM   17  C13 UNL     1      29.123  -0.922  53.463  1.00  0.00     0.026 A 
HETATM   18  C14 UNL     1      29.754   0.186  53.104  1.00  0.00     0.139 A 
HETATM   19  O1  UNL     1      29.056   1.357  53.068  1.00  0.00    -0.313 OA
HETATM   20  O2  UNL     1      22.598   4.121  49.425  1.00  0.00    -0.345 OA
HETATM   21  C15 UNL     1      23.929   4.434  49.079  1.00  0.00     0.210 A 
HETATM   22  H9  UNL     1      25.507  -0.487  55.075  1.00  0.00     0.166 HD
ENDROOT
TORSDOF 0
ENDMDL
MODEL 5
REMARK VINA RESULT:      -7.7      6.475      7.868
REMARK  0 active torsions:
REMARK  status: ('A' for Active; 'I' for Inactive)
ROOT
HETATM    1  F1  UNL     1      29.843   7.021  46.498  1.00  0.00    -0.199 F 
HETATM    2  C1  UNL     1      30.030   6.640  47.825  1.00  0.00     0.271 A 
HETATM    3  C2  UNL     1      28.851   5.858  48.263  1.00  0.00     0.049 C 
HETATM    4  C3  UNL     1      27.926   5.012  48.635  1.00  0.00    -0.020 C 
HETATM    5  C4  UNL     1      26.789   4.177  49.068  1.00  0.00     0.063 C 
HETATM    6  C5  UNL     1      25.567   4.936  49.335  1.00  0.00    -0.050 A 
HETATM    7  C6  UNL     1      25.572   6.168  49.809  1.00  0.00     0.043 A 
HETATM    8  C7  UNL     1      24.218   6.677  49.927  1.00  0.00     0.086 A 
HETATM    9  C8  UNL     1      24.079   7.927  50.393  1.00  0.00     0.154 C 
HETATM   10  N1  UNL     1      25.477   8.224  50.579  1.00  0.00    -0.251 NA
HETATM   11  C9  UNL     1      25.882   9.302  49.970  1.00  0.00     0.233 C 
HETATM   12  N2  UNL     1      27.267   9.332  50.328  1.00  0.00    -0.237 NA
HETATM   13  C10 UNL     1      28.128   9.119  49.387  1.00  0.00     0.208 C 
HETATM   14  N3  UNL     1      29.473   8.992  48.954  1.00  0.00    -0.349 N 
HETATM   15  C11 UNL     1      30.248   7.837  48.678  1.00  0.00     0.082 A 
HETATM   16  C12 UNL     1      31.398   7.950  49.366  1.00  0.00     0.033 A 
HETATM   17  C13 UNL     1      32.468   6.934  49.315  1.00  0.00     0.026 A 
HETATM   18  C14 UNL     1      32.281   5.868  48.550  1.00  0.00     0.139 A 
HETATM   19  O1  UNL     1      31.115   5.759  47.851  1.00  0.00    -0.313 OA
HETATM   20  O2  UNL     1      23.375   5.667  49.492  1.00  0.00    -0.345 OA
HETATM   21  C15 UNL     1      24.154   4.539  49.159  1.00  0.00     0.210 A 
HETATM   22  H9  UNL     1      29.917   9.956  48.838  1.00  0.00     0.166 HD
ENDROOT
TORSDOF 0
ENDMDL
MODEL 6
REMARK VINA RESULT:      -7.7      3.989      6.836
REMARK  0 active torsions:
REMARK  status: ('A' for Active; 'I' for Inactive)
ROOT
HETATM    1  F1  UNL     1      24.497   3.376  53.675  1.00  0.00    -0.199 F 
HETATM    2  C1  UNL     1      23.859   3.093  52.469  1.00  0.00     0.271 A 
HETATM    3  C2  UNL     1      24.836   3.254  51.368  1.00  0.00     0.049 C 
HETATM    4  C3  UNL     1      25.701   3.201  50.389  1.00  0.00    -0.020 C 
HETATM    5  C4  UNL     1      26.678   3.294  49.286  1.00  0.00     0.063 C 
HETATM    6  C5  UNL     1      27.021   4.667  48.917  1.00  0.00    -0.050 A 
HETATM    7  C6  UNL     1      26.170   5.672  48.999  1.00  0.00     0.043 A 
HETATM    8  C7  UNL     1      26.807   6.917  48.611  1.00  0.00     0.086 A 
HETATM    9  C8  UNL     1      26.051   8.024  48.655  1.00  0.00     0.154 C 
HETATM   10  N1  UNL     1      24.831   7.410  49.116  1.00  0.00    -0.251 NA
HETATM   11  C9  UNL     1      24.340   7.943  50.199  1.00  0.00     0.233 C 
HETATM   12  N2  UNL     1      23.170   7.145  50.407  1.00  0.00    -0.237 NA
HETATM   13  C10 UNL     1      23.163   6.356  51.431  1.00  0.00     0.208 C 
HETATM   14  N3  UNL     1      22.511   5.383  52.232  1.00  0.00    -0.349 N 
HETATM   15  C11 UNL     1      22.677   3.976  52.293  1.00  0.00     0.082 A 
HETATM   16  C12 UNL     1      21.458   3.421  52.168  1.00  0.00     0.033 A 
HETATM   17  C13 UNL     1      21.232   1.963  52.200  1.00  0.00     0.026 A 
HETATM   18  C14 UNL     1      22.282   1.172  52.363  1.00  0.00     0.139 A 
HETATM   19  O1  UNL     1      23.516   1.738  52.493  1.00  0.00    -0.313 OA
HETATM   20  O2  UNL     1      28.116   6.607  48.280  1.00  0.00    -0.345 OA
HETATM   21  C15 UNL     1      28.296   5.213  48.401  1.00  0.00     0.210 A 
HETATM   22  H9  UNL     1      21.791   5.850  52.867  1.00  0.00     0.166 HD
ENDROOT
TORSDOF 0
ENDMDL
MODEL 7
REMARK VINA RESULT:      -7.6      2.792      4.221
REMARK  0 active torsions:
REMARK  status: ('A' for Active; 'I' for Inactive)
ROOT
HETATM    1  F1  UNL     1      24.497   2.388  53.457  1.00  0.00    -0.199 F 
HETATM    2  C1  UNL     1      24.536   1.251  52.652  1.00  0.00     0.271 A 
HETATM    3  C2  UNL     1      23.475   1.362  51.625  1.00  0.00     0.049 C 
HETATM    4  C3  UNL     1      22.683   1.499  50.594  1.00  0.00    -0.020 C 
HETATM    5  C4  UNL     1      21.673   1.623  49.525  1.00  0.00     0.063 C 
HETATM    6  C5  UNL     1      20.301   1.395  49.981  1.00  0.00    -0.050 A 
HETATM    7  C6  UNL     1      19.992   0.556  50.951  1.00  0.00     0.043 A 
HETATM    8  C7  UNL     1      18.564   0.577  51.212  1.00  0.00     0.086 A 
HETATM    9  C8  UNL     1      18.114  -0.230  52.184  1.00  0.00     0.154 C 
HETATM   10  N1  UNL     1      19.380  -0.804  52.565  1.00  0.00    -0.251 NA
HETATM   11  C9  UNL     1      19.662  -0.685  53.832  1.00  0.00     0.233 C 
HETATM   12  N2  UNL     1      20.940  -1.326  53.903  1.00  0.00    -0.237 NA
HETATM   13  C10 UNL     1      21.966  -0.579  54.151  1.00  0.00     0.208 C 
HETATM   14  N3  UNL     1      23.363  -0.434  54.355  1.00  0.00    -0.349 N 
HETATM   15  C11 UNL     1      24.380   0.028  53.481  1.00  0.00     0.082 A 
HETATM   16  C12 UNL     1      25.360  -0.893  53.481  1.00  0.00     0.033 A 
HETATM   17  C13 UNL     1      26.599  -0.747  52.693  1.00  0.00     0.026 A 
HETATM   18  C14 UNL     1      26.747   0.345  51.957  1.00  0.00     0.139 A 
HETATM   19  O1  UNL     1      25.753   1.279  51.963  1.00  0.00    -0.313 OA
HETATM   20  O2  UNL     1      18.013   1.491  50.328  1.00  0.00    -0.345 OA
HETATM   21  C15 UNL     1      19.038   1.996  49.501  1.00  0.00     0.210 A 
HETATM   22  H9  UNL     1      23.625  -0.739  55.343  1.00  0.00     0.166 HD
ENDROOT
TORSDOF 0
ENDMDL
MODEL 8
REMARK VINA RESULT:      -7.6      3.174      6.493
REMARK  0 active torsions:
REMARK  status: ('A' for Active; 'I' for Inactive)
ROOT
HETATM    1  F1  UNL     1      21.433   0.497  48.737  1.00  0.00    -0.199 F 
HETATM    2  C1  UNL     1      21.350   1.562  49.630  1.00  0.00     0.271 A 
HETATM    3  C2  UNL     1      22.522   1.515  50.534  1.00  0.00     0.049 C 
HETATM    4  C3  UNL     1      23.624   1.622  51.229  1.00  0.00    -0.020 C 
HETATM    5  C4  UNL     1      24.818   1.627  52.096  1.00  0.00     0.063 C 
HETATM    6  C5  UNL     1      24.795   0.599  53.138  1.00  0.00    -0.050 A 
HETATM    7  C6  UNL     1      23.684   0.180  53.713  1.00  0.00     0.043 A 
HETATM    8  C7  UNL     1      23.969  -0.873  54.671  1.00  0.00     0.086 A 
HETATM    9  C8  UNL     1      22.922  -1.395  55.326  1.00  0.00     0.154 C 
HETATM   10  N1  UNL     1      21.889  -0.594  54.717  1.00  0.00    -0.251 NA
HETATM   11  C9  UNL     1      20.928  -1.285  54.171  1.00  0.00     0.233 C 
HETATM   12  N2  UNL     1      20.083  -0.248  53.663  1.00  0.00    -0.237 NA
HETATM   13  C10 UNL     1      20.003  -0.122  52.378  1.00  0.00     0.208 C 
HETATM   14  N3  UNL     1      19.481   0.537  51.235  1.00  0.00    -0.349 N 
HETATM   15  C11 UNL     1      20.069   1.505  50.381  1.00  0.00     0.082 A 
HETATM   16  C12 UNL     1      19.208   2.535  50.287  1.00  0.00     0.033 A 
HETATM   17  C13 UNL     1      19.474   3.731  49.465  1.00  0.00     0.026 A 
HETATM   18  C14 UNL     1      20.612   3.784  48.788  1.00  0.00     0.139 A 
HETATM   19  O1  UNL     1      21.480   2.737  48.883  1.00  0.00    -0.313 OA
HETATM   20  O2  UNL     1      25.340  -1.072  54.646  1.00  0.00    -0.345 OA
HETATM   21  C15 UNL     1      25.915  -0.149  53.747  1.00  0.00     0.210 A 
HETATM   22  H9  UNL     1      18.484   0.210  51.043  1.00  0.00     0.166 HD
ENDROOT
TORSDOF 0
ENDMDL
MODEL 9
REMARK VINA RESULT:      -7.5      2.824      4.312
REMARK  0 active torsions:
REMARK  status: ('A' for Active; 'I' for Inactive)
ROOT
HETATM    1  F1  UNL     1      24.153   4.504  52.500  1.00  0.00    -0.199 F 
HETATM    2  C1  UNL     1      24.314   3.543  51.504  1.00  0.00     0.271 A 
HETATM    3  C2  UNL     1      23.039   2.808  51.345  1.00  0.00     0.049 C 
HETATM    4  C3  UNL     1      21.891   2.261  51.041  1.00  0.00    -0.020 C 
HETATM    5  C4  UNL     1      20.609   1.561  50.825  1.00  0.00     0.063 C 
HETATM    6  C5  UNL     1      20.283   0.591  51.871  1.00  0.00    -0.050 A 
HETATM    7  C6  UNL     1      21.197  -0.099  52.525  1.00  0.00     0.043 A 
HETATM    8  C7  UNL     1      20.578  -0.944  53.532  1.00  0.00     0.086 A 
HETATM    9  C8  UNL     1      21.399  -1.699  54.276  1.00  0.00     0.154 C 
HETATM   10  N1  UNL     1      22.644  -1.283  53.680  1.00  0.00    -0.251 NA
HETATM   11  C9  UNL     1      23.519  -0.828  54.531  1.00  0.00     0.233 C 
HETATM   12  N2  UNL     1      24.615  -0.502  53.670  1.00  0.00    -0.237 NA
HETATM   13  C10 UNL     1      24.900   0.750  53.519  1.00  0.00     0.208 C 
HETATM   14  N3  UNL     1      25.698   1.770  52.940  1.00  0.00    -0.349 N 
HETATM   15  C11 UNL     1      25.439   2.634  51.845  1.00  0.00     0.082 A 
HETATM   16  C12 UNL     1      26.488   2.548  51.008  1.00  0.00     0.033 A 
HETATM   17  C13 UNL     1      26.581   3.323  49.755  1.00  0.00     0.026 A 
HETATM   18  C14 UNL     1      25.584   4.140  49.450  1.00  0.00     0.139 A 
HETATM   19  O1  UNL     1      24.524   4.227  50.303  1.00  0.00    -0.313 OA
HETATM   20  O2  UNL     1      19.213  -0.724  53.448  1.00  0.00    -0.345 OA
HETATM   21  C15 UNL     1      18.963   0.184  52.398  1.00  0.00     0.210 A 
HETATM   22  H9  UNL     1      26.629   1.849  53.455  1.00  0.00     0.166 HD
ENDROOT
TORSDOF 0
ENDMDL
