MODEL 1
REMARK VINA RESULT:      -7.2      0.000      0.000
REMARK  11 active torsions:
REMARK  status: ('A' for Active; 'I' for Inactive)
REMARK    1  A    between atoms: C2_2  and  C3_3 
REMARK    2  A    between atoms: C4_4  and  C5_5 
REMARK    3  A    between atoms: C4_4  and  C7_8 
REMARK    4  A    between atoms: C6_6  and  N1_7 
REMARK    5  A    between atoms: C11_14  and  O1_15 
REMARK    6  A    between atoms: O1_15  and  C12_16 
REMARK    7  A    between atoms: C13_18  and  O2_19 
REMARK    8  A    between atoms: O2_19  and  C14_20 
REMARK    9  A    between atoms: C14_20  and  C15_21 
REMARK   10  A    between atoms: C15_21  and  C16_22 
REMARK   11  A    between atoms: C16_22  and  N4_23 
ROOT
HETATM    1  C7  UNL     1      23.008  -0.395  53.606  1.00  0.00     0.081 A 
HETATM    2  N2  UNL     1      22.616  -1.094  54.714  1.00  0.00    -0.240 NA
HETATM    3  C8  UNL     1      23.545  -1.477  55.651  1.00  0.00     0.234 A 
HETATM    4  N3  UNL     1      24.839  -1.178  55.506  1.00  0.00    -0.241 NA
HETATM    5  C9  UNL     1      25.326  -0.495  54.462  1.00  0.00     0.073 A 
HETATM    6  C10 UNL     1      26.621  -0.131  54.241  1.00  0.00     0.072 A 
HETATM    7  C11 UNL     1      26.980   0.594  53.124  1.00  0.00     0.107 A 
HETATM    8  C13 UNL     1      26.012   0.959  52.211  1.00  0.00     0.103 A 
HETATM    9  C19 UNL     1      24.715   0.577  52.459  1.00  0.00     0.055 A 
HETATM   10  C20 UNL     1      24.355  -0.145  53.567  1.00  0.00     0.025 A 
ENDROOT
BRANCH   1  11
HETATM   11  C4  UNL     1      21.894  -0.100  52.758  1.00  0.00    -0.005 C 
HETATM   12  C3  UNL     1      20.745  -0.368  53.412  1.00  0.00     0.010 C 
BRANCH  12  13
HETATM   13  C2  UNL     1      19.489  -0.190  52.705  1.00  0.00    -0.025 C 
HETATM   14  C1  UNL     1      18.393  -0.874  52.922  1.00  0.00     0.031 C 
ENDBRANCH  12  13
BRANCH  11  15
HETATM   15  C5  UNL     1      21.551   0.320  51.436  1.00  0.00     0.030 C 
HETATM   16  C6  UNL     1      21.793   0.872  50.273  1.00  0.00     0.081 C 
BRANCH  16  17
HETATM   17  N1  UNL     1      21.213   1.175  49.049  1.00  0.00    -0.408 N 
HETATM   18  H7  UNL     1      20.267   1.593  48.876  1.00  0.00     0.155 HD
HETATM   19  H8  UNL     1      21.630   1.025  48.090  1.00  0.00     0.155 HD
ENDBRANCH  16  17
ENDBRANCH  11  15
ENDBRANCH   1  11
BRANCH   8  20
HETATM   20  O2  UNL     1      26.483   1.681  51.137  1.00  0.00    -0.348 OA
BRANCH  20  21
HETATM   21  C14 UNL     1      26.354   3.052  50.919  1.00  0.00     0.177 C 
BRANCH  21  22
HETATM   22  C15 UNL     1      25.371   3.264  49.806  1.00  0.00     0.057 C 
BRANCH  22  23
HETATM   23  C16 UNL     1      24.049   3.814  50.209  1.00  0.00     0.273 C 
BRANCH  23  24
HETATM   24  N4  UNL     1      24.044   4.414  51.527  1.00  0.00     0.080 N 
HETATM   25  C17 UNL     1      23.820   5.849  51.458  1.00  0.00     0.309 C 
HETATM   26  C18 UNL     1      22.885   3.859  52.232  1.00  0.00     0.309 C 
ENDBRANCH  23  24
ENDBRANCH  22  23
ENDBRANCH  21  22
ENDBRANCH  20  21
ENDBRANCH   8  20
BRANCH   7  27
HETATM   27  O1  UNL     1      28.336   0.938  52.956  1.00  0.00    -0.319 OA
BRANCH  27  28
HETATM   28  C12 UNL     1      29.308   0.539  53.900  1.00  0.00     0.398 C 
HETATM   29  F1  UNL     1      30.407  -0.031  53.335  1.00  0.00    -0.227 F 
ENDBRANCH  27  28
ENDBRANCH   7  27
TORSDOF 11
ENDMDL
MODEL 2
REMARK VINA RESULT:      -7.1      3.316      5.772
REMARK  11 active torsions:
REMARK  status: ('A' for Active; 'I' for Inactive)
REMARK    1  A    between atoms: C2_2  and  C3_3 
REMARK    2  A    between atoms: C4_4  and  C5_5 
REMARK    3  A    between atoms: C4_4  and  C7_8 
REMARK    4  A    between atoms: C6_6  and  N1_7 
REMARK    5  A    between atoms: C11_14  and  O1_15 
REMARK    6  A    between atoms: O1_15  and  C12_16 
REMARK    7  A    between atoms: C13_18  and  O2_19 
REMARK    8  A    between atoms: O2_19  and  C14_20 
REMARK    9  A    between atoms: C14_20  and  C15_21 
REMARK   10  A    between atoms: C15_21  and  C16_22 
REMARK   11  A    between atoms: C16_22  and  N4_23 
ROOT
HETATM    1  C7  UNL     1      24.639  -0.382  53.977  1.00  0.00     0.081 A 
HETATM    2  N2  UNL     1      24.993  -1.036  55.124  1.00  0.00    -0.240 NA
HETATM    3  C8  UNL     1      24.027  -1.598  55.923  1.00  0.00     0.234 A 
HETATM    4  N3  UNL     1      22.733  -1.523  55.602  1.00  0.00    -0.241 NA
HETATM    5  C9  UNL     1      22.280  -0.909  54.501  1.00  0.00     0.073 A 
HETATM    6  C10 UNL     1      20.986  -0.799  54.086  1.00  0.00     0.072 A 
HETATM    7  C11 UNL     1      20.664  -0.152  52.912  1.00  0.00     0.107 A 
HETATM    8  C13 UNL     1      21.668   0.395  52.140  1.00  0.00     0.103 A 
HETATM    9  C19 UNL     1      22.962   0.270  52.583  1.00  0.00     0.055 A 
HETATM   10  C20 UNL     1      23.287  -0.371  53.751  1.00  0.00     0.025 A 
ENDROOT
BRANCH   1  11
HETATM   11  C4  UNL     1      25.788   0.132  53.296  1.00  0.00    -0.005 C 
HETATM   12  C3  UNL     1      26.867  -0.619  53.600  1.00  0.00     0.010 C 
BRANCH  12  13
HETATM   13  C2  UNL     1      28.155  -0.231  53.055  1.00  0.00    -0.025 C 
HETATM   14  C1  UNL     1      29.314  -0.711  53.433  1.00  0.00     0.031 C 
ENDBRANCH  12  13
BRANCH  11  15
HETATM   15  C5  UNL     1      26.227   1.198  52.452  1.00  0.00     0.030 C 
HETATM   16  C6  UNL     1      26.117   2.369  51.876  1.00  0.00     0.081 C 
BRANCH  16  17
HETATM   17  N1  UNL     1      26.762   3.244  51.013  1.00  0.00    -0.408 N 
HETATM   18  H7  UNL     1      27.192   4.172  51.245  1.00  0.00     0.155 HD
HETATM   19  H8  UNL     1      26.918   3.119  49.975  1.00  0.00     0.155 HD
ENDBRANCH  16  17
ENDBRANCH  11  15
ENDBRANCH   1  11
BRANCH   8  20
HETATM   20  O2  UNL     1      21.231   1.015  50.990  1.00  0.00    -0.348 OA
BRANCH  20  21
HETATM   21  C14 UNL     1      21.993   1.355  49.873  1.00  0.00     0.177 C 
BRANCH  21  22
HETATM   22  C15 UNL     1      21.928   2.842  49.690  1.00  0.00     0.057 C 
BRANCH  22  23
HETATM   23  C16 UNL     1      23.087   3.609  50.219  1.00  0.00     0.273 C 
BRANCH  23  24
HETATM   24  N4  UNL     1      22.870   4.154  51.544  1.00  0.00     0.080 N 
HETATM   25  C17 UNL     1      23.621   5.383  51.743  1.00  0.00     0.309 C 
HETATM   26  C18 UNL     1      21.456   4.531  51.611  1.00  0.00     0.309 C 
ENDBRANCH  23  24
ENDBRANCH  22  23
ENDBRANCH  21  22
ENDBRANCH  20  21
ENDBRANCH   8  20
BRANCH   7  27
HETATM   27  O1  UNL     1      19.306  -0.073  52.541  1.00  0.00    -0.319 OA
BRANCH  27  28
HETATM   28  C12 UNL     1      18.359  -0.983  53.060  1.00  0.00     0.398 C 
HETATM   29  F1  UNL     1      17.410  -1.350  52.156  1.00  0.00    -0.227 F 
ENDBRANCH  27  28
ENDBRANCH   7  27
TORSDOF 11
ENDMDL
MODEL 3
REMARK VINA RESULT:      -7.0      3.048      5.722
REMARK  11 active torsions:
REMARK  status: ('A' for Active; 'I' for Inactive)
REMARK    1  A    between atoms: C2_2  and  C3_3 
REMARK    2  A    between atoms: C4_4  and  C5_5 
REMARK    3  A    between atoms: C4_4  and  C7_8 
REMARK    4  A    between atoms: C6_6  and  N1_7 
REMARK    5  A    between atoms: C11_14  and  O1_15 
REMARK    6  A    between atoms: O1_15  and  C12_16 
REMARK    7  A    between atoms: C13_18  and  O2_19 
REMARK    8  A    between atoms: O2_19  and  C14_20 
REMARK    9  A    between atoms: C14_20  and  C15_21 
REMARK   10  A    between atoms: C15_21  and  C16_22 
REMARK   11  A    between atoms: C16_22  and  N4_23 
ROOT
HETATM    1  C7  UNL     1      24.971  -0.417  54.024  1.00  0.00     0.081 A 
HETATM    2  N2  UNL     1      24.916  -1.139  55.184  1.00  0.00    -0.240 NA
HETATM    3  C8  UNL     1      23.701  -1.468  55.734  1.00  0.00     0.234 A 
HETATM    4  N3  UNL     1      22.556  -1.097  55.154  1.00  0.00    -0.241 NA
HETATM    5  C9  UNL     1      22.498  -0.392  54.017  1.00  0.00     0.073 A 
HETATM    6  C10 UNL     1      21.382   0.013  53.348  1.00  0.00     0.072 A 
HETATM    7  C11 UNL     1      21.471   0.721  52.168  1.00  0.00     0.107 A 
HETATM    8  C13 UNL     1      22.714   1.027  51.652  1.00  0.00     0.103 A 
HETATM    9  C19 UNL     1      23.822   0.606  52.348  1.00  0.00     0.055 A 
HETATM   10  C20 UNL     1      23.737  -0.096  53.523  1.00  0.00     0.025 A 
ENDROOT
BRANCH   1  11
HETATM   11  C4  UNL     1      26.324  -0.177  53.626  1.00  0.00    -0.005 C 
HETATM   12  C3  UNL     1      26.935  -1.353  53.369  1.00  0.00     0.010 C 
BRANCH  12  13
HETATM   13  C2  UNL     1      28.339  -1.336  53.002  1.00  0.00    -0.025 C 
HETATM   14  C1  UNL     1      29.195  -2.302  53.232  1.00  0.00     0.031 C 
ENDBRANCH  12  13
BRANCH  11  15
HETATM   15  C5  UNL     1      27.294   0.859  53.458  1.00  0.00     0.030 C 
HETATM   16  C6  UNL     1      27.774   2.065  53.633  1.00  0.00     0.081 C 
BRANCH  16  17
HETATM   17  N1  UNL     1      28.851   2.884  53.321  1.00  0.00    -0.408 N 
HETATM   18  H7  UNL     1      29.129   3.242  52.376  1.00  0.00     0.155 HD
HETATM   19  H8  UNL     1      29.572   3.273  53.988  1.00  0.00     0.155 HD
ENDBRANCH  16  17
ENDBRANCH  11  15
ENDBRANCH   1  11
BRANCH   8  20
HETATM   20  O2  UNL     1      22.684   1.734  50.471  1.00  0.00    -0.348 OA
BRANCH  20  21
HETATM   21  C14 UNL     1      22.848   3.109  50.306  1.00  0.00     0.177 C 
BRANCH  21  22
HETATM   22  C15 UNL     1      23.994   3.339  49.366  1.00  0.00     0.057 C 
BRANCH  22  23
HETATM   23  C16 UNL     1      24.797   4.565  49.617  1.00  0.00     0.273 C 
BRANCH  23  24
HETATM   24  N4  UNL     1      26.150   4.295  50.062  1.00  0.00     0.080 N 
HETATM   25  C17 UNL     1      26.355   2.879  50.312  1.00  0.00     0.309 C 
HETATM   26  C18 UNL     1      27.031   4.639  48.943  1.00  0.00     0.309 C 
ENDBRANCH  23  24
ENDBRANCH  22  23
ENDBRANCH  21  22
ENDBRANCH  20  21
ENDBRANCH   8  20
BRANCH   7  27
HETATM   27  O1  UNL     1      20.278   1.110  51.527  1.00  0.00    -0.319 OA
BRANCH  27  28
HETATM   28  C12 UNL     1      19.519   2.201  52.007  1.00  0.00     0.398 C 
HETATM   29  F1  UNL     1      20.268   3.139  52.647  1.00  0.00    -0.227 F 
ENDBRANCH  27  28
ENDBRANCH   7  27
TORSDOF 11
ENDMDL
MODEL 4
REMARK VINA RESULT:      -6.7      3.052      5.873
REMARK  11 active torsions:
REMARK  status: ('A' for Active; 'I' for Inactive)
REMARK    1  A    between atoms: C2_2  and  C3_3 
REMARK    2  A    between atoms: C4_4  and  C5_5 
REMARK    3  A    between atoms: C4_4  and  C7_8 
REMARK    4  A    between atoms: C6_6  and  N1_7 
REMARK    5  A    between atoms: C11_14  and  O1_15 
REMARK    6  A    between atoms: O1_15  and  C12_16 
REMARK    7  A    between atoms: C13_18  and  O2_19 
REMARK    8  A    between atoms: O2_19  and  C14_20 
REMARK    9  A    between atoms: C14_20  and  C15_21 
REMARK   10  A    between atoms: C15_21  and  C16_22 
REMARK   11  A    between atoms: C16_22  and  N4_23 
ROOT
HETATM    1  C7  UNL     1      25.880   2.346  51.556  1.00  0.00     0.081 A 
HETATM    2  N2  UNL     1      27.182   2.289  51.970  1.00  0.00    -0.240 NA
HETATM    3  C8  UNL     1      27.574   1.340  52.883  1.00  0.00     0.234 A 
HETATM    4  N3  UNL     1      26.703   0.458  53.381  1.00  0.00    -0.241 NA
HETATM    5  C9  UNL     1      25.408   0.425  53.041  1.00  0.00     0.073 A 
HETATM    6  C10 UNL     1      24.457  -0.445  53.482  1.00  0.00     0.072 A 
HETATM    7  C11 UNL     1      23.156  -0.374  53.029  1.00  0.00     0.107 A 
HETATM    8  C13 UNL     1      22.809   0.595  52.110  1.00  0.00     0.103 A 
HETATM    9  C19 UNL     1      23.789   1.459  51.683  1.00  0.00     0.055 A 
HETATM   10  C20 UNL     1      25.082   1.393  52.134  1.00  0.00     0.025 A 
ENDROOT
BRANCH   1  11
HETATM   11  C4  UNL     1      25.681   3.404  50.614  1.00  0.00    -0.005 C 
HETATM   12  C3  UNL     1      26.801   3.571  49.879  1.00  0.00     0.010 C 
BRANCH  12  13
HETATM   13  C2  UNL     1      26.829   4.639  48.897  1.00  0.00    -0.025 C 
HETATM   14  C1  UNL     1      27.907   5.258  48.479  1.00  0.00     0.031 C 
ENDBRANCH  12  13
BRANCH  11  15
HETATM   15  C5  UNL     1      24.742   4.400  50.204  1.00  0.00     0.030 C 
HETATM   16  C6  UNL     1      23.565   4.974  50.181  1.00  0.00     0.081 C 
BRANCH  16  17
HETATM   17  N1  UNL     1      22.863   6.041  49.636  1.00  0.00    -0.408 N 
HETATM   18  H7  UNL     1      22.079   6.581  50.075  1.00  0.00     0.155 HD
HETATM   19  H8  UNL     1      23.002   6.477  48.684  1.00  0.00     0.155 HD
ENDBRANCH  16  17
ENDBRANCH  11  15
ENDBRANCH   1  11
BRANCH   8  20
HETATM   20  O2  UNL     1      21.487   0.571  51.727  1.00  0.00    -0.348 OA
BRANCH  20  21
HETATM   21  C14 UNL     1      20.578   1.627  51.764  1.00  0.00     0.177 C 
BRANCH  21  22
HETATM   22  C15 UNL     1      19.778   1.609  50.495  1.00  0.00     0.057 C 
BRANCH  22  23
HETATM   23  C16 UNL     1      20.551   1.365  49.249  1.00  0.00     0.273 C 
BRANCH  23  24
HETATM   24  N4  UNL     1      21.389   2.480  48.855  1.00  0.00     0.080 N 
HETATM   25  C17 UNL     1      22.395   2.073  47.888  1.00  0.00     0.309 C 
HETATM   26  C18 UNL     1      20.517   3.427  48.155  1.00  0.00     0.309 C 
ENDBRANCH  23  24
ENDBRANCH  22  23
ENDBRANCH  21  22
ENDBRANCH  20  21
ENDBRANCH   8  20
BRANCH   7  27
HETATM   27  O1  UNL     1      22.222  -1.305  53.526  1.00  0.00    -0.319 OA
BRANCH  27  28
HETATM   28  C12 UNL     1      21.560  -1.082  54.754  1.00  0.00     0.398 C 
HETATM   29  F1  UNL     1      21.327   0.234  55.011  1.00  0.00    -0.227 F 
ENDBRANCH  27  28
ENDBRANCH   7  27
TORSDOF 11
ENDMDL
MODEL 5
REMARK VINA RESULT:      -6.7      3.176      6.368
REMARK  11 active torsions:
REMARK  status: ('A' for Active; 'I' for Inactive)
REMARK    1  A    between atoms: C2_2  and  C3_3 
REMARK    2  A    between atoms: C4_4  and  C5_5 
REMARK    3  A    between atoms: C4_4  and  C7_8 
REMARK    4  A    between atoms: C6_6  and  N1_7 
REMARK    5  A    between atoms: C11_14  and  O1_15 
REMARK    6  A    between atoms: O1_15  and  C12_16 
REMARK    7  A    between atoms: C13_18  and  O2_19 
REMARK    8  A    between atoms: O2_19  and  C14_20 
REMARK    9  A    between atoms: C14_20  and  C15_21 
REMARK   10  A    between atoms: C15_21  and  C16_22 
REMARK   11  A    between atoms: C16_22  and  N4_23 
ROOT
HETATM    1  C7  UNL     1      25.865   2.340  51.322  1.00  0.00     0.081 A 
HETATM    2  N2  UNL     1      27.160   2.297  51.761  1.00  0.00    -0.240 NA
HETATM    3  C8  UNL     1      27.518   1.431  52.766  1.00  0.00     0.234 A 
HETATM    4  N3  UNL     1      26.622   0.618  53.331  1.00  0.00    -0.241 NA
HETATM    5  C9  UNL     1      25.331   0.579  52.974  1.00  0.00     0.073 A 
HETATM    6  C10 UNL     1      24.355  -0.226  53.480  1.00  0.00     0.072 A 
HETATM    7  C11 UNL     1      23.063  -0.173  53.000  1.00  0.00     0.107 A 
HETATM    8  C13 UNL     1      22.750   0.710  51.988  1.00  0.00     0.103 A 
HETATM    9  C19 UNL     1      23.754   1.510  51.498  1.00  0.00     0.055 A 
HETATM   10  C20 UNL     1      25.039   1.462  51.974  1.00  0.00     0.025 A 
ENDROOT
BRANCH   1  11
HETATM   11  C4  UNL     1      25.703   3.307  50.280  1.00  0.00    -0.005 C 
HETATM   12  C3  UNL     1      26.915   3.725  49.859  1.00  0.00     0.010 C 
BRANCH  12  13
HETATM   13  C2  UNL     1      26.974   4.756  48.838  1.00  0.00    -0.025 C 
HETATM   14  C1  UNL     1      28.058   5.385  48.457  1.00  0.00     0.031 C 
ENDBRANCH  12  13
BRANCH  11  15
HETATM   15  C5  UNL     1      24.716   4.045  49.558  1.00  0.00     0.030 C 
HETATM   16  C6  UNL     1      23.611   4.175  48.866  1.00  0.00     0.081 C 
BRANCH  16  17
HETATM   17  N1  UNL     1      22.811   5.109  48.222  1.00  0.00    -0.408 N 
HETATM   18  H7  UNL     1      23.004   6.131  48.086  1.00  0.00     0.155 HD
HETATM   19  H8  UNL     1      21.871   4.942  47.770  1.00  0.00     0.155 HD
ENDBRANCH  16  17
ENDBRANCH  11  15
ENDBRANCH   1  11
BRANCH   8  20
HETATM   20  O2  UNL     1      21.433   0.676  51.587  1.00  0.00    -0.348 OA
BRANCH  20  21
HETATM   21  C14 UNL     1      20.939   0.863  50.297  1.00  0.00     0.177 C 
BRANCH  21  22
HETATM   22  C15 UNL     1      19.456   1.069  50.383  1.00  0.00     0.057 C 
BRANCH  22  23
HETATM   23  C16 UNL     1      18.838   0.765  51.701  1.00  0.00     0.273 C 
BRANCH  23  24
HETATM   24  N4  UNL     1      18.203  -0.536  51.761  1.00  0.00     0.080 N 
HETATM   25  C17 UNL     1      18.229  -1.079  53.108  1.00  0.00     0.309 C 
HETATM   26  C18 UNL     1      16.789  -0.323  51.440  1.00  0.00     0.309 C 
ENDBRANCH  23  24
ENDBRANCH  22  23
ENDBRANCH  21  22
ENDBRANCH  20  21
ENDBRANCH   8  20
BRANCH   7  27
HETATM   27  O1  UNL     1      22.101  -1.033  53.568  1.00  0.00    -0.319 OA
BRANCH  27  28
HETATM   28  C12 UNL     1      21.545  -0.762  54.838  1.00  0.00     0.398 C 
HETATM   29  F1  UNL     1      20.887   0.427  54.896  1.00  0.00    -0.227 F 
ENDBRANCH  27  28
ENDBRANCH   7  27
TORSDOF 11
ENDMDL
MODEL 6
REMARK VINA RESULT:      -6.5      3.186      5.738
REMARK  11 active torsions:
REMARK  status: ('A' for Active; 'I' for Inactive)
REMARK    1  A    between atoms: C2_2  and  C3_3 
REMARK    2  A    between atoms: C4_4  and  C5_5 
REMARK    3  A    between atoms: C4_4  and  C7_8 
REMARK    4  A    between atoms: C6_6  and  N1_7 
REMARK    5  A    between atoms: C11_14  and  O1_15 
REMARK    6  A    between atoms: O1_15  and  C12_16 
REMARK    7  A    between atoms: C13_18  and  O2_19 
REMARK    8  A    between atoms: O2_19  and  C14_20 
REMARK    9  A    between atoms: C14_20  and  C15_21 
REMARK   10  A    between atoms: C15_21  and  C16_22 
REMARK   11  A    between atoms: C16_22  and  N4_23 
ROOT
HETATM    1  C7  UNL     1      24.997  -0.339  53.976  1.00  0.00     0.081 A 
HETATM    2  N2  UNL     1      24.891  -1.114  55.097  1.00  0.00    -0.240 NA
HETATM    3  C8  UNL     1      23.653  -1.441  55.595  1.00  0.00     0.234 A 
HETATM    4  N3  UNL     1      22.534  -1.017  55.001  1.00  0.00    -0.241 NA
HETATM    5  C9  UNL     1      22.526  -0.257  53.898  1.00  0.00     0.073 A 
HETATM    6  C10 UNL     1      21.439   0.204  53.218  1.00  0.00     0.072 A 
HETATM    7  C11 UNL     1      21.579   0.965  52.076  1.00  0.00     0.107 A 
HETATM    8  C13 UNL     1      22.843   1.267  51.612  1.00  0.00     0.103 A 
HETATM    9  C19 UNL     1      23.920   0.789  52.319  1.00  0.00     0.055 A 
HETATM   10  C20 UNL     1      23.785   0.033  53.455  1.00  0.00     0.025 A 
ENDROOT
BRANCH   1  11
HETATM   11  C4  UNL     1      26.366  -0.112  53.629  1.00  0.00    -0.005 C 
HETATM   12  C3  UNL     1      26.952  -1.284  53.310  1.00  0.00     0.010 C 
BRANCH  12  13
HETATM   13  C2  UNL     1      28.366  -1.283  52.981  1.00  0.00    -0.025 C 
HETATM   14  C1  UNL     1      29.200  -2.267  53.214  1.00  0.00     0.031 C 
ENDBRANCH  12  13
BRANCH  11  15
HETATM   15  C5  UNL     1      27.366   0.906  53.556  1.00  0.00     0.030 C 
HETATM   16  C6  UNL     1      27.799   2.121  53.330  1.00  0.00     0.081 C 
BRANCH  16  17
HETATM   17  N1  UNL     1      28.942   2.909  53.339  1.00  0.00    -0.408 N 
HETATM   18  H7  UNL     1      29.897   2.654  52.988  1.00  0.00     0.155 HD
HETATM   19  H8  UNL     1      29.037   3.894  53.709  1.00  0.00     0.155 HD
ENDBRANCH  16  17
ENDBRANCH  11  15
ENDBRANCH   1  11
BRANCH   8  20
HETATM   20  O2  UNL     1      22.863   2.030  50.466  1.00  0.00    -0.348 OA
BRANCH  20  21
HETATM   21  C14 UNL     1      23.726   3.084  50.169  1.00  0.00     0.177 C 
BRANCH  21  22
HETATM   22  C15 UNL     1      23.368   4.249  51.044  1.00  0.00     0.057 C 
BRANCH  22  23
HETATM   23  C16 UNL     1      24.241   5.446  50.912  1.00  0.00     0.273 C 
BRANCH  23  24
HETATM   24  N4  UNL     1      23.619   6.548  50.207  1.00  0.00     0.080 N 
HETATM   25  C17 UNL     1      23.813   7.806  50.908  1.00  0.00     0.309 C 
HETATM   26  C18 UNL     1      24.332   6.682  48.934  1.00  0.00     0.309 C 
ENDBRANCH  23  24
ENDBRANCH  22  23
ENDBRANCH  21  22
ENDBRANCH  20  21
ENDBRANCH   8  20
BRANCH   7  27
HETATM   27  O1  UNL     1      20.414   1.411  51.420  1.00  0.00    -0.319 OA
BRANCH  27  28
HETATM   28  C12 UNL     1      19.668   0.540  50.596  1.00  0.00     0.398 C 
HETATM   29  F1  UNL     1      18.826  -0.272  51.290  1.00  0.00    -0.227 F 
ENDBRANCH  27  28
ENDBRANCH   7  27
TORSDOF 11
ENDMDL
MODEL 7
REMARK VINA RESULT:      -6.5      2.276      5.034
REMARK  11 active torsions:
REMARK  status: ('A' for Active; 'I' for Inactive)
REMARK    1  A    between atoms: C2_2  and  C3_3 
REMARK    2  A    between atoms: C4_4  and  C5_5 
REMARK    3  A    between atoms: C4_4  and  C7_8 
REMARK    4  A    between atoms: C6_6  and  N1_7 
REMARK    5  A    between atoms: C11_14  and  O1_15 
REMARK    6  A    between atoms: O1_15  and  C12_16 
REMARK    7  A    between atoms: C13_18  and  O2_19 
REMARK    8  A    between atoms: O2_19  and  C14_20 
REMARK    9  A    between atoms: C14_20  and  C15_21 
REMARK   10  A    between atoms: C15_21  and  C16_22 
REMARK   11  A    between atoms: C16_22  and  N4_23 
ROOT
HETATM    1  C7  UNL     1      21.575   1.685  52.514  1.00  0.00     0.081 A 
HETATM    2  N2  UNL     1      20.441   2.422  52.317  1.00  0.00    -0.240 NA
HETATM    3  C8  UNL     1      20.510   3.635  51.674  1.00  0.00     0.234 A 
HETATM    4  N3  UNL     1      21.674   4.116  51.228  1.00  0.00    -0.241 NA
HETATM    5  C9  UNL     1      22.841   3.473  51.368  1.00  0.00     0.073 A 
HETATM    6  C10 UNL     1      24.067   3.877  50.932  1.00  0.00     0.072 A 
HETATM    7  C11 UNL     1      25.189   3.100  51.127  1.00  0.00     0.107 A 
HETATM    8  C13 UNL     1      25.070   1.888  51.776  1.00  0.00     0.103 A 
HETATM    9  C19 UNL     1      23.822   1.506  52.205  1.00  0.00     0.055 A 
HETATM   10  C20 UNL     1      22.705   2.278  52.014  1.00  0.00     0.025 A 
ENDROOT
BRANCH   1  11
HETATM   11  C4  UNL     1      21.287   0.465  53.204  1.00  0.00    -0.005 C 
HETATM   12  C3  UNL     1      20.005   0.109  52.977  1.00  0.00     0.010 C 
BRANCH  12  13
HETATM   13  C2  UNL     1      19.490  -1.078  53.635  1.00  0.00    -0.025 C 
HETATM   14  C1  UNL     1      18.314  -1.615  53.421  1.00  0.00     0.031 C 
ENDBRANCH  12  13
BRANCH  11  15
HETATM   15  C5  UNL     1      21.848  -0.492  54.104  1.00  0.00     0.030 C 
HETATM   16  C6  UNL     1      22.734  -0.922  54.968  1.00  0.00     0.081 C 
BRANCH  16  17
HETATM   17  N1  UNL     1      23.066  -2.008  55.767  1.00  0.00    -0.408 N 
HETATM   18  H7  UNL     1      23.887  -2.099  56.413  1.00  0.00     0.155 HD
HETATM   19  H8  UNL     1      22.547  -2.925  55.847  1.00  0.00     0.155 HD
ENDBRANCH  16  17
ENDBRANCH  11  15
ENDBRANCH   1  11
BRANCH   8  20
HETATM   20  O2  UNL     1      26.253   1.196  51.914  1.00  0.00    -0.348 OA
BRANCH  20  21
HETATM   21  C14 UNL     1      26.430  -0.187  51.887  1.00  0.00     0.177 C 
BRANCH  21  22
HETATM   22  C15 UNL     1      26.921  -0.628  53.234  1.00  0.00     0.057 C 
BRANCH  22  23
HETATM   23  C16 UNL     1      27.556   0.427  54.066  1.00  0.00     0.273 C 
BRANCH  23  24
HETATM   24  N4  UNL     1      28.888   0.793  53.628  1.00  0.00     0.080 N 
HETATM   25  C17 UNL     1      29.479   1.793  54.501  1.00  0.00     0.309 C 
HETATM   26  C18 UNL     1      29.716  -0.407  53.772  1.00  0.00     0.309 C 
ENDBRANCH  23  24
ENDBRANCH  22  23
ENDBRANCH  21  22
ENDBRANCH  20  21
ENDBRANCH   8  20
BRANCH   7  27
HETATM   27  O1  UNL     1      26.427   3.577  50.652  1.00  0.00    -0.319 OA
BRANCH  27  28
HETATM   28  C12 UNL     1      26.710   3.606  49.268  1.00  0.00     0.398 C 
HETATM   29  F1  UNL     1      26.976   4.854  48.797  1.00  0.00    -0.227 F 
ENDBRANCH  27  28
ENDBRANCH   7  27
TORSDOF 11
ENDMDL
MODEL 8
REMARK VINA RESULT:      -6.4      3.339      6.092
REMARK  11 active torsions:
REMARK  status: ('A' for Active; 'I' for Inactive)
REMARK    1  A    between atoms: C2_2  and  C3_3 
REMARK    2  A    between atoms: C4_4  and  C5_5 
REMARK    3  A    between atoms: C4_4  and  C7_8 
REMARK    4  A    between atoms: C6_6  and  N1_7 
REMARK    5  A    between atoms: C11_14  and  O1_15 
REMARK    6  A    between atoms: O1_15  and  C12_16 
REMARK    7  A    between atoms: C13_18  and  O2_19 
REMARK    8  A    between atoms: O2_19  and  C14_20 
REMARK    9  A    between atoms: C14_20  and  C15_21 
REMARK   10  A    between atoms: C15_21  and  C16_22 
REMARK   11  A    between atoms: C16_22  and  N4_23 
ROOT
HETATM    1  C7  UNL     1      25.859   2.313  51.636  1.00  0.00     0.081 A 
HETATM    2  N2  UNL     1      27.164   2.177  52.021  1.00  0.00    -0.240 NA
HETATM    3  C8  UNL     1      27.532   1.151  52.857  1.00  0.00     0.234 A 
HETATM    4  N3  UNL     1      26.635   0.269  53.307  1.00  0.00    -0.241 NA
HETATM    5  C9  UNL     1      25.335   0.310  52.988  1.00  0.00     0.073 A 
HETATM    6  C10 UNL     1      24.357  -0.552  53.384  1.00  0.00     0.072 A 
HETATM    7  C11 UNL     1      23.054  -0.400  52.959  1.00  0.00     0.107 A 
HETATM    8  C13 UNL     1      22.731   0.644  52.117  1.00  0.00     0.103 A 
HETATM    9  C19 UNL     1      23.737   1.499  51.736  1.00  0.00     0.055 A 
HETATM   10  C20 UNL     1      25.034   1.352  52.158  1.00  0.00     0.025 A 
ENDROOT
BRANCH   1  11
HETATM   11  C4  UNL     1      25.688   3.442  50.774  1.00  0.00    -0.005 C 
HETATM   12  C3  UNL     1      26.703   3.491  49.886  1.00  0.00     0.010 C 
BRANCH  12  13
HETATM   13  C2  UNL     1      26.750   4.601  48.951  1.00  0.00    -0.025 C 
HETATM   14  C1  UNL     1      27.842   5.178  48.513  1.00  0.00     0.031 C 
ENDBRANCH  12  13
BRANCH  11  15
HETATM   15  C5  UNL     1      24.860   4.584  50.547  1.00  0.00     0.030 C 
HETATM   16  C6  UNL     1      23.974   5.486  50.889  1.00  0.00     0.081 C 
BRANCH  16  17
HETATM   17  N1  UNL     1      23.281   6.593  50.418  1.00  0.00    -0.408 N 
HETATM   18  H7  UNL     1      23.680   7.505  50.091  1.00  0.00     0.155 HD
HETATM   19  H8  UNL     1      22.234   6.697  50.319  1.00  0.00     0.155 HD
ENDBRANCH  16  17
ENDBRANCH  11  15
ENDBRANCH   1  11
BRANCH   8  20
HETATM   20  O2  UNL     1      21.403   0.698  51.756  1.00  0.00    -0.348 OA
BRANCH  20  21
HETATM   21  C14 UNL     1      20.755   1.725  51.071  1.00  0.00     0.177 C 
BRANCH  21  22
HETATM   22  C15 UNL     1      19.805   2.399  52.015  1.00  0.00     0.057 C 
BRANCH  22  23
HETATM   23  C16 UNL     1      18.414   2.569  51.517  1.00  0.00     0.273 C 
BRANCH  23  24
HETATM   24  N4  UNL     1      17.982   3.951  51.454  1.00  0.00     0.080 N 
HETATM   25  C17 UNL     1      18.051   4.468  50.098  1.00  0.00     0.309 C 
HETATM   26  C18 UNL     1      16.562   3.958  51.817  1.00  0.00     0.309 C 
ENDBRANCH  23  24
ENDBRANCH  22  23
ENDBRANCH  21  22
ENDBRANCH  20  21
ENDBRANCH   8  20
BRANCH   7  27
HETATM   27  O1  UNL     1      22.090  -1.328  53.405  1.00  0.00    -0.319 OA
BRANCH  27  28
HETATM   28  C12 UNL     1      21.280  -1.047  54.527  1.00  0.00     0.398 C 
HETATM   29  F1  UNL     1      21.557   0.151  55.108  1.00  0.00    -0.227 F 
ENDBRANCH  27  28
ENDBRANCH   7  27
TORSDOF 11
ENDMDL
MODEL 9
REMARK VINA RESULT:      -6.1      3.982      6.379
REMARK  11 active torsions:
REMARK  status: ('A' for Active; 'I' for Inactive)
REMARK    1  A    between atoms: C2_2  and  C3_3 
REMARK    2  A    between atoms: C4_4  and  C5_5 
REMARK    3  A    between atoms: C4_4  and  C7_8 
REMARK    4  A    between atoms: C6_6  and  N1_7 
REMARK    5  A    between atoms: C11_14  and  O1_15 
REMARK    6  A    between atoms: O1_15  and  C12_16 
REMARK    7  A    between atoms: C13_18  and  O2_19 
REMARK    8  A    between atoms: O2_19  and  C14_20 
REMARK    9  A    between atoms: C14_20  and  C15_21 
REMARK   10  A    between atoms: C15_21  and  C16_22 
REMARK   11  A    between atoms: C16_22  and  N4_23 
ROOT
HETATM    1  C7  UNL     1      24.411   1.673  52.560  1.00  0.00     0.081 A 
HETATM    2  N2  UNL     1      23.466   0.844  53.098  1.00  0.00    -0.240 NA
HETATM    3  C8  UNL     1      22.133   1.161  52.995  1.00  0.00     0.234 A 
HETATM    4  N3  UNL     1      21.732   2.273  52.373  1.00  0.00    -0.241 NA
HETATM    5  C9  UNL     1      22.574   3.149  51.810  1.00  0.00     0.073 A 
HETATM    6  C10 UNL     1      22.256   4.293  51.142  1.00  0.00     0.072 A 
HETATM    7  C11 UNL     1      23.232   5.096  50.591  1.00  0.00     0.107 A 
HETATM    8  C13 UNL     1      24.559   4.736  50.717  1.00  0.00     0.103 A 
HETATM    9  C19 UNL     1      24.850   3.578  51.397  1.00  0.00     0.055 A 
HETATM   10  C20 UNL     1      23.882   2.778  51.947  1.00  0.00     0.025 A 
ENDROOT
BRANCH   1  11
HETATM   11  C4  UNL     1      25.731   1.166  52.781  1.00  0.00    -0.005 C 
HETATM   12  C3  UNL     1      25.800  -0.113  52.357  1.00  0.00     0.010 C 
BRANCH  12  13
HETATM   13  C2  UNL     1      27.045  -0.836  52.543  1.00  0.00    -0.025 C 
HETATM   14  C1  UNL     1      27.160  -2.139  52.635  1.00  0.00     0.031 C 
ENDBRANCH  12  13
BRANCH  11  15
HETATM   15  C5  UNL     1      26.998   1.503  53.348  1.00  0.00     0.030 C 
HETATM   16  C6  UNL     1      28.054   2.261  53.512  1.00  0.00     0.081 C 
BRANCH  16  17
HETATM   17  N1  UNL     1      29.258   2.350  54.197  1.00  0.00    -0.408 N 
HETATM   18  H7  UNL     1      29.405   2.340  55.235  1.00  0.00     0.155 HD
HETATM   19  H8  UNL     1      30.224   2.450  53.781  1.00  0.00     0.155 HD
ENDBRANCH  16  17
ENDBRANCH  11  15
ENDBRANCH   1  11
BRANCH   8  20
HETATM   20  O2  UNL     1      25.446   5.610  50.129  1.00  0.00    -0.348 OA
BRANCH  20  21
HETATM   21  C14 UNL     1      26.336   5.337  49.091  1.00  0.00     0.177 C 
BRANCH  21  22
HETATM   22  C15 UNL     1      26.542   6.594  48.300  1.00  0.00     0.057 C 
BRANCH  22  23
HETATM   23  C16 UNL     1      27.745   7.391  48.657  1.00  0.00     0.273 C 
BRANCH  23  24
HETATM   24  N4  UNL     1      27.484   8.809  48.802  1.00  0.00     0.080 N 
HETATM   25  C17 UNL     1      27.306   9.179  50.196  1.00  0.00     0.309 C 
HETATM   26  C18 UNL     1      28.695   9.502  48.353  1.00  0.00     0.309 C 
ENDBRANCH  23  24
ENDBRANCH  22  23
ENDBRANCH  21  22
ENDBRANCH  20  21
ENDBRANCH   8  20
BRANCH   7  27
HETATM   27  O1  UNL     1      22.835   6.267  49.913  1.00  0.00    -0.319 OA
BRANCH  27  28
HETATM   28  C12 UNL     1      22.441   7.420  50.628  1.00  0.00     0.398 C 
HETATM   29  F1  UNL     1      23.162   8.527  50.306  1.00  0.00    -0.227 F 
ENDBRANCH  27  28
ENDBRANCH   7  27
TORSDOF 11
ENDMDL
