MODEL 1
REMARK VINA RESULT:      -7.7      0.000      0.000
REMARK  8 active torsions:
REMARK  status: ('A' for Active; 'I' for Inactive)
REMARK    1  A    between atoms: C2_2  and  S1_3 
REMARK    2  A    between atoms: S1_3  and  N1_6 
REMARK    3  A    between atoms: N1_6  and  C3_7 
REMARK    4  A    between atoms: N2_11  and  C7_12 
REMARK    5  A    between atoms: C7_12  and  N3_13 
REMARK    6  A    between atoms: N4_14  and  C8_15 
REMARK    7  A    between atoms: C8_15  and  N5_16 
REMARK    8  A    between atoms: N5_16  and  C9_17 
ROOT
HETATM    1  C3  UNL     1      26.105   0.944  54.170  1.00  0.00     0.133 A 
HETATM    2  C4  UNL     1      25.473  -0.219  54.121  1.00  0.00     0.030 A 
HETATM    3  C5  UNL     1      24.159  -0.606  53.541  1.00  0.00     0.091 A 
HETATM    4  C6  UNL     1      23.564   0.620  52.949  1.00  0.00     0.052 A 
HETATM    5  N2  UNL     1      22.438   0.318  52.446  1.00  0.00    -0.269 NA
HETATM    6  C15 UNL     1      24.252   1.908  52.997  1.00  0.00     0.146 A 
HETATM    7  N6  UNL     1      25.408   2.024  53.560  1.00  0.00    -0.241 NA
ENDROOT
BRANCH   5   8
HETATM    8  C7  UNL     1      21.590   1.277  51.788  1.00  0.00     0.322 C 
BRANCH   8   9
HETATM    9  N3  UNL     1      21.618   1.148  50.362  1.00  0.00    -0.175 NA
HETATM   10  N4  UNL     1      22.006   2.081  49.646  1.00  0.00    -0.177 NA
BRANCH  10  11
HETATM   11  C8  UNL     1      22.438   3.315  50.238  1.00  0.00     0.295 C 
BRANCH  11  12
HETATM   12  N5  UNL     1      23.038   4.183  49.251  1.00  0.00    -0.370 N 
HETATM   13  H12 UNL     1      22.451   4.701  48.557  1.00  0.00     0.161 HD
BRANCH  12  14
HETATM   14  C9  UNL     1      24.453   4.363  49.192  1.00  0.00     0.030 A 
HETATM   15  C10 UNL     1      25.326   3.338  49.537  1.00  0.00     0.029 A 
HETATM   16  C11 UNL     1      26.695   3.484  49.490  1.00  0.00     0.004 A 
HETATM   17  C12 UNL     1      27.215   4.697  49.085  1.00  0.00     0.019 A 
HETATM   18  C13 UNL     1      26.378   5.738  48.735  1.00  0.00     0.013 A 
HETATM   19 BR1  UNL     1      27.216   7.344  48.199  1.00  0.00    -0.051 Br
HETATM   20  C14 UNL     1      25.000   5.564  48.791  1.00  0.00     0.048 A 
ENDBRANCH  12  14
ENDBRANCH  11  12
ENDBRANCH  10  11
ENDBRANCH   8   9
ENDBRANCH   5   8
BRANCH   1  21
HETATM   21  N1  UNL     1      27.361   1.060  54.783  1.00  0.00    -0.265 N 
HETATM   22  H4  UNL     1      27.234   0.941  55.825  1.00  0.00     0.180 HD
BRANCH  21  23
HETATM   23  S1  UNL     1      28.882   1.347  54.030  1.00  0.00     0.253 S 
HETATM   24  O1  UNL     1      29.626   2.323  54.928  1.00  0.00    -0.201 OA
HETATM   25  O2  UNL     1      28.605   2.114  52.760  1.00  0.00    -0.201 OA
BRANCH  23  26
HETATM   26  C2  UNL     1      29.792  -0.093  53.708  1.00  0.00     0.121 C 
HETATM   27  C1  UNL     1      29.137  -1.169  53.276  1.00  0.00     0.025 C 
ENDBRANCH  23  26
ENDBRANCH  21  23
ENDBRANCH   1  21
TORSDOF 8
ENDMDL
MODEL 2
REMARK VINA RESULT:      -7.6      1.745      2.100
REMARK  8 active torsions:
REMARK  status: ('A' for Active; 'I' for Inactive)
REMARK    1  A    between atoms: C2_2  and  S1_3 
REMARK    2  A    between atoms: S1_3  and  N1_6 
REMARK    3  A    between atoms: N1_6  and  C3_7 
REMARK    4  A    between atoms: N2_11  and  C7_12 
REMARK    5  A    between atoms: C7_12  and  N3_13 
REMARK    6  A    between atoms: N4_14  and  C8_15 
REMARK    7  A    between atoms: C8_15  and  N5_16 
REMARK    8  A    between atoms: N5_16  and  C9_17 
ROOT
HETATM    1  C3  UNL     1      26.068   0.985  54.103  1.00  0.00     0.133 A 
HETATM    2  C4  UNL     1      25.333  -0.118  54.080  1.00  0.00     0.030 A 
HETATM    3  C5  UNL     1      23.984  -0.394  53.518  1.00  0.00     0.091 A 
HETATM    4  C6  UNL     1      23.496   0.870  52.909  1.00  0.00     0.052 A 
HETATM    5  N2  UNL     1      22.343   0.663  52.421  1.00  0.00    -0.269 NA
HETATM    6  C15 UNL     1      24.297   2.091  52.929  1.00  0.00     0.146 A 
HETATM    7  N6  UNL     1      25.465   2.112  53.481  1.00  0.00    -0.241 NA
ENDROOT
BRANCH   5   8
HETATM    8  C7  UNL     1      21.578   1.684  51.753  1.00  0.00     0.322 C 
BRANCH   8   9
HETATM    9  N3  UNL     1      20.804   2.474  52.663  1.00  0.00    -0.175 NA
HETATM   10  N4  UNL     1      20.742   3.705  52.542  1.00  0.00    -0.177 NA
BRANCH  10  11
HETATM   11  C8  UNL     1      21.449   4.364  51.481  1.00  0.00     0.295 C 
BRANCH  11  12
HETATM   12  N5  UNL     1      22.278   5.431  51.993  1.00  0.00    -0.370 N 
HETATM   13  H12 UNL     1      22.066   5.888  52.910  1.00  0.00     0.161 HD
BRANCH  12  14
HETATM   14  C9  UNL     1      23.414   5.895  51.263  1.00  0.00     0.030 A 
HETATM   15  C10 UNL     1      23.653   7.253  51.088  1.00  0.00     0.029 A 
HETATM   16  C11 UNL     1      24.740   7.729  50.388  1.00  0.00     0.004 A 
HETATM   17  C12 UNL     1      25.622   6.819  49.843  1.00  0.00     0.019 A 
HETATM   18  C13 UNL     1      25.417   5.462  49.997  1.00  0.00     0.013 A 
HETATM   19 BR1  UNL     1      26.698   4.323  49.202  1.00  0.00    -0.051 Br
HETATM   20  C14 UNL     1      24.312   5.009  50.708  1.00  0.00     0.048 A 
ENDBRANCH  12  14
ENDBRANCH  11  12
ENDBRANCH  10  11
ENDBRANCH   8   9
ENDBRANCH   5   8
BRANCH   1  21
HETATM   21  N1  UNL     1      27.335   0.997  54.704  1.00  0.00    -0.265 N 
HETATM   22  H4  UNL     1      27.225   0.723  55.718  1.00  0.00     0.180 HD
BRANCH  21  23
HETATM   23  S1  UNL     1      28.846   1.382  53.975  1.00  0.00     0.253 S 
HETATM   24  O1  UNL     1      29.561   2.314  54.941  1.00  0.00    -0.201 OA
HETATM   25  O2  UNL     1      28.545   2.229  52.762  1.00  0.00    -0.201 OA
BRANCH  23  26
HETATM   26  C2  UNL     1      29.799  -0.003  53.553  1.00  0.00     0.121 C 
HETATM   27  C1  UNL     1      29.203  -1.194  53.529  1.00  0.00     0.025 C 
ENDBRANCH  23  26
ENDBRANCH  21  23
ENDBRANCH   1  21
TORSDOF 8
ENDMDL
MODEL 3
REMARK VINA RESULT:      -7.3      1.799      2.024
REMARK  8 active torsions:
REMARK  status: ('A' for Active; 'I' for Inactive)
REMARK    1  A    between atoms: C2_2  and  S1_3 
REMARK    2  A    between atoms: S1_3  and  N1_6 
REMARK    3  A    between atoms: N1_6  and  C3_7 
REMARK    4  A    between atoms: N2_11  and  C7_12 
REMARK    5  A    between atoms: C7_12  and  N3_13 
REMARK    6  A    between atoms: N4_14  and  C8_15 
REMARK    7  A    between atoms: C8_15  and  N5_16 
REMARK    8  A    between atoms: N5_16  and  C9_17 
ROOT
HETATM    1  C3  UNL     1      24.656  -0.182  53.685  1.00  0.00     0.133 A 
HETATM    2  C4  UNL     1      23.464  -0.713  53.916  1.00  0.00     0.030 A 
HETATM    3  C5  UNL     1      22.090  -0.192  53.688  1.00  0.00     0.091 A 
HETATM    4  C6  UNL     1      22.227   1.164  53.096  1.00  0.00     0.052 A 
HETATM    5  N2  UNL     1      21.066   1.634  52.891  1.00  0.00    -0.269 NA
HETATM    6  C15 UNL     1      23.536   1.758  52.837  1.00  0.00     0.146 A 
HETATM    7  N6  UNL     1      24.624   1.121  53.116  1.00  0.00    -0.241 NA
ENDROOT
BRANCH   5   8
HETATM    8  C7  UNL     1      20.836   2.936  52.323  1.00  0.00     0.322 C 
BRANCH   8   9
HETATM    9  N3  UNL     1      20.450   2.874  50.945  1.00  0.00    -0.175 NA
HETATM   10  N4  UNL     1      21.062   3.520  50.083  1.00  0.00    -0.177 NA
BRANCH  10  11
HETATM   11  C8  UNL     1      22.174   4.346  50.454  1.00  0.00     0.295 C 
BRANCH  11  12
HETATM   12  N5  UNL     1      22.927   4.758  49.292  1.00  0.00    -0.370 N 
HETATM   13  H12 UNL     1      22.452   5.177  48.459  1.00  0.00     0.161 HD
BRANCH  12  14
HETATM   14  C9  UNL     1      24.346   4.605  49.243  1.00  0.00     0.030 A 
HETATM   15  C10 UNL     1      24.956   3.409  49.599  1.00  0.00     0.029 A 
HETATM   16  C11 UNL     1      26.322   3.234  49.562  1.00  0.00     0.004 A 
HETATM   17  C12 UNL     1      27.110   4.291  49.153  1.00  0.00     0.019 A 
HETATM   18  C13 UNL     1      26.539   5.494  48.791  1.00  0.00     0.013 A 
HETATM   19 BR1  UNL     1      27.729   6.860  48.252  1.00  0.00    -0.051 Br
HETATM   20  C14 UNL     1      25.158   5.644  48.838  1.00  0.00     0.048 A 
ENDBRANCH  12  14
ENDBRANCH  11  12
ENDBRANCH  10  11
ENDBRANCH   8   9
ENDBRANCH   5   8
BRANCH   1  21
HETATM   21  N1  UNL     1      25.832  -0.883  53.991  1.00  0.00    -0.265 N 
HETATM   22  H4  UNL     1      25.715  -1.327  54.942  1.00  0.00     0.180 HD
BRANCH  21  23
HETATM   23  S1  UNL     1      27.252  -1.032  53.031  1.00  0.00     0.253 S 
HETATM   24  O1  UNL     1      26.868  -0.587  51.628  1.00  0.00    -0.201 OA
HETATM   25  O2  UNL     1      27.547  -2.508  52.908  1.00  0.00    -0.201 OA
BRANCH  23  26
HETATM   26  C2  UNL     1      28.620  -0.169  53.656  1.00  0.00     0.121 C 
HETATM   27  C1  UNL     1      29.762  -0.833  53.820  1.00  0.00     0.025 C 
ENDBRANCH  23  26
ENDBRANCH  21  23
ENDBRANCH   1  21
TORSDOF 8
ENDMDL
MODEL 4
REMARK VINA RESULT:      -7.1      2.964      3.847
REMARK  8 active torsions:
REMARK  status: ('A' for Active; 'I' for Inactive)
REMARK    1  A    between atoms: C2_2  and  S1_3 
REMARK    2  A    between atoms: S1_3  and  N1_6 
REMARK    3  A    between atoms: N1_6  and  C3_7 
REMARK    4  A    between atoms: N2_11  and  C7_12 
REMARK    5  A    between atoms: C7_12  and  N3_13 
REMARK    6  A    between atoms: N4_14  and  C8_15 
REMARK    7  A    between atoms: C8_15  and  N5_16 
REMARK    8  A    between atoms: N5_16  and  C9_17 
ROOT
HETATM    1  C3  UNL     1      25.685   0.382  52.448  1.00  0.00     0.133 A 
HETATM    2  C4  UNL     1      25.517   1.508  51.771  1.00  0.00     0.030 A 
HETATM    3  C5  UNL     1      24.318   2.360  51.551  1.00  0.00     0.091 A 
HETATM    4  C6  UNL     1      23.188   1.719  52.270  1.00  0.00     0.052 A 
HETATM    5  N2  UNL     1      22.148   2.427  52.099  1.00  0.00    -0.269 NA
HETATM    6  C15 UNL     1      23.360   0.478  53.020  1.00  0.00     0.146 A 
HETATM    7  N6  UNL     1      24.510  -0.108  53.083  1.00  0.00    -0.241 NA
ENDROOT
BRANCH   5   8
HETATM    8  C7  UNL     1      20.868   2.090  52.663  1.00  0.00     0.322 C 
BRANCH   8   9
HETATM    9  N3  UNL     1      19.964   3.201  52.679  1.00  0.00    -0.175 NA
HETATM   10  N4  UNL     1      18.935   3.194  51.991  1.00  0.00    -0.177 NA
BRANCH  10  11
HETATM   11  C8  UNL     1      18.629   2.066  51.160  1.00  0.00     0.295 C 
BRANCH  11  12
HETATM   12  N5  UNL     1      18.649   2.429  49.761  1.00  0.00    -0.370 N 
HETATM   13  H12 UNL     1      17.772   2.696  49.258  1.00  0.00     0.161 HD
BRANCH  12  14
HETATM   14  C9  UNL     1      19.871   2.437  49.021  1.00  0.00     0.030 A 
HETATM   15  C10 UNL     1      20.754   1.366  49.076  1.00  0.00     0.029 A 
HETATM   16  C11 UNL     1      21.939   1.347  48.373  1.00  0.00     0.004 A 
HETATM   17  C12 UNL     1      22.255   2.435  47.585  1.00  0.00     0.019 A 
HETATM   18  C13 UNL     1      21.401   3.517  47.506  1.00  0.00     0.013 A 
HETATM   19 BR1  UNL     1      21.951   4.941  46.393  1.00  0.00    -0.051 Br
HETATM   20  C14 UNL     1      20.212   3.510  48.226  1.00  0.00     0.048 A 
ENDBRANCH  12  14
ENDBRANCH  11  12
ENDBRANCH  10  11
ENDBRANCH   8   9
ENDBRANCH   5   8
BRANCH   1  21
HETATM   21  N1  UNL     1      26.937  -0.246  52.511  1.00  0.00    -0.265 N 
HETATM   22  H4  UNL     1      27.088  -0.776  51.610  1.00  0.00     0.180 HD
BRANCH  21  23
HETATM   23  S1  UNL     1      28.078  -0.202  53.799  1.00  0.00     0.253 S 
HETATM   24  O1  UNL     1      28.844  -1.515  53.736  1.00  0.00    -0.201 OA
HETATM   25  O2  UNL     1      27.290  -0.268  55.085  1.00  0.00    -0.201 OA
BRANCH  23  26
HETATM   26  C2  UNL     1      29.121   1.183  53.771  1.00  0.00     0.121 C 
HETATM   27  C1  UNL     1      28.570   2.383  53.596  1.00  0.00     0.025 C 
ENDBRANCH  23  26
ENDBRANCH  21  23
ENDBRANCH   1  21
TORSDOF 8
ENDMDL
MODEL 5
REMARK VINA RESULT:      -7.1      2.945      4.686
REMARK  8 active torsions:
REMARK  status: ('A' for Active; 'I' for Inactive)
REMARK    1  A    between atoms: C2_2  and  S1_3 
REMARK    2  A    between atoms: S1_3  and  N1_6 
REMARK    3  A    between atoms: N1_6  and  C3_7 
REMARK    4  A    between atoms: N2_11  and  C7_12 
REMARK    5  A    between atoms: C7_12  and  N3_13 
REMARK    6  A    between atoms: N4_14  and  C8_15 
REMARK    7  A    between atoms: C8_15  and  N5_16 
REMARK    8  A    between atoms: N5_16  and  C9_17 
ROOT
HETATM    1  C3  UNL     1      25.328   2.095  52.931  1.00  0.00     0.133 A 
HETATM    2  C4  UNL     1      24.443   2.999  53.325  1.00  0.00     0.030 A 
HETATM    3  C5  UNL     1      23.503   3.861  52.559  1.00  0.00     0.091 A 
HETATM    4  C6  UNL     1      23.698   3.550  51.119  1.00  0.00     0.052 A 
HETATM    5  N2  UNL     1      22.907   4.274  50.440  1.00  0.00    -0.269 NA
HETATM    6  C15 UNL     1      24.672   2.556  50.674  1.00  0.00     0.146 A 
HETATM    7  N6  UNL     1      25.399   1.910  51.523  1.00  0.00    -0.241 NA
ENDROOT
BRANCH   5   8
HETATM    8  C7  UNL     1      22.837   4.226  49.004  1.00  0.00     0.322 C 
BRANCH   8   9
HETATM    9  N3  UNL     1      21.524   4.509  48.507  1.00  0.00    -0.175 NA
HETATM   10  N4  UNL     1      20.805   3.607  48.057  1.00  0.00    -0.177 NA
BRANCH  10  11
HETATM   11  C8  UNL     1      21.280   2.253  48.026  1.00  0.00     0.295 C 
BRANCH  11  12
HETATM   12  N5  UNL     1      20.472   1.399  48.866  1.00  0.00    -0.370 N 
HETATM   13  H12 UNL     1      19.750   0.764  48.457  1.00  0.00     0.161 HD
BRANCH  12  14
HETATM   14  C9  UNL     1      20.637   1.396  50.285  1.00  0.00     0.030 A 
HETATM   15  C10 UNL     1      19.949   2.293  51.093  1.00  0.00     0.029 A 
HETATM   16  C11 UNL     1      20.089   2.312  52.463  1.00  0.00     0.004 A 
HETATM   17  C12 UNL     1      20.945   1.403  53.051  1.00  0.00     0.019 A 
HETATM   18  C13 UNL     1      21.644   0.496  52.280  1.00  0.00     0.013 A 
HETATM   19 BR1  UNL     1      22.782  -0.694  53.207  1.00  0.00    -0.051 Br
HETATM   20  C14 UNL     1      21.485   0.498  50.899  1.00  0.00     0.048 A 
ENDBRANCH  12  14
ENDBRANCH  11  12
ENDBRANCH  10  11
ENDBRANCH   8   9
ENDBRANCH   5   8
BRANCH   1  21
HETATM   21  N1  UNL     1      26.113   1.398  53.861  1.00  0.00    -0.265 N 
HETATM   22  H4  UNL     1      25.538   1.246  54.734  1.00  0.00     0.180 HD
BRANCH  21  23
HETATM   23  S1  UNL     1      27.737   0.857  53.678  1.00  0.00     0.253 S 
HETATM   24  O1  UNL     1      28.391   0.997  55.045  1.00  0.00    -0.201 OA
HETATM   25  O2  UNL     1      28.440   1.865  52.801  1.00  0.00    -0.201 OA
BRANCH  23  26
HETATM   26  C2  UNL     1      27.877  -0.745  53.031  1.00  0.00     0.121 C 
HETATM   27  C1  UNL     1      26.770  -1.353  52.607  1.00  0.00     0.025 C 
ENDBRANCH  23  26
ENDBRANCH  21  23
ENDBRANCH   1  21
TORSDOF 8
ENDMDL
MODEL 6
REMARK VINA RESULT:      -7.1      3.501      5.612
REMARK  8 active torsions:
REMARK  status: ('A' for Active; 'I' for Inactive)
REMARK    1  A    between atoms: C2_2  and  S1_3 
REMARK    2  A    between atoms: S1_3  and  N1_6 
REMARK    3  A    between atoms: N1_6  and  C3_7 
REMARK    4  A    between atoms: N2_11  and  C7_12 
REMARK    5  A    between atoms: C7_12  and  N3_13 
REMARK    6  A    between atoms: N4_14  and  C8_15 
REMARK    7  A    between atoms: C8_15  and  N5_16 
REMARK    8  A    between atoms: N5_16  and  C9_17 
ROOT
HETATM    1  C3  UNL     1      25.202   2.427  53.300  1.00  0.00     0.133 A 
HETATM    2  C4  UNL     1      24.827   1.550  52.381  1.00  0.00     0.030 A 
HETATM    3  C5  UNL     1      23.697   1.552  51.415  1.00  0.00     0.091 A 
HETATM    4  C6  UNL     1      22.940   2.812  51.630  1.00  0.00     0.052 A 
HETATM    5  N2  UNL     1      21.965   2.840  50.817  1.00  0.00    -0.269 NA
HETATM    6  C15 UNL     1      23.343   3.787  52.641  1.00  0.00     0.146 A 
HETATM    7  N6  UNL     1      24.378   3.583  53.386  1.00  0.00    -0.241 NA
ENDROOT
BRANCH   5   8
HETATM    8  C7  UNL     1      21.024   3.928  50.757  1.00  0.00     0.322 C 
BRANCH   8   9
HETATM    9  N3  UNL     1      19.956   3.784  51.700  1.00  0.00    -0.175 NA
HETATM   10  N4  UNL     1      18.942   3.131  51.419  1.00  0.00    -0.177 NA
BRANCH  10  11
HETATM   11  C8  UNL     1      18.821   2.504  50.134  1.00  0.00     0.295 C 
BRANCH  11  12
HETATM   12  N5  UNL     1      19.329   1.152  50.166  1.00  0.00    -0.370 N 
HETATM   13  H12 UNL     1      19.817   0.737  49.338  1.00  0.00     0.161 HD
BRANCH  12  14
HETATM   14  C9  UNL     1      19.181   0.337  51.329  1.00  0.00     0.030 A 
HETATM   15  C10 UNL     1      17.979  -0.298  51.618  1.00  0.00     0.029 A 
HETATM   16  C11 UNL     1      17.809  -1.089  52.733  1.00  0.00     0.004 A 
HETATM   17  C12 UNL     1      18.876  -1.254  53.593  1.00  0.00     0.019 A 
HETATM   18  C13 UNL     1      20.085  -0.639  53.338  1.00  0.00     0.013 A 
HETATM   19 BR1  UNL     1      21.465  -0.946  54.592  1.00  0.00    -0.051 Br
HETATM   20  C14 UNL     1      20.230   0.154  52.205  1.00  0.00     0.048 A 
ENDBRANCH  12  14
ENDBRANCH  11  12
ENDBRANCH  10  11
ENDBRANCH   8   9
ENDBRANCH   5   8
BRANCH   1  21
HETATM   21  N1  UNL     1      26.327   2.198  54.104  1.00  0.00    -0.265 N 
HETATM   22  H4  UNL     1      26.046   2.327  55.114  1.00  0.00     0.180 HD
BRANCH  21  23
HETATM   23  S1  UNL     1      27.918   1.776  53.600  1.00  0.00     0.253 S 
HETATM   24  O1  UNL     1      28.867   2.394  54.617  1.00  0.00    -0.201 OA
HETATM   25  O2  UNL     1      28.183   2.521  52.313  1.00  0.00    -0.201 OA
BRANCH  23  26
HETATM   26  C2  UNL     1      28.167   0.072  53.401  1.00  0.00     0.121 C 
HETATM   27  C1  UNL     1      29.365  -0.428  53.699  1.00  0.00     0.025 C 
ENDBRANCH  23  26
ENDBRANCH  21  23
ENDBRANCH   1  21
TORSDOF 8
ENDMDL
MODEL 7
REMARK VINA RESULT:      -7.1      2.922      4.026
REMARK  8 active torsions:
REMARK  status: ('A' for Active; 'I' for Inactive)
REMARK    1  A    between atoms: C2_2  and  S1_3 
REMARK    2  A    between atoms: S1_3  and  N1_6 
REMARK    3  A    between atoms: N1_6  and  C3_7 
REMARK    4  A    between atoms: N2_11  and  C7_12 
REMARK    5  A    between atoms: C7_12  and  N3_13 
REMARK    6  A    between atoms: N4_14  and  C8_15 
REMARK    7  A    between atoms: C8_15  and  N5_16 
REMARK    8  A    between atoms: N5_16  and  C9_17 
ROOT
HETATM    1  C3  UNL     1      26.187   0.736  52.089  1.00  0.00     0.133 A 
HETATM    2  C4  UNL     1      24.968   0.884  52.586  1.00  0.00     0.030 A 
HETATM    3  C5  UNL     1      23.914   1.902  52.330  1.00  0.00     0.091 A 
HETATM    4  C6  UNL     1      24.457   2.852  51.326  1.00  0.00     0.052 A 
HETATM    5  N2  UNL     1      23.576   3.735  51.089  1.00  0.00    -0.269 NA
HETATM    6  C15 UNL     1      25.800   2.698  50.771  1.00  0.00     0.146 A 
HETATM    7  N6  UNL     1      26.564   1.724  51.139  1.00  0.00    -0.241 NA
ENDROOT
BRANCH   5   8
HETATM    8  C7  UNL     1      23.777   4.813  50.157  1.00  0.00     0.322 C 
BRANCH   8   9
HETATM    9  N3  UNL     1      24.409   5.949  50.760  1.00  0.00    -0.175 NA
HETATM   10  N4  UNL     1      25.415   6.461  50.251  1.00  0.00    -0.177 NA
BRANCH  10  11
HETATM   11  C8  UNL     1      25.969   5.921  49.043  1.00  0.00     0.295 C 
BRANCH  11  12
HETATM   12  N5  UNL     1      27.374   5.625  49.202  1.00  0.00    -0.370 N 
HETATM   13  H12 UNL     1      27.710   4.982  49.956  1.00  0.00     0.161 HD
BRANCH  12  14
HETATM   14  C9  UNL     1      28.350   6.200  48.333  1.00  0.00     0.030 A 
HETATM   15  C10 UNL     1      28.032   7.261  47.494  1.00  0.00     0.029 A 
HETATM   16  C11 UNL     1      28.953   7.835  46.645  1.00  0.00     0.004 A 
HETATM   17  C12 UNL     1      30.239   7.333  46.631  1.00  0.00     0.019 A 
HETATM   18  C13 UNL     1      30.591   6.280  47.451  1.00  0.00     0.013 A 
HETATM   19 BR1  UNL     1      32.381   5.687  47.337  1.00  0.00    -0.051 Br
HETATM   20  C14 UNL     1      29.642   5.719  48.299  1.00  0.00     0.048 A 
ENDBRANCH  12  14
ENDBRANCH  11  12
ENDBRANCH  10  11
ENDBRANCH   8   9
ENDBRANCH   5   8
BRANCH   1  21
HETATM   21  N1  UNL     1      27.010  -0.326  52.494  1.00  0.00    -0.265 N 
HETATM   22  H4  UNL     1      26.799  -1.161  51.882  1.00  0.00     0.180 HD
BRANCH  21  23
HETATM   23  S1  UNL     1      28.177  -0.335  53.758  1.00  0.00     0.253 S 
HETATM   24  O1  UNL     1      28.845  -1.701  53.714  1.00  0.00    -0.201 OA
HETATM   25  O2  UNL     1      27.414  -0.314  55.061  1.00  0.00    -0.201 OA
BRANCH  23  26
HETATM   26  C2  UNL     1      29.316   0.969  53.676  1.00  0.00     0.121 C 
HETATM   27  C1  UNL     1      28.883   2.201  53.940  1.00  0.00     0.025 C 
ENDBRANCH  23  26
ENDBRANCH  21  23
ENDBRANCH   1  21
TORSDOF 8
ENDMDL
MODEL 8
REMARK VINA RESULT:      -7.0      2.902      3.744
REMARK  8 active torsions:
REMARK  status: ('A' for Active; 'I' for Inactive)
REMARK    1  A    between atoms: C2_2  and  S1_3 
REMARK    2  A    between atoms: S1_3  and  N1_6 
REMARK    3  A    between atoms: N1_6  and  C3_7 
REMARK    4  A    between atoms: N2_11  and  C7_12 
REMARK    5  A    between atoms: C7_12  and  N3_13 
REMARK    6  A    between atoms: N4_14  and  C8_15 
REMARK    7  A    between atoms: C8_15  and  N5_16 
REMARK    8  A    between atoms: N5_16  and  C9_17 
ROOT
HETATM    1  C3  UNL     1      24.105  -0.699  54.350  1.00  0.00     0.133 A 
HETATM    2  C4  UNL     1      23.152  -1.302  55.046  1.00  0.00     0.030 A 
HETATM    3  C5  UNL     1      21.670  -1.268  54.927  1.00  0.00     0.091 A 
HETATM    4  C6  UNL     1      21.342  -0.364  53.795  1.00  0.00     0.052 A 
HETATM    5  N2  UNL     1      20.080  -0.316  53.671  1.00  0.00    -0.269 NA
HETATM    6  C15 UNL     1      22.384   0.306  53.021  1.00  0.00     0.146 A 
HETATM    7  N6  UNL     1      23.634   0.134  53.298  1.00  0.00    -0.241 NA
ENDROOT
BRANCH   5   8
HETATM    8  C7  UNL     1      19.420   0.472  52.664  1.00  0.00     0.322 C 
BRANCH   8   9
HETATM    9  N3  UNL     1      18.560  -0.311  51.827  1.00  0.00    -0.175 NA
HETATM   10  N4  UNL     1      18.190   0.111  50.723  1.00  0.00    -0.177 NA
BRANCH  10  11
HETATM   11  C8  UNL     1      18.619   1.400  50.261  1.00  0.00     0.295 C 
BRANCH  11  12
HETATM   12  N5  UNL     1      19.462   1.279  49.094  1.00  0.00    -0.370 N 
HETATM   13  H12 UNL     1      19.174   0.694  48.276  1.00  0.00     0.161 HD
BRANCH  12  14
HETATM   14  C9  UNL     1      20.716   1.958  49.019  1.00  0.00     0.030 A 
HETATM   15  C10 UNL     1      21.307   2.248  47.795  1.00  0.00     0.029 A 
HETATM   16  C11 UNL     1      22.516   2.901  47.693  1.00  0.00     0.004 A 
HETATM   17  C12 UNL     1      23.160   3.281  48.853  1.00  0.00     0.019 A 
HETATM   18  C13 UNL     1      22.602   3.010  50.087  1.00  0.00     0.013 A 
HETATM   19 BR1  UNL     1      23.584   3.581  51.596  1.00  0.00    -0.051 Br
HETATM   20  C14 UNL     1      21.381   2.349  50.161  1.00  0.00     0.048 A 
ENDBRANCH  12  14
ENDBRANCH  11  12
ENDBRANCH  10  11
ENDBRANCH   8   9
ENDBRANCH   5   8
BRANCH   1  21
HETATM   21  N1  UNL     1      25.460  -0.893  54.659  1.00  0.00    -0.265 N 
HETATM   22  H4  UNL     1      25.546  -1.773  55.236  1.00  0.00     0.180 HD
BRANCH  21  23
HETATM   23  S1  UNL     1      26.797   0.093  54.208  1.00  0.00     0.253 S 
HETATM   24  O1  UNL     1      27.987  -0.408  55.013  1.00  0.00    -0.201 OA
HETATM   25  O2  UNL     1      26.520   1.479  54.739  1.00  0.00    -0.201 OA
BRANCH  23  26
HETATM   26  C2  UNL     1      27.107   0.124  52.503  1.00  0.00     0.121 C 
HETATM   27  C1  UNL     1      26.710   1.190  51.810  1.00  0.00     0.025 C 
ENDBRANCH  23  26
ENDBRANCH  21  23
ENDBRANCH   1  21
TORSDOF 8
ENDMDL
MODEL 9
REMARK VINA RESULT:      -6.9      3.556      5.825
REMARK  8 active torsions:
REMARK  status: ('A' for Active; 'I' for Inactive)
REMARK    1  A    between atoms: C2_2  and  S1_3 
REMARK    2  A    between atoms: S1_3  and  N1_6 
REMARK    3  A    between atoms: N1_6  and  C3_7 
REMARK    4  A    between atoms: N2_11  and  C7_12 
REMARK    5  A    between atoms: C7_12  and  N3_13 
REMARK    6  A    between atoms: N4_14  and  C8_15 
REMARK    7  A    between atoms: C8_15  and  N5_16 
REMARK    8  A    between atoms: N5_16  and  C9_17 
ROOT
HETATM    1  C3  UNL     1      26.379   1.988  51.467  1.00  0.00     0.133 A 
HETATM    2  C4  UNL     1      26.557   2.866  50.490  1.00  0.00     0.030 A 
HETATM    3  C5  UNL     1      25.590   3.576  49.612  1.00  0.00     0.091 A 
HETATM    4  C6  UNL     1      24.229   3.129  50.007  1.00  0.00     0.052 A 
HETATM    5  N2  UNL     1      23.381   3.721  49.271  1.00  0.00    -0.269 NA
HETATM    6  C15 UNL     1      24.021   2.162  51.082  1.00  0.00     0.146 A 
HETATM    7  N6  UNL     1      25.020   1.660  51.728  1.00  0.00    -0.241 NA
ENDROOT
BRANCH   5   8
HETATM    8  C7  UNL     1      21.962   3.516  49.388  1.00  0.00     0.322 C 
BRANCH   8   9
HETATM    9  N3  UNL     1      21.334   4.486  50.235  1.00  0.00    -0.175 NA
HETATM   10  N4  UNL     1      20.572   4.137  51.146  1.00  0.00    -0.177 NA
BRANCH  10  11
HETATM   11  C8  UNL     1      20.303   2.746  51.370  1.00  0.00     0.295 C 
BRANCH  11  12
HETATM   12  N5  UNL     1      20.372   2.423  52.776  1.00  0.00    -0.370 N 
HETATM   13  H12 UNL     1      20.335   3.171  53.506  1.00  0.00     0.161 HD
BRANCH  12  14
HETATM   14  C9  UNL     1      20.491   1.069  53.215  1.00  0.00     0.030 A 
HETATM   15  C10 UNL     1      21.690   0.576  53.716  1.00  0.00     0.029 A 
HETATM   16  C11 UNL     1      21.833  -0.725  54.146  1.00  0.00     0.004 A 
HETATM   17  C12 UNL     1      20.741  -1.567  54.075  1.00  0.00     0.019 A 
HETATM   18  C13 UNL     1      19.534  -1.111  53.583  1.00  0.00     0.013 A 
HETATM   19 BR1  UNL     1      18.120  -2.363  53.539  1.00  0.00    -0.051 Br
HETATM   20  C14 UNL     1      19.417   0.206  53.156  1.00  0.00     0.048 A 
ENDBRANCH  12  14
ENDBRANCH  11  12
ENDBRANCH  10  11
ENDBRANCH   8   9
ENDBRANCH   5   8
BRANCH   1  21
HETATM   21  N1  UNL     1      27.471   1.449  52.163  1.00  0.00    -0.265 N 
HETATM   22  H4  UNL     1      28.126   1.006  51.463  1.00  0.00     0.180 HD
BRANCH  21  23
HETATM   23  S1  UNL     1      27.755   1.468  53.860  1.00  0.00     0.253 S 
HETATM   24  O1  UNL     1      26.439   1.873  54.509  1.00  0.00    -0.201 OA
HETATM   25  O2  UNL     1      28.697   2.616  54.135  1.00  0.00    -0.201 OA
BRANCH  23  26
HETATM   26  C2  UNL     1      28.380  -0.022  54.488  1.00  0.00     0.121 C 
HETATM   27  C1  UNL     1      29.381  -0.609  53.836  1.00  0.00     0.025 C 
ENDBRANCH  23  26
ENDBRANCH  21  23
ENDBRANCH   1  21
TORSDOF 8
ENDMDL
