MODEL 1
REMARK VINA RESULT:      -7.1      0.000      0.000
REMARK  6 active torsions:
REMARK  status: ('A' for Active; 'I' for Inactive)
REMARK    1  A    between atoms: C2_2  and  N1_3 
REMARK    2  A    between atoms: N1_3  and  C3_4 
REMARK    3  A    between atoms: N1_3  and  C5_6 
REMARK    4  A    between atoms: C11_14  and  O2_15 
REMARK    5  A    between atoms: O2_15  and  N3_16 
REMARK    6  A    between atoms: C20_26  and  N4_27 
ROOT
HETATM    1  C5  UNL     1      21.808   3.822  50.203  1.00  0.00     0.115 C 
HETATM    2  C6  UNL     1      21.259   5.031  50.831  1.00  0.00     0.149 C 
HETATM    3  N2  UNL     1      22.148   5.926  51.511  1.00  0.00    -0.359 N 
HETATM    4  C7  UNL     1      23.314   6.641  51.228  1.00  0.00     0.221 C 
HETATM    5  O1  UNL     1      23.480   6.248  50.048  1.00  0.00    -0.273 OA
HETATM    6  C8  UNL     1      24.530   7.420  51.013  1.00  0.00     0.139 C 
HETATM    7  C9  UNL     1      25.451   6.689  50.068  1.00  0.00    -0.040 C 
HETATM    8  C10 UNL     1      26.434   7.751  49.744  1.00  0.00     0.047 C 
HETATM    9  C11 UNL     1      25.647   5.477  49.498  1.00  0.00     0.094 C 
HETATM   10  C13 UNL     1      25.099   4.097  49.447  1.00  0.00     0.036 C 
HETATM   11  C14 UNL     1      24.188   3.207  49.846  1.00  0.00    -0.006 C 
HETATM   12  C15 UNL     1      22.968   3.098  50.756  1.00  0.00     0.051 A 
HETATM   13  C16 UNL     1      22.673   1.606  50.642  1.00  0.00    -0.006 A 
HETATM   14  C17 UNL     1      22.784   0.602  51.500  1.00  0.00     0.039 A 
HETATM   15  C18 UNL     1      23.273   0.936  52.818  1.00  0.00     0.114 A 
HETATM   16  F1  UNL     1      23.432  -0.006  53.764  1.00  0.00    -0.206 F 
HETATM   17  C19 UNL     1      23.545   2.192  53.016  1.00  0.00     0.051 A 
HETATM   18  C20 UNL     1      23.447   3.412  52.124  1.00  0.00     0.261 A 
HETATM   19  H14 UNL     1      22.305   6.398  52.422  1.00  0.00     0.162 HD
ENDROOT
BRANCH   1  20
HETATM   20  N1  UNL     1      20.875   2.934  49.602  1.00  0.00    -0.406 N 
BRANCH  20  21
HETATM   21  C2  UNL     1      20.554   3.231  48.225  1.00  0.00     0.113 C 
HETATM   22  C1  UNL     1      21.645   2.621  47.373  1.00  0.00     0.026 C 
ENDBRANCH  20  21
BRANCH  20  23
HETATM   23  C3  UNL     1      19.706   2.520  50.245  1.00  0.00     0.113 C 
HETATM   24  C4  UNL     1      19.168   1.149  49.901  1.00  0.00     0.026 C 
ENDBRANCH  20  23
ENDBRANCH   1  20
BRANCH  18  25
HETATM   25  N4  UNL     1      24.836   3.916  52.109  1.00  0.00     0.087 N 
HETATM   26  H30 UNL     1      25.338   3.376  51.399  1.00  0.00     0.313 HD
HETATM   27  H31 UNL     1      25.254   3.886  53.060  1.00  0.00     0.313 HD
ENDBRANCH  18  25
BRANCH   9  28
HETATM   28  O2  UNL     1      26.793   5.540  48.651  1.00  0.00    -0.264 OA
BRANCH  28  29
HETATM   29  N3  UNL     1      27.904   4.881  49.044  1.00  0.00    -0.204 NA
HETATM   30  C12 UNL     1      29.044   5.429  48.328  1.00  0.00     0.141 C 
HETATM   31  H20 UNL     1      27.814   3.867  48.816  1.00  0.00     0.153 HD
ENDBRANCH  28  29
ENDBRANCH   9  28
TORSDOF 6
ENDMDL
MODEL 2
REMARK VINA RESULT:      -7.1      3.384      6.027
REMARK  6 active torsions:
REMARK  status: ('A' for Active; 'I' for Inactive)
REMARK    1  A    between atoms: C2_2  and  N1_3 
REMARK    2  A    between atoms: N1_3  and  C3_4 
REMARK    3  A    between atoms: N1_3  and  C5_6 
REMARK    4  A    between atoms: C11_14  and  O2_15 
REMARK    5  A    between atoms: O2_15  and  N3_16 
REMARK    6  A    between atoms: C20_26  and  N4_27 
ROOT
HETATM    1  C5  UNL     1      21.812   3.786  51.530  1.00  0.00     0.115 C 
HETATM    2  C6  UNL     1      20.441   3.714  52.050  1.00  0.00     0.149 C 
HETATM    3  N2  UNL     1      19.828   2.429  52.218  1.00  0.00    -0.359 N 
HETATM    4  C7  UNL     1      20.105   1.226  52.871  1.00  0.00     0.221 C 
HETATM    5  O1  UNL     1      21.222   1.539  53.349  1.00  0.00    -0.273 OA
HETATM    6  C8  UNL     1      20.319  -0.062  53.525  1.00  0.00     0.139 C 
HETATM    7  C9  UNL     1      21.791  -0.389  53.550  1.00  0.00    -0.040 C 
HETATM    8  C10 UNL     1      21.817  -1.527  54.501  1.00  0.00     0.047 C 
HETATM    9  C11 UNL     1      22.974  -0.014  53.009  1.00  0.00     0.094 C 
HETATM   10  C13 UNL     1      23.578   0.940  52.044  1.00  0.00     0.036 C 
HETATM   11  C14 UNL     1      23.431   1.936  51.168  1.00  0.00    -0.006 C 
HETATM   12  C15 UNL     1      22.343   2.815  50.555  1.00  0.00     0.051 A 
HETATM   13  C16 UNL     1      23.164   3.594  49.533  1.00  0.00    -0.006 A 
HETATM   14  C17 UNL     1      23.199   3.573  48.208  1.00  0.00     0.039 A 
HETATM   15  C18 UNL     1      22.299   2.649  47.558  1.00  0.00     0.114 A 
HETATM   16  F1  UNL     1      22.257   2.540  46.218  1.00  0.00    -0.206 F 
HETATM   17  C19 UNL     1      21.547   1.943  48.349  1.00  0.00     0.051 A 
HETATM   18  C20 UNL     1      21.416   1.892  49.857  1.00  0.00     0.261 A 
HETATM   19  H14 UNL     1      18.988   1.877  51.958  1.00  0.00     0.162 HD
ENDROOT
BRANCH   1  20
HETATM   20  N1  UNL     1      22.348   5.085  51.319  1.00  0.00    -0.406 N 
BRANCH  20  21
HETATM   21  C2  UNL     1      23.459   5.431  52.175  1.00  0.00     0.113 C 
HETATM   22  C1  UNL     1      24.252   6.505  51.463  1.00  0.00     0.026 C 
ENDBRANCH  20  21
BRANCH  20  23
HETATM   23  C3  UNL     1      21.544   6.217  51.166  1.00  0.00     0.113 C 
HETATM   24  C4  UNL     1      20.981   6.494  49.790  1.00  0.00     0.026 C 
ENDBRANCH  20  23
ENDBRANCH   1  20
BRANCH  18  25
HETATM   25  N4  UNL     1      21.724   0.480  50.163  1.00  0.00     0.087 N 
HETATM   26  H30 UNL     1      22.731   0.430  50.341  1.00  0.00     0.313 HD
HETATM   27  H31 UNL     1      21.381  -0.149  49.410  1.00  0.00     0.313 HD
ENDBRANCH  18  25
BRANCH   9  28
HETATM   28  O2  UNL     1      24.012  -0.828  53.550  1.00  0.00    -0.264 OA
BRANCH  28  29
HETATM   29  N3  UNL     1      25.290  -0.456  53.320  1.00  0.00    -0.204 NA
HETATM   30  C12 UNL     1      25.932  -0.194  54.598  1.00  0.00     0.141 C 
HETATM   31  H20 UNL     1      25.308   0.414  52.745  1.00  0.00     0.153 HD
ENDBRANCH  28  29
ENDBRANCH   9  28
TORSDOF 6
ENDMDL
MODEL 3
REMARK VINA RESULT:      -6.9      2.848      5.238
REMARK  6 active torsions:
REMARK  status: ('A' for Active; 'I' for Inactive)
REMARK    1  A    between atoms: C2_2  and  N1_3 
REMARK    2  A    between atoms: N1_3  and  C3_4 
REMARK    3  A    between atoms: N1_3  and  C5_6 
REMARK    4  A    between atoms: C11_14  and  O2_15 
REMARK    5  A    between atoms: O2_15  and  N3_16 
REMARK    6  A    between atoms: C20_26  and  N4_27 
ROOT
HETATM    1  C5  UNL     1      23.727   3.899  51.363  1.00  0.00     0.115 C 
HETATM    2  C6  UNL     1      23.336   4.987  52.268  1.00  0.00     0.149 C 
HETATM    3  N2  UNL     1      22.825   6.204  51.711  1.00  0.00    -0.359 N 
HETATM    4  C7  UNL     1      21.801   6.598  50.846  1.00  0.00     0.221 C 
HETATM    5  O1  UNL     1      21.349   5.458  50.578  1.00  0.00    -0.273 OA
HETATM    6  C8  UNL     1      20.754   7.092  49.955  1.00  0.00     0.139 C 
HETATM    7  C9  UNL     1      20.495   6.088  48.860  1.00  0.00    -0.040 C 
HETATM    8  C10 UNL     1      19.233   6.612  48.283  1.00  0.00     0.047 C 
HETATM    9  C11 UNL     1      21.019   4.980  48.286  1.00  0.00     0.094 C 
HETATM   10  C13 UNL     1      22.179   4.055  48.353  1.00  0.00     0.036 C 
HETATM   11  C14 UNL     1      23.336   3.702  48.917  1.00  0.00    -0.006 C 
HETATM   12  C15 UNL     1      24.291   4.145  50.022  1.00  0.00     0.051 A 
HETATM   13  C16 UNL     1      25.430   3.153  49.815  1.00  0.00    -0.006 A 
HETATM   14  C17 UNL     1      26.671   3.293  49.369  1.00  0.00     0.039 A 
HETATM   15  C18 UNL     1      27.072   4.630  48.998  1.00  0.00     0.114 A 
HETATM   16  F1  UNL     1      28.305   4.885  48.527  1.00  0.00    -0.206 F 
HETATM   17  C19 UNL     1      26.168   5.552  49.150  1.00  0.00     0.051 A 
HETATM   18  C20 UNL     1      24.740   5.510  49.653  1.00  0.00     0.261 A 
HETATM   19  H14 UNL     1      22.969   7.232  51.705  1.00  0.00     0.162 HD
ENDROOT
BRANCH   1  20
HETATM   20  N1  UNL     1      24.292   2.741  51.962  1.00  0.00    -0.406 N 
BRANCH  20  21
HETATM   21  C2  UNL     1      23.554   1.519  51.738  1.00  0.00     0.113 C 
HETATM   22  C1  UNL     1      22.462   1.460  52.783  1.00  0.00     0.026 C 
ENDBRANCH  20  21
BRANCH  20  23
HETATM   23  C3  UNL     1      24.772   2.728  53.274  1.00  0.00     0.113 C 
HETATM   24  C4  UNL     1      26.100   2.049  53.526  1.00  0.00     0.026 C 
ENDBRANCH  20  23
ENDBRANCH   1  20
BRANCH  18  25
HETATM   25  N4  UNL     1      23.974   6.040  48.506  1.00  0.00     0.087 N 
HETATM   26  H30 UNL     1      23.301   5.316  48.241  1.00  0.00     0.313 HD
HETATM   27  H31 UNL     1      24.609   6.347  47.743  1.00  0.00     0.313 HD
ENDBRANCH  18  25
BRANCH   9  28
HETATM   28  O2  UNL     1      20.156   4.547  47.236  1.00  0.00    -0.264 OA
BRANCH  28  29
HETATM   29  N3  UNL     1      20.602   3.573  46.414  1.00  0.00    -0.204 NA
HETATM   30  C12 UNL     1      20.366   3.983  45.040  1.00  0.00     0.141 C 
HETATM   31  H20 UNL     1      20.084   2.687  46.600  1.00  0.00     0.153 HD
ENDBRANCH  28  29
ENDBRANCH   9  28
TORSDOF 6
ENDMDL
MODEL 4
REMARK VINA RESULT:      -6.9      4.454      8.386
REMARK  6 active torsions:
REMARK  status: ('A' for Active; 'I' for Inactive)
REMARK    1  A    between atoms: C2_2  and  N1_3 
REMARK    2  A    between atoms: N1_3  and  C3_4 
REMARK    3  A    between atoms: N1_3  and  C5_6 
REMARK    4  A    between atoms: C11_14  and  O2_15 
REMARK    5  A    between atoms: O2_15  and  N3_16 
REMARK    6  A    between atoms: C20_26  and  N4_27 
ROOT
HETATM    1  C5  UNL     1      28.221   8.999  48.636  1.00  0.00     0.115 C 
HETATM    2  C6  UNL     1      27.413   9.969  49.384  1.00  0.00     0.149 C 
HETATM    3  N2  UNL     1      26.020   9.701  49.592  1.00  0.00    -0.359 N 
HETATM    4  C7  UNL     1      25.231   8.680  50.126  1.00  0.00     0.221 C 
HETATM    5  O1  UNL     1      26.152   7.879  50.416  1.00  0.00    -0.273 OA
HETATM    6  C8  UNL     1      24.335   7.661  50.668  1.00  0.00     0.139 C 
HETATM    7  C9  UNL     1      24.907   6.288  50.419  1.00  0.00    -0.040 C 
HETATM    8  C10 UNL     1      24.046   5.455  51.293  1.00  0.00     0.047 C 
HETATM    9  C11 UNL     1      25.856   5.644  49.699  1.00  0.00     0.094 C 
HETATM   10  C13 UNL     1      26.924   5.869  48.691  1.00  0.00     0.036 C 
HETATM   11  C14 UNL     1      27.604   6.706  47.905  1.00  0.00    -0.006 C 
HETATM   12  C15 UNL     1      27.669   8.185  47.536  1.00  0.00     0.051 A 
HETATM   13  C16 UNL     1      28.714   8.146  46.427  1.00  0.00    -0.006 A 
HETATM   14  C17 UNL     1      28.638   8.334  45.116  1.00  0.00     0.039 A 
HETATM   15  C18 UNL     1      27.328   8.642  44.588  1.00  0.00     0.114 A 
HETATM   16  F1  UNL     1      27.135   8.844  43.273  1.00  0.00    -0.206 F 
HETATM   17  C19 UNL     1      26.369   8.707  45.463  1.00  0.00     0.051 A 
HETATM   18  C20 UNL     1      26.342   8.524  46.966  1.00  0.00     0.261 A 
HETATM   19  H14 UNL     1      25.074  10.105  49.456  1.00  0.00     0.162 HD
ENDROOT
BRANCH   1  20
HETATM   20  N1  UNL     1      29.578   9.346  48.399  1.00  0.00    -0.406 N 
BRANCH  20  21
HETATM   21  C2  UNL     1      30.500   8.939  49.436  1.00  0.00     0.113 C 
HETATM   22  C1  UNL     1      31.223   7.710  48.932  1.00  0.00     0.026 C 
ENDBRANCH  20  21
BRANCH  20  23
HETATM   23  C3  UNL     1      29.966  10.606  47.939  1.00  0.00     0.113 C 
HETATM   24  C4  UNL     1      30.788  11.468  48.871  1.00  0.00     0.026 C 
ENDBRANCH  20  23
ENDBRANCH   1  20
BRANCH  18  25
HETATM   25  N4  UNL     1      25.379   7.419  47.143  1.00  0.00     0.087 N 
HETATM   26  H30 UNL     1      24.619   7.580  46.476  1.00  0.00     0.313 HD
HETATM   27  H31 UNL     1      25.080   7.339  48.135  1.00  0.00     0.313 HD
ENDBRANCH  18  25
BRANCH   9  28
HETATM   28  O2  UNL     1      25.811   4.253  50.009  1.00  0.00    -0.264 OA
BRANCH  28  29
HETATM   29  N3  UNL     1      26.949   3.667  50.439  1.00  0.00    -0.204 NA
HETATM   30  C12 UNL     1      26.596   2.532  51.276  1.00  0.00     0.141 C 
HETATM   31  H20 UNL     1      27.508   4.345  51.001  1.00  0.00     0.153 HD
ENDBRANCH  28  29
ENDBRANCH   9  28
TORSDOF 6
ENDMDL
MODEL 5
REMARK VINA RESULT:      -6.9      2.988      5.113
REMARK  6 active torsions:
REMARK  status: ('A' for Active; 'I' for Inactive)
REMARK    1  A    between atoms: C2_2  and  N1_3 
REMARK    2  A    between atoms: N1_3  and  C3_4 
REMARK    3  A    between atoms: N1_3  and  C5_6 
REMARK    4  A    between atoms: C11_14  and  O2_15 
REMARK    5  A    between atoms: O2_15  and  N3_16 
REMARK    6  A    between atoms: C20_26  and  N4_27 
ROOT
HETATM    1  C5  UNL     1      22.365   5.271  50.607  1.00  0.00     0.115 C 
HETATM    2  C6  UNL     1      21.333   4.812  51.544  1.00  0.00     0.149 C 
HETATM    3  N2  UNL     1      21.245   3.415  51.854  1.00  0.00    -0.359 N 
HETATM    4  C7  UNL     1      22.084   2.407  52.333  1.00  0.00     0.221 C 
HETATM    5  O1  UNL     1      23.136   3.084  52.430  1.00  0.00    -0.273 OA
HETATM    6  C8  UNL     1      22.893   1.297  52.831  1.00  0.00     0.139 C 
HETATM    7  C9  UNL     1      24.318   1.447  52.359  1.00  0.00    -0.040 C 
HETATM    8  C10 UNL     1      25.008   0.443  53.205  1.00  0.00     0.047 C 
HETATM    9  C11 UNL     1      25.080   2.133  51.475  1.00  0.00     0.094 C 
HETATM   10  C13 UNL     1      25.006   3.158  50.403  1.00  0.00     0.036 C 
HETATM   11  C14 UNL     1      24.277   3.996  49.663  1.00  0.00    -0.006 C 
HETATM   12  C15 UNL     1      22.831   4.448  49.475  1.00  0.00     0.051 A 
HETATM   13  C16 UNL     1      22.986   5.371  48.271  1.00  0.00    -0.006 A 
HETATM   14  C17 UNL     1      22.597   5.270  47.008  1.00  0.00     0.039 A 
HETATM   15  C18 UNL     1      21.876   4.069  46.654  1.00  0.00     0.114 A 
HETATM   16  F1  UNL     1      21.440   3.860  45.398  1.00  0.00    -0.206 F 
HETATM   17  C19 UNL     1      21.684   3.221  47.620  1.00  0.00     0.051 A 
HETATM   18  C20 UNL     1      22.070   3.236  49.084  1.00  0.00     0.261 A 
HETATM   19  H14 UNL     1      20.587   2.613  51.863  1.00  0.00     0.162 HD
ENDROOT
BRANCH   1  20
HETATM   20  N1  UNL     1      22.364   6.654  50.282  1.00  0.00    -0.406 N 
BRANCH  20  21
HETATM   21  C2  UNL     1      23.488   7.401  50.799  1.00  0.00     0.113 C 
HETATM   22  C1  UNL     1      23.830   8.458  49.772  1.00  0.00     0.026 C 
ENDBRANCH  20  21
BRANCH  20  23
HETATM   23  C3  UNL     1      21.222   7.453  50.385  1.00  0.00     0.113 C 
HETATM   24  C4  UNL     1      20.249   7.435  49.227  1.00  0.00     0.026 C 
ENDBRANCH  20  23
ENDBRANCH   1  20
BRANCH  18  25
HETATM   25  N4  UNL     1      22.890   2.015  49.217  1.00  0.00     0.087 N 
HETATM   26  H30 UNL     1      22.240   1.224  49.238  1.00  0.00     0.313 HD
HETATM   27  H31 UNL     1      23.526   2.080  50.037  1.00  0.00     0.313 HD
ENDBRANCH  18  25
BRANCH   9  28
HETATM   28  O2  UNL     1      26.438   1.721  51.614  1.00  0.00    -0.264 OA
BRANCH  28  29
HETATM   29  N3  UNL     1      27.362   2.672  51.875  1.00  0.00    -0.204 NA
HETATM   30  C12 UNL     1      28.096   2.287  53.069  1.00  0.00     0.141 C 
HETATM   31  H20 UNL     1      26.891   3.587  52.044  1.00  0.00     0.153 HD
ENDBRANCH  28  29
ENDBRANCH   9  28
TORSDOF 6
ENDMDL
MODEL 6
REMARK VINA RESULT:      -6.7      7.450     10.582
REMARK  6 active torsions:
REMARK  status: ('A' for Active; 'I' for Inactive)
REMARK    1  A    between atoms: C2_2  and  N1_3 
REMARK    2  A    between atoms: N1_3  and  C3_4 
REMARK    3  A    between atoms: N1_3  and  C5_6 
REMARK    4  A    between atoms: C11_14  and  O2_15 
REMARK    5  A    between atoms: O2_15  and  N3_16 
REMARK    6  A    between atoms: C20_26  and  N4_27 
ROOT
HETATM    1  C5  UNL     1      32.027   8.017  47.970  1.00  0.00     0.115 C 
HETATM    2  C6  UNL     1      32.869   7.643  49.113  1.00  0.00     0.149 C 
HETATM    3  N2  UNL     1      33.320   6.288  49.230  1.00  0.00    -0.359 N 
HETATM    4  C7  UNL     1      34.013   5.356  48.455  1.00  0.00     0.221 C 
HETATM    5  O1  UNL     1      34.168   6.061  47.428  1.00  0.00    -0.273 OA
HETATM    6  C8  UNL     1      34.732   4.325  47.710  1.00  0.00     0.139 C 
HETATM    7  C9  UNL     1      34.433   4.452  46.237  1.00  0.00    -0.040 C 
HETATM    8  C10 UNL     1      35.468   3.561  45.657  1.00  0.00     0.047 C 
HETATM    9  C11 UNL     1      33.583   5.051  45.371  1.00  0.00     0.094 C 
HETATM   10  C13 UNL     1      32.402   5.950  45.312  1.00  0.00     0.036 C 
HETATM   11  C14 UNL     1      31.485   6.685  45.944  1.00  0.00    -0.006 C 
HETATM   12  C15 UNL     1      31.063   7.084  47.355  1.00  0.00     0.051 A 
HETATM   13  C16 UNL     1      29.794   7.871  47.051  1.00  0.00    -0.006 A 
HETATM   14  C17 UNL     1      28.510   7.624  47.272  1.00  0.00     0.039 A 
HETATM   15  C18 UNL     1      28.203   6.376  47.933  1.00  0.00     0.114 A 
HETATM   16  F1  UNL     1      26.934   6.021  48.201  1.00  0.00    -0.206 F 
HETATM   17  C19 UNL     1      29.226   5.636  48.244  1.00  0.00     0.051 A 
HETATM   18  C20 UNL     1      30.716   5.821  48.052  1.00  0.00     0.261 A 
HETATM   19  H14 UNL     1      33.334   5.478  49.879  1.00  0.00     0.162 HD
ENDROOT
BRANCH   1  20
HETATM   20  N1  UNL     1      31.551   9.355  47.938  1.00  0.00    -0.406 N 
BRANCH  20  21
HETATM   21  C2  UNL     1      32.474  10.315  47.377  1.00  0.00     0.113 C 
HETATM   22  C1  UNL     1      32.312  10.264  45.874  1.00  0.00     0.026 C 
ENDBRANCH  20  21
BRANCH  20  23
HETATM   23  C3  UNL     1      30.903   9.952  49.022  1.00  0.00     0.113 C 
HETATM   24  C4  UNL     1      30.616  11.435  48.934  1.00  0.00     0.026 C 
ENDBRANCH  20  23
ENDBRANCH   1  20
BRANCH  18  25
HETATM   25  N4  UNL     1      31.090   4.639  47.248  1.00  0.00     0.087 N 
HETATM   26  H30 UNL     1      30.992   4.908  46.265  1.00  0.00     0.313 HD
HETATM   27  H31 UNL     1      30.539   3.805  47.531  1.00  0.00     0.313 HD
ENDBRANCH  18  25
BRANCH   9  28
HETATM   28  O2  UNL     1      33.941   4.686  44.040  1.00  0.00    -0.264 OA
BRANCH  28  29
HETATM   29  N3  UNL     1      32.954   4.605  43.121  1.00  0.00    -0.204 NA
HETATM   30  C12 UNL     1      33.552   4.356  41.821  1.00  0.00     0.141 C 
HETATM   31  H20 UNL     1      32.425   5.503  43.088  1.00  0.00     0.153 HD
ENDBRANCH  28  29
ENDBRANCH   9  28
TORSDOF 6
ENDMDL
MODEL 7
REMARK VINA RESULT:      -6.6      1.619      1.877
REMARK  6 active torsions:
REMARK  status: ('A' for Active; 'I' for Inactive)
REMARK    1  A    between atoms: C2_2  and  N1_3 
REMARK    2  A    between atoms: N1_3  and  C3_4 
REMARK    3  A    between atoms: N1_3  and  C5_6 
REMARK    4  A    between atoms: C11_14  and  O2_15 
REMARK    5  A    between atoms: O2_15  and  N3_16 
REMARK    6  A    between atoms: C20_26  and  N4_27 
ROOT
HETATM    1  C5  UNL     1      22.075   3.220  50.020  1.00  0.00     0.115 C 
HETATM    2  C6  UNL     1      20.889   3.961  50.463  1.00  0.00     0.149 C 
HETATM    3  N2  UNL     1      21.050   5.292  50.970  1.00  0.00    -0.359 N 
HETATM    4  C7  UNL     1      21.609   6.501  50.549  1.00  0.00     0.221 C 
HETATM    5  O1  UNL     1      22.053   6.112  49.441  1.00  0.00    -0.273 OA
HETATM    6  C8  UNL     1      22.167   7.800  50.182  1.00  0.00     0.139 C 
HETATM    7  C9  UNL     1      23.404   7.610  49.341  1.00  0.00    -0.040 C 
HETATM    8  C10 UNL     1      23.617   8.986  48.828  1.00  0.00     0.047 C 
HETATM    9  C11 UNL     1      24.301   6.670  48.964  1.00  0.00     0.094 C 
HETATM   10  C13 UNL     1      24.652   5.237  49.145  1.00  0.00     0.036 C 
HETATM   11  C14 UNL     1      24.394   4.053  49.702  1.00  0.00    -0.006 C 
HETATM   12  C15 UNL     1      23.398   3.389  50.649  1.00  0.00     0.051 A 
HETATM   13  C16 UNL     1      24.024   2.004  50.779  1.00  0.00    -0.006 A 
HETATM   14  C17 UNL     1      24.632   1.385  51.781  1.00  0.00     0.039 A 
HETATM   15  C18 UNL     1      24.746   2.126  53.017  1.00  0.00     0.114 A 
HETATM   16  F1  UNL     1      25.350   1.597  54.095  1.00  0.00    -0.206 F 
HETATM   17  C19 UNL     1      24.230   3.319  53.008  1.00  0.00     0.051 A 
HETATM   18  C20 UNL     1      23.512   4.114  51.938  1.00  0.00     0.261 A 
HETATM   19  H14 UNL     1      20.842   5.892  51.792  1.00  0.00     0.162 HD
ENDROOT
BRANCH   1  20
HETATM   20  N1  UNL     1      21.868   1.881  49.590  1.00  0.00    -0.406 N 
BRANCH  20  21
HETATM   21  C2  UNL     1      22.088   1.654  48.180  1.00  0.00     0.113 C 
HETATM   22  C1  UNL     1      21.691   2.922  47.458  1.00  0.00     0.026 C 
ENDBRANCH  20  21
BRANCH  20  23
HETATM   23  C3  UNL     1      20.765   1.123  49.989  1.00  0.00     0.113 C 
HETATM   24  C4  UNL     1      20.886   0.333  51.273  1.00  0.00     0.026 C 
ENDBRANCH  20  23
ENDBRANCH   1  20
BRANCH  18  25
HETATM   25  N4  UNL     1      24.354   5.321  51.808  1.00  0.00     0.087 N 
HETATM   26  H30 UNL     1      24.928   5.191  50.969  1.00  0.00     0.313 HD
HETATM   27  H31 UNL     1      24.889   5.499  52.681  1.00  0.00     0.313 HD
ENDBRANCH  18  25
BRANCH   9  28
HETATM   28  O2  UNL     1      25.258   7.263  48.088  1.00  0.00    -0.264 OA
BRANCH  28  29
HETATM   29  N3  UNL     1      26.528   6.806  48.140  1.00  0.00    -0.204 NA
HETATM   30  C12 UNL     1      27.339   7.777  48.856  1.00  0.00     0.141 C 
HETATM   31  H20 UNL     1      26.904   6.694  47.174  1.00  0.00     0.153 HD
ENDBRANCH  28  29
ENDBRANCH   9  28
TORSDOF 6
ENDMDL
MODEL 8
REMARK VINA RESULT:      -6.5      2.909      3.774
REMARK  6 active torsions:
REMARK  status: ('A' for Active; 'I' for Inactive)
REMARK    1  A    between atoms: C2_2  and  N1_3 
REMARK    2  A    between atoms: N1_3  and  C3_4 
REMARK    3  A    between atoms: N1_3  and  C5_6 
REMARK    4  A    between atoms: C11_14  and  O2_15 
REMARK    5  A    between atoms: O2_15  and  N3_16 
REMARK    6  A    between atoms: C20_26  and  N4_27 
ROOT
HETATM    1  C5  UNL     1      21.377   2.117  52.035  1.00  0.00     0.115 C 
HETATM    2  C6  UNL     1      20.671   3.241  52.661  1.00  0.00     0.149 C 
HETATM    3  N2  UNL     1      21.072   4.580  52.341  1.00  0.00    -0.359 N 
HETATM    4  C7  UNL     1      21.241   5.364  51.198  1.00  0.00     0.221 C 
HETATM    5  O1  UNL     1      20.947   4.495  50.342  1.00  0.00    -0.273 OA
HETATM    6  C8  UNL     1      21.441   6.251  50.055  1.00  0.00     0.139 C 
HETATM    7  C9  UNL     1      21.937   5.461  48.871  1.00  0.00    -0.040 C 
HETATM    8  C10 UNL     1      21.771   6.448  47.776  1.00  0.00     0.047 C 
HETATM    9  C11 UNL     1      22.456   4.256  48.537  1.00  0.00     0.094 C 
HETATM   10  C13 UNL     1      22.878   2.954  49.115  1.00  0.00     0.036 C 
HETATM   11  C14 UNL     1      23.030   2.166  50.181  1.00  0.00    -0.006 C 
HETATM   12  C15 UNL     1      22.810   2.172  51.691  1.00  0.00     0.051 A 
HETATM   13  C16 UNL     1      23.422   0.826  52.063  1.00  0.00    -0.006 A 
HETATM   14  C17 UNL     1      24.522   0.493  52.725  1.00  0.00     0.039 A 
HETATM   15  C18 UNL     1      25.332   1.586  53.213  1.00  0.00     0.114 A 
HETATM   16  F1  UNL     1      26.472   1.362  53.891  1.00  0.00    -0.206 F 
HETATM   17  C19 UNL     1      24.885   2.778  52.953  1.00  0.00     0.051 A 
HETATM   18  C20 UNL     1      23.652   3.271  52.224  1.00  0.00     0.261 A 
HETATM   19  H14 UNL     1      21.380   5.473  52.771  1.00  0.00     0.162 HD
ENDROOT
BRANCH   1  20
HETATM   20  N1  UNL     1      20.986   0.812  52.439  1.00  0.00    -0.406 N 
BRANCH  20  21
HETATM   21  C2  UNL     1      20.210   0.081  51.463  1.00  0.00     0.113 C 
HETATM   22  C1  UNL     1      18.787   0.028  51.976  1.00  0.00     0.026 C 
ENDBRANCH  20  21
BRANCH  20  23
HETATM   23  C3  UNL     1      20.467   0.538  53.706  1.00  0.00     0.113 C 
HETATM   24  C4  UNL     1      21.336  -0.246  54.663  1.00  0.00     0.026 C 
ENDBRANCH  20  23
ENDBRANCH   1  20
BRANCH  18  25
HETATM   25  N4  UNL     1      24.223   4.092  51.137  1.00  0.00     0.087 N 
HETATM   26  H30 UNL     1      24.455   5.002  51.545  1.00  0.00     0.313 HD
HETATM   27  H31 UNL     1      23.580   4.129  50.320  1.00  0.00     0.313 HD
ENDBRANCH  18  25
BRANCH   9  28
HETATM   28  O2  UNL     1      22.689   4.223  47.130  1.00  0.00    -0.264 OA
BRANCH  28  29
HETATM   29  N3  UNL     1      22.081   3.253  46.413  1.00  0.00    -0.204 NA
HETATM   30  C12 UNL     1      21.605   3.829  45.167  1.00  0.00     0.141 C 
HETATM   31  H20 UNL     1      21.269   2.873  46.946  1.00  0.00     0.153 HD
ENDBRANCH  28  29
ENDBRANCH   9  28
TORSDOF 6
ENDMDL
MODEL 9
REMARK VINA RESULT:      -6.3      5.192      9.909
REMARK  6 active torsions:
REMARK  status: ('A' for Active; 'I' for Inactive)
REMARK    1  A    between atoms: C2_2  and  N1_3 
REMARK    2  A    between atoms: N1_3  and  C3_4 
REMARK    3  A    between atoms: N1_3  and  C5_6 
REMARK    4  A    between atoms: C11_14  and  O2_15 
REMARK    5  A    between atoms: O2_15  and  N3_16 
REMARK    6  A    between atoms: C20_26  and  N4_27 
ROOT
HETATM    1  C5  UNL     1      30.696   9.043  48.093  1.00  0.00     0.115 C 
HETATM    2  C6  UNL     1      30.328  10.164  48.966  1.00  0.00     0.149 C 
HETATM    3  N2  UNL     1      28.940  10.456  49.175  1.00  0.00    -0.359 N 
HETATM    4  C7  UNL     1      27.794   9.785  49.608  1.00  0.00     0.221 C 
HETATM    5  O1  UNL     1      28.309   8.653  49.783  1.00  0.00    -0.273 OA
HETATM    6  C8  UNL     1      26.552   9.157  50.052  1.00  0.00     0.139 C 
HETATM    7  C9  UNL     1      26.530   7.708  49.634  1.00  0.00    -0.040 C 
HETATM    8  C10 UNL     1      25.386   7.197  50.428  1.00  0.00     0.047 C 
HETATM    9  C11 UNL     1      27.157   6.824  48.823  1.00  0.00     0.094 C 
HETATM   10  C13 UNL     1      28.250   6.714  47.822  1.00  0.00     0.036 C 
HETATM   11  C14 UNL     1      29.228   7.290  47.120  1.00  0.00    -0.006 C 
HETATM   12  C15 UNL     1      29.890   8.651  46.921  1.00  0.00     0.051 A 
HETATM   13  C16 UNL     1      30.857   8.322  45.790  1.00  0.00    -0.006 A 
HETATM   14  C17 UNL     1      30.894   8.673  44.511  1.00  0.00     0.039 A 
HETATM   15  C18 UNL     1      29.832   9.538  44.053  1.00  0.00     0.114 A 
HETATM   16  F1  UNL     1      29.768   9.949  42.774  1.00  0.00    -0.206 F 
HETATM   17  C19 UNL     1      28.959   9.884  44.952  1.00  0.00     0.051 A 
HETATM   18  C20 UNL     1      28.825   9.557  46.425  1.00  0.00     0.261 A 
HETATM   19  H14 UNL     1      28.239  11.219  49.109  1.00  0.00     0.162 HD
ENDROOT
BRANCH   1  20
HETATM   20  N1  UNL     1      32.083   8.840  47.865  1.00  0.00    -0.406 N 
BRANCH  20  21
HETATM   21  C2  UNL     1      32.758   8.060  48.877  1.00  0.00     0.113 C 
HETATM   22  C1  UNL     1      32.587   6.604  48.505  1.00  0.00     0.026 C 
ENDBRANCH  20  21
BRANCH  20  23
HETATM   23  C3  UNL     1      32.939   9.866  47.459  1.00  0.00     0.113 C 
HETATM   24  C4  UNL     1      34.273   9.471  46.866  1.00  0.00     0.026 C 
ENDBRANCH  20  23
ENDBRANCH   1  20
BRANCH  18  25
HETATM   25  N4  UNL     1      27.495   8.919  46.498  1.00  0.00     0.087 N 
HETATM   26  H30 UNL     1      27.387   8.569  47.454  1.00  0.00     0.313 HD
HETATM   27  H31 UNL     1      27.383   8.202  45.754  1.00  0.00     0.313 HD
ENDBRANCH  18  25
BRANCH   9  28
HETATM   28  O2  UNL     1      26.551   5.542  48.973  1.00  0.00    -0.264 OA
BRANCH  28  29
HETATM   29  N3  UNL     1      27.356   4.490  49.234  1.00  0.00    -0.204 NA
HETATM   30  C12 UNL     1      26.534   3.380  49.686  1.00  0.00     0.141 C 
HETATM   31  H20 UNL     1      28.035   4.740  49.985  1.00  0.00     0.153 HD
ENDBRANCH  28  29
ENDBRANCH   9  28
TORSDOF 6
ENDMDL
