MODEL 1
REMARK VINA RESULT:      -8.1      0.000      0.000
REMARK  4 active torsions:
REMARK  status: ('A' for Active; 'I' for Inactive)
REMARK    1  A    between atoms: O1_2  and  C2_3 
REMARK    2  A    between atoms: C5_6  and  N1_7 
REMARK    3  A    between atoms: N1_7  and  C6_8 
REMARK    4  A    between atoms: C9_11  and  O2_12 
ROOT
HETATM    1  C2  UNL     1      22.922   1.331  52.649  1.00  0.00     0.075 A 
HETATM    2  C3  UNL     1      24.294   1.462  52.638  1.00  0.00     0.055 A 
HETATM    3  C4  UNL     1      25.018   2.134  51.698  1.00  0.00     0.041 A 
HETATM    4  C5  UNL     1      26.387   2.269  51.682  1.00  0.00     0.142 A 
HETATM    5  N2  UNL     1      26.875   2.964  50.671  1.00  0.00    -0.224 NA
HETATM    6  C12 UNL     1      26.185   3.538  49.683  1.00  0.00     0.236 A 
HETATM    7  N3  UNL     1      24.854   3.395  49.716  1.00  0.00    -0.241 NA
HETATM    8  C13 UNL     1      24.259   2.707  50.701  1.00  0.00     0.072 A 
HETATM    9  C14 UNL     1      22.886   2.608  50.662  1.00  0.00     0.042 A 
HETATM   10  C15 UNL     1      22.192   1.917  51.635  1.00  0.00    -0.026 A 
HETATM   11  C16 UNL     1      20.711   1.851  51.528  1.00  0.00     0.051 C 
ENDROOT
BRANCH   4  12
HETATM   12  N1  UNL     1      27.139   1.669  52.722  1.00  0.00    -0.340 N 
HETATM   13  H5  UNL     1      27.463   2.210  53.545  1.00  0.00     0.167 HD
BRANCH  12  14
HETATM   14  C6  UNL     1      27.587   0.331  52.878  1.00  0.00     0.033 A 
HETATM   15  C7  UNL     1      26.897  -0.809  52.524  1.00  0.00     0.032 A 
HETATM   16  C8  UNL     1      27.374  -2.078  52.695  1.00  0.00     0.039 A 
HETATM   17  C9  UNL     1      28.613  -2.293  53.249  1.00  0.00     0.065 A 
HETATM   18  C10 UNL     1      29.338  -1.193  53.618  1.00  0.00     0.039 A 
HETATM   19  C11 UNL     1      28.822   0.068  53.429  1.00  0.00     0.032 A 
BRANCH  17  20
HETATM   20  O2  UNL     1      28.992  -3.616  53.374  1.00  0.00    -0.361 OA
HETATM   21  H8  UNL     1      28.389  -4.390  53.568  1.00  0.00     0.217 HD
ENDBRANCH  17  20
ENDBRANCH  12  14
ENDBRANCH   4  12
BRANCH   1  22
HETATM   22  O1  UNL     1      22.238   0.632  53.636  1.00  0.00    -0.355 OA
HETATM   23  C1  UNL     1      22.508  -0.655  54.081  1.00  0.00     0.210 C 
ENDBRANCH   1  22
TORSDOF 4
ENDMDL
MODEL 2
REMARK VINA RESULT:      -8.0      2.802      4.428
REMARK  4 active torsions:
REMARK  status: ('A' for Active; 'I' for Inactive)
REMARK    1  A    between atoms: O1_2  and  C2_3 
REMARK    2  A    between atoms: C5_6  and  N1_7 
REMARK    3  A    between atoms: N1_7  and  C6_8 
REMARK    4  A    between atoms: C9_11  and  O2_12 
ROOT
HETATM    1  C2  UNL     1      20.558   0.445  51.425  1.00  0.00     0.075 A 
HETATM    2  C3  UNL     1      21.864   0.365  51.861  1.00  0.00     0.055 A 
HETATM    3  C4  UNL     1      22.276  -0.212  53.025  1.00  0.00     0.041 A 
HETATM    4  C5  UNL     1      23.577  -0.294  53.465  1.00  0.00     0.142 A 
HETATM    5  N2  UNL     1      23.744  -0.898  54.627  1.00  0.00    -0.224 NA
HETATM    6  C12 UNL     1      22.794  -1.425  55.401  1.00  0.00     0.236 A 
HETATM    7  N3  UNL     1      21.534  -1.334  54.958  1.00  0.00    -0.241 NA
HETATM    8  C13 UNL     1      21.258  -0.740  53.787  1.00  0.00     0.072 A 
HETATM    9  C14 UNL     1      19.936  -0.688  53.402  1.00  0.00     0.042 A 
HETATM   10  C15 UNL     1      19.562  -0.094  52.214  1.00  0.00    -0.026 A 
HETATM   11  C16 UNL     1      18.118  -0.074  51.862  1.00  0.00     0.051 C 
ENDROOT
BRANCH   4  12
HETATM   12  N1  UNL     1      24.602   0.257  52.657  1.00  0.00    -0.340 N 
HETATM   13  H5  UNL     1      24.410   0.629  51.708  1.00  0.00     0.167 HD
BRANCH  12  14
HETATM   14  C6  UNL     1      25.988   0.419  52.916  1.00  0.00     0.033 A 
HETATM   15  C7  UNL     1      26.936  -0.581  52.952  1.00  0.00     0.032 A 
HETATM   16  C8  UNL     1      28.263  -0.372  53.207  1.00  0.00     0.039 A 
HETATM   17  C9  UNL     1      28.739   0.895  53.448  1.00  0.00     0.065 A 
HETATM   18  C10 UNL     1      27.837   1.923  53.423  1.00  0.00     0.039 A 
HETATM   19  C11 UNL     1      26.510   1.671  53.163  1.00  0.00     0.032 A 
BRANCH  17  20
HETATM   20  O2  UNL     1      30.096   0.988  53.692  1.00  0.00    -0.361 OA
HETATM   21  H8  UNL     1      30.828   0.603  53.128  1.00  0.00     0.217 HD
ENDBRANCH  17  20
ENDBRANCH  12  14
ENDBRANCH   4  12
BRANCH   1  22
HETATM   22  O1  UNL     1      20.197   1.047  50.225  1.00  0.00    -0.355 OA
HETATM   23  C1  UNL     1      20.994   1.194  49.098  1.00  0.00     0.210 C 
ENDBRANCH   1  22
TORSDOF 4
ENDMDL
MODEL 3
REMARK VINA RESULT:      -7.8      2.663      5.818
REMARK  4 active torsions:
REMARK  status: ('A' for Active; 'I' for Inactive)
REMARK    1  A    between atoms: O1_2  and  C2_3 
REMARK    2  A    between atoms: C5_6  and  N1_7 
REMARK    3  A    between atoms: N1_7  and  C6_8 
REMARK    4  A    between atoms: C9_11  and  O2_12 
ROOT
HETATM    1  C2  UNL     1      24.443  -0.199  53.353  1.00  0.00     0.075 A 
HETATM    2  C3  UNL     1      25.178   0.631  52.534  1.00  0.00     0.055 A 
HETATM    3  C4  UNL     1      26.379   1.193  52.850  1.00  0.00     0.041 A 
HETATM    4  C5  UNL     1      27.118   2.022  52.037  1.00  0.00     0.142 A 
HETATM    5  N2  UNL     1      28.256   2.451  52.551  1.00  0.00    -0.224 NA
HETATM    6  C12 UNL     1      28.750   2.166  53.758  1.00  0.00     0.236 A 
HETATM    7  N3  UNL     1      28.017   1.358  54.534  1.00  0.00    -0.241 NA
HETATM    8  C13 UNL     1      26.845   0.867  54.104  1.00  0.00     0.072 A 
HETATM    9  C14 UNL     1      26.153   0.043  54.964  1.00  0.00     0.042 A 
HETATM   10  C15 UNL     1      24.938  -0.505  54.605  1.00  0.00    -0.026 A 
HETATM   11  C16 UNL     1      24.247  -1.384  55.583  1.00  0.00     0.051 C 
ENDROOT
BRANCH   4  12
HETATM   12  N1  UNL     1      26.612   2.336  50.752  1.00  0.00    -0.340 N 
HETATM   13  H5  UNL     1      26.393   1.601  50.054  1.00  0.00     0.167 HD
BRANCH  12  14
HETATM   14  C6  UNL     1      26.314   3.594  50.165  1.00  0.00     0.033 A 
HETATM   15  C7  UNL     1      27.058   4.246  49.204  1.00  0.00     0.032 A 
HETATM   16  C8  UNL     1      26.727   5.459  48.670  1.00  0.00     0.039 A 
HETATM   17  C9  UNL     1      25.590   6.117  49.076  1.00  0.00     0.065 A 
HETATM   18  C10 UNL     1      24.817   5.512  50.028  1.00  0.00     0.039 A 
HETATM   19  C11 UNL     1      25.186   4.290  50.542  1.00  0.00     0.032 A 
BRANCH  17  20
HETATM   20  O2  UNL     1      25.355   7.336  48.468  1.00  0.00    -0.361 OA
HETATM   21  H8  UNL     1      25.492   7.552  47.500  1.00  0.00     0.217 HD
ENDBRANCH  17  20
ENDBRANCH  12  14
ENDBRANCH   4  12
BRANCH   1  22
HETATM   22  O1  UNL     1      23.221  -0.743  52.976  1.00  0.00    -0.355 OA
HETATM   23  C1  UNL     1      22.044  -0.050  52.730  1.00  0.00     0.210 C 
ENDBRANCH   1  22
TORSDOF 4
ENDMDL
MODEL 4
REMARK VINA RESULT:      -7.7      2.695      4.176
REMARK  4 active torsions:
REMARK  status: ('A' for Active; 'I' for Inactive)
REMARK    1  A    between atoms: O1_2  and  C2_3 
REMARK    2  A    between atoms: C5_6  and  N1_7 
REMARK    3  A    between atoms: N1_7  and  C6_8 
REMARK    4  A    between atoms: C9_11  and  O2_12 
ROOT
HETATM    1  C2  UNL     1      22.201   2.317  51.616  1.00  0.00     0.075 A 
HETATM    2  C3  UNL     1      23.229   1.509  52.055  1.00  0.00     0.055 A 
HETATM    3  C4  UNL     1      23.139   0.584  53.052  1.00  0.00     0.041 A 
HETATM    4  C5  UNL     1      24.161  -0.224  53.495  1.00  0.00     0.142 A 
HETATM    5  N2  UNL     1      23.845  -1.048  54.477  1.00  0.00    -0.224 NA
HETATM    6  C12 UNL     1      22.657  -1.172  55.070  1.00  0.00     0.236 A 
HETATM    7  N3  UNL     1      21.675  -0.377  54.627  1.00  0.00    -0.241 NA
HETATM    8  C13 UNL     1      21.893   0.496  53.632  1.00  0.00     0.072 A 
HETATM    9  C14 UNL     1      20.830   1.277  53.235  1.00  0.00     0.042 A 
HETATM   10  C15 UNL     1      20.965   2.203  52.219  1.00  0.00    -0.026 A 
HETATM   11  C16 UNL     1      19.777   3.011  51.843  1.00  0.00     0.051 C 
ENDROOT
BRANCH   4  12
HETATM   12  N1  UNL     1      25.431  -0.110  52.877  1.00  0.00    -0.340 N 
HETATM   13  H5  UNL     1      25.634  -0.546  51.958  1.00  0.00     0.167 HD
BRANCH  12  14
HETATM   14  C6  UNL     1      26.608   0.554  53.313  1.00  0.00     0.033 A 
HETATM   15  C7  UNL     1      27.029   1.809  52.929  1.00  0.00     0.032 A 
HETATM   16  C8  UNL     1      28.173   2.406  53.379  1.00  0.00     0.039 A 
HETATM   17  C9  UNL     1      28.995   1.761  54.273  1.00  0.00     0.065 A 
HETATM   18  C10 UNL     1      28.621   0.512  54.685  1.00  0.00     0.039 A 
HETATM   19  C11 UNL     1      27.461  -0.054  54.208  1.00  0.00     0.032 A 
BRANCH  17  20
HETATM   20  O2  UNL     1      30.123   2.459  54.659  1.00  0.00    -0.361 OA
HETATM   21  H8  UNL     1      30.233   2.991  55.499  1.00  0.00     0.217 HD
ENDBRANCH  17  20
ENDBRANCH  12  14
ENDBRANCH   4  12
BRANCH   1  22
HETATM   22  O1  UNL     1      22.354   3.244  50.592  1.00  0.00    -0.355 OA
HETATM   23  C1  UNL     1      23.514   3.509  49.879  1.00  0.00     0.210 C 
ENDBRANCH   1  22
TORSDOF 4
ENDMDL
MODEL 5
REMARK VINA RESULT:      -7.6      2.422      4.171
REMARK  4 active torsions:
REMARK  status: ('A' for Active; 'I' for Inactive)
REMARK    1  A    between atoms: O1_2  and  C2_3 
REMARK    2  A    between atoms: C5_6  and  N1_7 
REMARK    3  A    between atoms: N1_7  and  C6_8 
REMARK    4  A    between atoms: C9_11  and  O2_12 
ROOT
HETATM    1  C2  UNL     1      26.323   4.539  49.280  1.00  0.00     0.075 A 
HETATM    2  C3  UNL     1      26.558   3.629  50.289  1.00  0.00     0.055 A 
HETATM    3  C4  UNL     1      25.641   3.210  51.206  1.00  0.00     0.041 A 
HETATM    4  C5  UNL     1      25.869   2.303  52.215  1.00  0.00     0.142 A 
HETATM    5  N2  UNL     1      24.831   2.044  52.990  1.00  0.00    -0.224 NA
HETATM    6  C12 UNL     1      23.607   2.567  52.892  1.00  0.00     0.236 A 
HETATM    7  N3  UNL     1      23.404   3.448  51.905  1.00  0.00    -0.241 NA
HETATM    8  C13 UNL     1      24.395   3.778  51.062  1.00  0.00     0.072 A 
HETATM    9  C14 UNL     1      24.103   4.692  50.073  1.00  0.00     0.042 A 
HETATM   10  C15 UNL     1      25.063   5.089  49.164  1.00  0.00    -0.026 A 
HETATM   11  C16 UNL     1      24.679   6.079  48.125  1.00  0.00     0.051 C 
ENDROOT
BRANCH   4  12
HETATM   12  N1  UNL     1      27.161   1.734  52.336  1.00  0.00    -0.340 N 
HETATM   13  H5  UNL     1      28.022   2.302  52.221  1.00  0.00     0.167 HD
BRANCH  12  14
HETATM   14  C6  UNL     1      27.555   0.398  52.613  1.00  0.00     0.033 A 
HETATM   15  C7  UNL     1      28.728  -0.001  53.217  1.00  0.00     0.032 A 
HETATM   16  C8  UNL     1      29.060  -1.303  53.462  1.00  0.00     0.039 A 
HETATM   17  C9  UNL     1      28.209  -2.323  53.106  1.00  0.00     0.065 A 
HETATM   18  C10 UNL     1      27.030  -1.979  52.503  1.00  0.00     0.039 A 
HETATM   19  C11 UNL     1      26.733  -0.655  52.274  1.00  0.00     0.032 A 
BRANCH  17  20
HETATM   20  O2  UNL     1      28.647  -3.599  53.403  1.00  0.00    -0.361 OA
HETATM   21  H8  UNL     1      29.323  -4.129  52.889  1.00  0.00     0.217 HD
ENDBRANCH  17  20
ENDBRANCH  12  14
ENDBRANCH   4  12
BRANCH   1  22
HETATM   22  O1  UNL     1      27.300   4.929  48.372  1.00  0.00    -0.355 OA
HETATM   23  C1  UNL     1      28.123   6.042  48.466  1.00  0.00     0.210 C 
ENDBRANCH   1  22
TORSDOF 4
ENDMDL
MODEL 6
REMARK VINA RESULT:      -7.6      2.657      5.502
REMARK  4 active torsions:
REMARK  status: ('A' for Active; 'I' for Inactive)
REMARK    1  A    between atoms: O1_2  and  C2_3 
REMARK    2  A    between atoms: C5_6  and  N1_7 
REMARK    3  A    between atoms: N1_7  and  C6_8 
REMARK    4  A    between atoms: C9_11  and  O2_12 
ROOT
HETATM    1  C2  UNL     1      22.197   0.773  53.102  1.00  0.00     0.075 A 
HETATM    2  C3  UNL     1      23.124   1.490  52.377  1.00  0.00     0.055 A 
HETATM    3  C4  UNL     1      24.463   1.236  52.332  1.00  0.00     0.041 A 
HETATM    4  C5  UNL     1      25.393   1.948  51.610  1.00  0.00     0.142 A 
HETATM    5  N2  UNL     1      26.638   1.522  51.716  1.00  0.00    -0.224 NA
HETATM    6  C12 UNL     1      27.074   0.489  52.440  1.00  0.00     0.236 A 
HETATM    7  N3  UNL     1      26.155  -0.191  53.136  1.00  0.00    -0.241 NA
HETATM    8  C13 UNL     1      24.861   0.161  53.095  1.00  0.00     0.072 A 
HETATM    9  C14 UNL     1      23.979  -0.591  53.840  1.00  0.00     0.042 A 
HETATM   10  C15 UNL     1      22.630  -0.298  53.857  1.00  0.00    -0.026 A 
HETATM   11  C16 UNL     1      21.737  -1.151  54.682  1.00  0.00     0.051 C 
ENDROOT
BRANCH   4  12
HETATM   12  N1  UNL     1      24.951   3.047  50.833  1.00  0.00    -0.340 N 
HETATM   13  H5  UNL     1      23.944   3.270  50.722  1.00  0.00     0.167 HD
BRANCH  12  14
HETATM   14  C6  UNL     1      25.693   4.008  50.097  1.00  0.00     0.033 A 
HETATM   15  C7  UNL     1      26.846   3.777  49.379  1.00  0.00     0.032 A 
HETATM   16  C8  UNL     1      27.524   4.740  48.685  1.00  0.00     0.039 A 
HETATM   17  C9  UNL     1      27.072   6.038  48.665  1.00  0.00     0.065 A 
HETATM   18  C10 UNL     1      25.931   6.320  49.362  1.00  0.00     0.039 A 
HETATM   19  C11 UNL     1      25.278   5.322  50.049  1.00  0.00     0.032 A 
BRANCH  17  20
HETATM   20  O2  UNL     1      27.836   6.926  47.930  1.00  0.00    -0.361 OA
HETATM   21  H8  UNL     1      28.575   6.691  47.299  1.00  0.00     0.217 HD
ENDBRANCH  17  20
ENDBRANCH  12  14
ENDBRANCH   4  12
BRANCH   1  22
HETATM   22  O1  UNL     1      20.841   1.080  53.108  1.00  0.00    -0.355 OA
HETATM   23  C1  UNL     1      20.252   2.243  52.632  1.00  0.00     0.210 C 
ENDBRANCH   1  22
TORSDOF 4
ENDMDL
MODEL 7
REMARK VINA RESULT:      -7.5      3.056      7.133
REMARK  4 active torsions:
REMARK  status: ('A' for Active; 'I' for Inactive)
REMARK    1  A    between atoms: O1_2  and  C2_3 
REMARK    2  A    between atoms: C5_6  and  N1_7 
REMARK    3  A    between atoms: N1_7  and  C6_8 
REMARK    4  A    between atoms: C9_11  and  O2_12 
ROOT
HETATM    1  C2  UNL     1      26.661   1.320  52.495  1.00  0.00     0.075 A 
HETATM    2  C3  UNL     1      25.367   0.843  52.500  1.00  0.00     0.055 A 
HETATM    3  C4  UNL     1      24.809   0.080  53.483  1.00  0.00     0.041 A 
HETATM    4  C5  UNL     1      23.520  -0.399  53.494  1.00  0.00     0.142 A 
HETATM    5  N2  UNL     1      23.194  -1.120  54.551  1.00  0.00    -0.224 NA
HETATM    6  C12 UNL     1      23.977  -1.424  55.588  1.00  0.00     0.236 A 
HETATM    7  N3  UNL     1      25.228  -0.950  55.559  1.00  0.00    -0.241 NA
HETATM    8  C13 UNL     1      25.658  -0.205  54.529  1.00  0.00     0.072 A 
HETATM    9  C14 UNL     1      26.959   0.244  54.576  1.00  0.00     0.042 A 
HETATM   10  C15 UNL     1      27.485   1.015  53.559  1.00  0.00    -0.026 A 
HETATM   11  C16 UNL     1      28.896   1.465  53.675  1.00  0.00     0.051 C 
ENDROOT
BRANCH   4  12
HETATM   12  N1  UNL     1      22.671  -0.087  52.404  1.00  0.00    -0.340 N 
HETATM   13  H5  UNL     1      22.731  -0.593  51.501  1.00  0.00     0.167 HD
BRANCH  12  14
HETATM   14  C6  UNL     1      21.643   0.887  52.290  1.00  0.00     0.033 A 
HETATM   15  C7  UNL     1      21.785   2.249  52.443  1.00  0.00     0.032 A 
HETATM   16  C8  UNL     1      20.762   3.146  52.322  1.00  0.00     0.039 A 
HETATM   17  C9  UNL     1      19.488   2.720  52.028  1.00  0.00     0.065 A 
HETATM   18  C10 UNL     1      19.294   1.376  51.866  1.00  0.00     0.039 A 
HETATM   19  C11 UNL     1      20.352   0.506  51.996  1.00  0.00     0.032 A 
BRANCH  17  20
HETATM   20  O2  UNL     1      18.533   3.714  51.929  1.00  0.00    -0.361 OA
HETATM   21  H8  UNL     1      18.689   4.659  51.641  1.00  0.00     0.217 HD
ENDBRANCH  17  20
ENDBRANCH  12  14
ENDBRANCH   4  12
BRANCH   1  22
HETATM   22  O1  UNL     1      27.175   2.096  51.462  1.00  0.00    -0.355 OA
HETATM   23  C1  UNL     1      26.467   2.971  50.650  1.00  0.00     0.210 C 
ENDBRANCH   1  22
TORSDOF 4
ENDMDL
MODEL 8
REMARK VINA RESULT:      -7.3      3.255      5.957
REMARK  4 active torsions:
REMARK  status: ('A' for Active; 'I' for Inactive)
REMARK    1  A    between atoms: O1_2  and  C2_3 
REMARK    2  A    between atoms: C5_6  and  N1_7 
REMARK    3  A    between atoms: N1_7  and  C6_8 
REMARK    4  A    between atoms: C9_11  and  O2_12 
ROOT
HETATM    1  C2  UNL     1      25.840   1.759  53.480  1.00  0.00     0.075 A 
HETATM    2  C3  UNL     1      25.395   2.727  52.604  1.00  0.00     0.055 A 
HETATM    3  C4  UNL     1      24.310   2.616  51.787  1.00  0.00     0.041 A 
HETATM    4  C5  UNL     1      23.861   3.577  50.911  1.00  0.00     0.142 A 
HETATM    5  N2  UNL     1      22.787   3.251  50.215  1.00  0.00    -0.224 NA
HETATM    6  C12 UNL     1      22.109   2.104  50.276  1.00  0.00     0.236 A 
HETATM    7  N3  UNL     1      22.561   1.180  51.132  1.00  0.00    -0.241 NA
HETATM    8  C13 UNL     1      23.646   1.414  51.887  1.00  0.00     0.072 A 
HETATM    9  C14 UNL     1      24.046   0.412  52.744  1.00  0.00     0.042 A 
HETATM   10  C15 UNL     1      25.151   0.566  53.555  1.00  0.00    -0.026 A 
HETATM   11  C16 UNL     1      25.525  -0.557  54.454  1.00  0.00     0.051 C 
ENDROOT
BRANCH   4  12
HETATM   12  N1  UNL     1      24.566   4.804  50.832  1.00  0.00    -0.340 N 
HETATM   13  H5  UNL     1      24.325   5.614  51.434  1.00  0.00     0.167 HD
BRANCH  12  14
HETATM   14  C6  UNL     1      25.653   5.187  50.003  1.00  0.00     0.033 A 
HETATM   15  C7  UNL     1      26.583   4.345  49.432  1.00  0.00     0.032 A 
HETATM   16  C8  UNL     1      27.613   4.765  48.639  1.00  0.00     0.039 A 
HETATM   17  C9  UNL     1      27.782   6.100  48.358  1.00  0.00     0.065 A 
HETATM   18  C10 UNL     1      26.885   6.977  48.901  1.00  0.00     0.039 A 
HETATM   19  C11 UNL     1      25.861   6.514  49.695  1.00  0.00     0.032 A 
BRANCH  17  20
HETATM   20  O2  UNL     1      28.857   6.408  47.545  1.00  0.00    -0.361 OA
HETATM   21  H8  UNL     1      28.882   6.349  46.547  1.00  0.00     0.217 HD
ENDBRANCH  17  20
ENDBRANCH  12  14
ENDBRANCH   4  12
BRANCH   1  22
HETATM   22  O1  UNL     1      26.956   1.931  54.291  1.00  0.00    -0.355 OA
HETATM   23  C1  UNL     1      28.247   2.226  53.876  1.00  0.00     0.210 C 
ENDBRANCH   1  22
TORSDOF 4
ENDMDL
MODEL 9
REMARK VINA RESULT:      -7.2      1.550      2.395
REMARK  4 active torsions:
REMARK  status: ('A' for Active; 'I' for Inactive)
REMARK    1  A    between atoms: O1_2  and  C2_3 
REMARK    2  A    between atoms: C5_6  and  N1_7 
REMARK    3  A    between atoms: N1_7  and  C6_8 
REMARK    4  A    between atoms: C9_11  and  O2_12 
ROOT
HETATM    1  C2  UNL     1      21.542   0.582  53.105  1.00  0.00     0.075 A 
HETATM    2  C3  UNL     1      22.713   1.234  52.782  1.00  0.00     0.055 A 
HETATM    3  C4  UNL     1      22.994   1.808  51.578  1.00  0.00     0.041 A 
HETATM    4  C5  UNL     1      24.160   2.460  51.251  1.00  0.00     0.142 A 
HETATM    5  N2  UNL     1      24.215   2.940  50.022  1.00  0.00    -0.224 NA
HETATM    6  C12 UNL     1      23.268   2.855  49.085  1.00  0.00     0.236 A 
HETATM    7  N3  UNL     1      22.141   2.217  49.421  1.00  0.00    -0.241 NA
HETATM    8  C13 UNL     1      21.986   1.694  50.647  1.00  0.00     0.072 A 
HETATM    9  C14 UNL     1      20.796   1.053  50.914  1.00  0.00     0.042 A 
HETATM   10  C15 UNL     1      20.552   0.485  52.148  1.00  0.00    -0.026 A 
HETATM   11  C16 UNL     1      19.247  -0.190  52.365  1.00  0.00     0.051 C 
ENDROOT
BRANCH   4  12
HETATM   12  N1  UNL     1      25.178   2.563  52.231  1.00  0.00    -0.340 N 
HETATM   13  H5  UNL     1      25.340   3.439  52.763  1.00  0.00     0.167 HD
BRANCH  12  14
HETATM   14  C6  UNL     1      26.122   1.601  52.680  1.00  0.00     0.033 A 
HETATM   15  C7  UNL     1      26.988   1.739  53.743  1.00  0.00     0.032 A 
HETATM   16  C8  UNL     1      27.880   0.781  54.135  1.00  0.00     0.039 A 
HETATM   17  C9  UNL     1      27.962  -0.417  53.465  1.00  0.00     0.065 A 
HETATM   18  C10 UNL     1      27.123  -0.603  52.401  1.00  0.00     0.039 A 
HETATM   19  C11 UNL     1      26.239   0.387  52.038  1.00  0.00     0.032 A 
BRANCH  17  20
HETATM   20  O2  UNL     1      28.898  -1.310  53.949  1.00  0.00    -0.361 OA
HETATM   21  H8  UNL     1      29.862  -1.362  53.686  1.00  0.00     0.217 HD
ENDBRANCH  17  20
ENDBRANCH  12  14
ENDBRANCH   4  12
BRANCH   1  22
HETATM   22  O1  UNL     1      21.312   0.015  54.353  1.00  0.00    -0.355 OA
HETATM   23  C1  UNL     1      22.056  -0.988  54.958  1.00  0.00     0.210 C 
ENDBRANCH   1  22
TORSDOF 4
ENDMDL
