MODEL 1
REMARK VINA RESULT:      -8.8      0.000      0.000
REMARK  1 active torsions:
REMARK  status: ('A' for Active; 'I' for Inactive)
REMARK    1  A    between atoms: N3_15  and  C12_16 
ROOT
HETATM    1  C1  UNL     1      23.209   6.304  50.525  1.00  0.00     0.173 C 
HETATM    2  N1  UNL     1      22.764   5.184  51.320  1.00  0.00    -0.305 N 
HETATM    3  C2  UNL     1      21.468   4.757  51.789  1.00  0.00     0.171 C 
HETATM    4  C3  UNL     1      20.542   4.274  50.754  1.00  0.00    -0.000 C 
HETATM    5  C4  UNL     1      19.917   3.216  50.258  1.00  0.00     0.072 C 
HETATM    6  C5  UNL     1      19.935   1.769  50.655  1.00  0.00     0.245 C 
HETATM    7  O1  UNL     1      19.584   0.573  50.585  1.00  0.00    -0.268 OA
HETATM    8  N2  UNL     1      20.809   1.276  51.690  1.00  0.00    -0.324 N 
HETATM    9  C6  UNL     1      21.682   0.784  52.724  1.00  0.00     0.033 C 
HETATM   10  C7  UNL     1      21.252   0.611  53.955  1.00  0.00     0.003 C 
HETATM   11  C8  UNL     1      21.837  -0.522  54.759  1.00  0.00     0.035 C 
HETATM   12  C9  UNL     1      23.204  -0.892  54.205  1.00  0.00     0.063 C 
HETATM   13  C10 UNL     1      23.653   0.234  53.366  1.00  0.00     0.037 C 
HETATM   14  C11 UNL     1      23.083   0.586  52.246  1.00  0.00     0.056 C 
HETATM   15  N3  UNL     1      24.664   1.218  53.407  1.00  0.00    -0.260 N 
HETATM   16  N4  UNL     1      24.541   2.594  53.453  1.00  0.00    -0.286 N 
HETATM   17  C18 UNL     1      23.795   3.559  52.709  1.00  0.00     0.245 C 
HETATM   18  N5  UNL     1      23.850   4.347  51.694  1.00  0.00    -0.171 NA
HETATM   19  H8  UNL     1      21.242   2.159  51.969  1.00  0.00     0.169 HD
HETATM   20  H20 UNL     1      25.205   2.798  54.263  1.00  0.00     0.188 HD
ENDROOT
BRANCH  15  21
HETATM   21  C12 UNL     1      25.849   0.463  53.385  1.00  0.00     0.056 A 
HETATM   22  C13 UNL     1      26.724   0.833  54.413  1.00  0.00     0.031 A 
HETATM   23  C14 UNL     1      27.968   0.233  54.585  1.00  0.00     0.002 A 
HETATM   24  C15 UNL     1      28.390  -0.775  53.726  1.00  0.00     0.000 A 
HETATM   25  C16 UNL     1      27.549  -1.157  52.708  1.00  0.00     0.002 A 
HETATM   26  C17 UNL     1      26.347  -0.519  52.607  1.00  0.00     0.031 A 
ENDBRANCH  15  21
TORSDOF 1
ENDMDL
MODEL 2
REMARK VINA RESULT:      -8.6      2.590      5.672
REMARK  1 active torsions:
REMARK  status: ('A' for Active; 'I' for Inactive)
REMARK    1  A    between atoms: N3_15  and  C12_16 
ROOT
HETATM    1  C1  UNL     1      26.059  -0.081  55.123  1.00  0.00     0.173 C 
HETATM    2  N1  UNL     1      25.285   0.134  53.922  1.00  0.00    -0.305 N 
HETATM    3  C2  UNL     1      24.127  -0.520  53.363  1.00  0.00     0.171 C 
HETATM    4  C3  UNL     1      22.869  -0.333  54.099  1.00  0.00    -0.000 C 
HETATM    5  C4  UNL     1      21.670   0.231  54.083  1.00  0.00     0.072 C 
HETATM    6  C5  UNL     1      20.992   1.106  53.070  1.00  0.00     0.245 C 
HETATM    7  O1  UNL     1      20.041   1.765  52.602  1.00  0.00    -0.268 OA
HETATM    8  N2  UNL     1      21.675   1.573  51.891  1.00  0.00    -0.324 N 
HETATM    9  C6  UNL     1      22.359   2.040  50.712  1.00  0.00     0.033 C 
HETATM   10  C7  UNL     1      22.221   1.429  49.556  1.00  0.00     0.003 C 
HETATM   11  C8  UNL     1      22.267   2.263  48.301  1.00  0.00     0.035 C 
HETATM   12  C9  UNL     1      23.026   3.554  48.572  1.00  0.00     0.063 C 
HETATM   13  C10 UNL     1      23.796   3.354  49.813  1.00  0.00     0.037 C 
HETATM   14  C11 UNL     1      23.257   3.200  50.992  1.00  0.00     0.056 C 
HETATM   15  N3  UNL     1      25.153   3.249  50.185  1.00  0.00    -0.260 N 
HETATM   16  N4  UNL     1      25.817   2.190  50.776  1.00  0.00    -0.286 N 
HETATM   17  C18 UNL     1      25.564   1.354  51.906  1.00  0.00     0.245 C 
HETATM   18  N5  UNL     1      25.791   1.226  53.166  1.00  0.00    -0.171 NA
HETATM   19  H8  UNL     1      22.573   1.103  52.028  1.00  0.00     0.169 HD
HETATM   20  H20 UNL     1      26.658   2.129  50.122  1.00  0.00     0.188 HD
ENDROOT
BRANCH  15  21
HETATM   21  C12 UNL     1      25.686   4.496  49.814  1.00  0.00     0.056 A 
HETATM   22  C13 UNL     1      26.834   4.359  49.025  1.00  0.00     0.031 A 
HETATM   23  C14 UNL     1      27.545   5.457  48.547  1.00  0.00     0.002 A 
HETATM   24  C15 UNL     1      27.129   6.749  48.843  1.00  0.00     0.000 A 
HETATM   25  C16 UNL     1      26.003   6.910  49.616  1.00  0.00     0.002 A 
HETATM   26  C17 UNL     1      25.364   5.784  50.045  1.00  0.00     0.031 A 
ENDBRANCH  15  21
TORSDOF 1
ENDMDL
MODEL 3
REMARK VINA RESULT:      -8.5      2.212      4.244
REMARK  1 active torsions:
REMARK  status: ('A' for Active; 'I' for Inactive)
REMARK    1  A    between atoms: N3_15  and  C12_16 
ROOT
HETATM    1  C1  UNL     1      20.593  -1.038  54.180  1.00  0.00     0.173 C 
HETATM    2  N1  UNL     1      21.298  -0.249  53.196  1.00  0.00    -0.305 N 
HETATM    3  C2  UNL     1      20.870   0.513  52.049  1.00  0.00     0.171 C 
HETATM    4  C3  UNL     1      20.100   1.730  52.341  1.00  0.00    -0.000 C 
HETATM    5  C4  UNL     1      20.106   3.055  52.322  1.00  0.00     0.072 C 
HETATM    6  C5  UNL     1      21.157   4.042  51.905  1.00  0.00     0.245 C 
HETATM    7  O1  UNL     1      21.610   5.183  51.681  1.00  0.00    -0.268 OA
HETATM    8  N2  UNL     1      22.480   3.624  51.515  1.00  0.00    -0.324 N 
HETATM    9  C6  UNL     1      23.801   3.207  51.125  1.00  0.00     0.033 C 
HETATM   10  C7  UNL     1      24.127   3.066  49.859  1.00  0.00     0.003 C 
HETATM   11  C8  UNL     1      25.543   3.381  49.449  1.00  0.00     0.035 C 
HETATM   12  C9  UNL     1      26.465   3.253  50.653  1.00  0.00     0.063 C 
HETATM   13  C10 UNL     1      25.741   2.474  51.675  1.00  0.00     0.037 C 
HETATM   14  C11 UNL     1      24.674   2.896  52.296  1.00  0.00     0.056 C 
HETATM   15  N3  UNL     1      25.852   1.205  52.281  1.00  0.00    -0.260 N 
HETATM   16  N4  UNL     1      24.958   0.151  52.270  1.00  0.00    -0.286 N 
HETATM   17  C18 UNL     1      23.558   0.021  52.525  1.00  0.00     0.245 C 
HETATM   18  N5  UNL     1      22.697  -0.237  53.446  1.00  0.00    -0.171 NA
HETATM   19  H8  UNL     1      22.358   2.612  51.592  1.00  0.00     0.169 HD
HETATM   20  H20 UNL     1      25.624  -0.636  51.994  1.00  0.00     0.188 HD
ENDROOT
BRANCH  15  21
HETATM   21  C12 UNL     1      27.104   1.261  52.917  1.00  0.00     0.056 A 
HETATM   22  C13 UNL     1      27.697  -0.004  53.016  1.00  0.00     0.031 A 
HETATM   23  C14 UNL     1      28.936  -0.201  53.619  1.00  0.00     0.002 A 
HETATM   24  C15 UNL     1      29.638   0.872  54.154  1.00  0.00     0.000 A 
HETATM   25  C16 UNL     1      29.077   2.125  54.070  1.00  0.00     0.002 A 
HETATM   26  C17 UNL     1      27.860   2.234  53.463  1.00  0.00     0.031 A 
ENDBRANCH  15  21
TORSDOF 1
ENDMDL
MODEL 4
REMARK VINA RESULT:      -8.0      2.728      4.675
REMARK  1 active torsions:
REMARK  status: ('A' for Active; 'I' for Inactive)
REMARK    1  A    between atoms: N3_15  and  C12_16 
ROOT
HETATM    1  C1  UNL     1      18.506   3.985  50.959  1.00  0.00     0.173 C 
HETATM    2  N1  UNL     1      19.864   4.136  50.489  1.00  0.00    -0.305 N 
HETATM    3  C2  UNL     1      20.508   5.093  49.622  1.00  0.00     0.171 C 
HETATM    4  C3  UNL     1      20.637   6.455  50.158  1.00  0.00    -0.000 C 
HETATM    5  C4  UNL     1      21.478   7.374  50.610  1.00  0.00     0.072 C 
HETATM    6  C5  UNL     1      22.966   7.358  50.799  1.00  0.00     0.245 C 
HETATM    7  O1  UNL     1      24.073   7.853  51.093  1.00  0.00    -0.268 OA
HETATM    8  N2  UNL     1      23.748   6.169  50.573  1.00  0.00    -0.324 N 
HETATM    9  C6  UNL     1      24.529   4.981  50.346  1.00  0.00     0.033 C 
HETATM   10  C7  UNL     1      25.162   4.786  49.210  1.00  0.00     0.003 C 
HETATM   11  C8  UNL     1      26.473   4.042  49.245  1.00  0.00     0.035 C 
HETATM   12  C9  UNL     1      26.534   3.170  50.490  1.00  0.00     0.063 C 
HETATM   13  C10 UNL     1      25.155   3.034  50.995  1.00  0.00     0.037 C 
HETATM   14  C11 UNL     1      24.456   4.020  51.487  1.00  0.00     0.056 C 
HETATM   15  N3  UNL     1      24.194   2.008  51.122  1.00  0.00    -0.260 N 
HETATM   16  N4  UNL     1      22.939   1.912  50.552  1.00  0.00    -0.286 N 
HETATM   17  C18 UNL     1      21.817   2.789  50.446  1.00  0.00     0.245 C 
HETATM   18  N5  UNL     1      20.712   3.124  51.014  1.00  0.00    -0.171 NA
HETATM   19  H8  UNL     1      23.002   5.543  50.260  1.00  0.00     0.169 HD
HETATM   20  H20 UNL     1      23.004   0.921  50.162  1.00  0.00     0.188 HD
ENDROOT
BRANCH  15  21
HETATM   21  C12 UNL     1      24.818   1.089  51.984  1.00  0.00     0.056 A 
HETATM   22  C13 UNL     1      23.929   0.584  52.940  1.00  0.00     0.031 A 
HETATM   23  C14 UNL     1      24.322  -0.334  53.911  1.00  0.00     0.002 A 
HETATM   24  C15 UNL     1      25.634  -0.787  53.963  1.00  0.00     0.000 A 
HETATM   25  C16 UNL     1      26.527  -0.305  53.034  1.00  0.00     0.002 A 
HETATM   26  C17 UNL     1      26.063   0.591  52.116  1.00  0.00     0.031 A 
ENDBRANCH  15  21
TORSDOF 1
ENDMDL
MODEL 5
REMARK VINA RESULT:      -7.9      2.768      5.032
REMARK  1 active torsions:
REMARK  status: ('A' for Active; 'I' for Inactive)
REMARK    1  A    between atoms: N3_15  and  C12_16 
ROOT
HETATM    1  C1  UNL     1      19.778   4.423  47.513  1.00  0.00     0.173 C 
HETATM    2  N1  UNL     1      21.101   4.097  47.994  1.00  0.00    -0.305 N 
HETATM    3  C2  UNL     1      22.422   4.551  47.636  1.00  0.00     0.171 C 
HETATM    4  C3  UNL     1      22.736   5.944  47.988  1.00  0.00    -0.000 C 
HETATM    5  C4  UNL     1      23.454   6.734  48.772  1.00  0.00     0.072 C 
HETATM    6  C5  UNL     1      24.443   6.431  49.859  1.00  0.00     0.245 C 
HETATM    7  O1  UNL     1      25.286   6.721  50.733  1.00  0.00    -0.268 OA
HETATM    8  N2  UNL     1      24.696   5.084  50.302  1.00  0.00    -0.324 N 
HETATM    9  C6  UNL     1      24.949   3.737  50.744  1.00  0.00     0.033 C 
HETATM   10  C7  UNL     1      25.975   3.051  50.291  1.00  0.00     0.003 C 
HETATM   11  C8  UNL     1      26.642   2.071  51.223  1.00  0.00     0.035 C 
HETATM   12  C9  UNL     1      25.664   1.648  52.308  1.00  0.00     0.063 C 
HETATM   13  C10 UNL     1      24.312   2.005  51.839  1.00  0.00     0.037 C 
HETATM   14  C11 UNL     1      23.895   3.231  51.673  1.00  0.00     0.056 C 
HETATM   15  N3  UNL     1      23.142   1.327  51.436  1.00  0.00    -0.260 N 
HETATM   16  N4  UNL     1      22.495   1.352  50.215  1.00  0.00    -0.286 N 
HETATM   17  C18 UNL     1      22.057   2.388  49.334  1.00  0.00     0.245 C 
HETATM   18  N5  UNL     1      21.051   3.134  49.038  1.00  0.00    -0.171 NA
HETATM   19  H8  UNL     1      24.082   4.584  49.655  1.00  0.00     0.169 HD
HETATM   20  H20 UNL     1      22.384   0.302  50.059  1.00  0.00     0.188 HD
ENDROOT
BRANCH  15  21
HETATM   21  C12 UNL     1      22.775   0.609  52.587  1.00  0.00     0.056 A 
HETATM   22  C13 UNL     1      21.494   0.955  53.032  1.00  0.00     0.031 A 
HETATM   23  C14 UNL     1      20.918   0.383  54.164  1.00  0.00     0.002 A 
HETATM   24  C15 UNL     1      21.610  -0.568  54.902  1.00  0.00     0.000 A 
HETATM   25  C16 UNL     1      22.871  -0.925  54.486  1.00  0.00     0.002 A 
HETATM   26  C17 UNL     1      23.363  -0.319  53.367  1.00  0.00     0.031 A 
ENDBRANCH  15  21
TORSDOF 1
ENDMDL
MODEL 6
REMARK VINA RESULT:      -7.9      2.502      6.292
REMARK  1 active torsions:
REMARK  status: ('A' for Active; 'I' for Inactive)
REMARK    1  A    between atoms: N3_15  and  C12_16 
ROOT
HETATM    1  C1  UNL     1      26.767  -1.259  53.082  1.00  0.00     0.173 C 
HETATM    2  N1  UNL     1      25.921  -0.091  53.004  1.00  0.00    -0.305 N 
HETATM    3  C2  UNL     1      26.193   1.323  52.918  1.00  0.00     0.171 C 
HETATM    4  C3  UNL     1      26.793   1.782  51.657  1.00  0.00    -0.000 C 
HETATM    5  C4  UNL     1      26.596   2.480  50.548  1.00  0.00     0.072 C 
HETATM    6  C5  UNL     1      25.401   3.232  50.039  1.00  0.00     0.245 C 
HETATM    7  O1  UNL     1      24.782   3.962  49.238  1.00  0.00    -0.268 OA
HETATM    8  N2  UNL     1      24.138   3.208  50.731  1.00  0.00    -0.324 N 
HETATM    9  C6  UNL     1      22.876   3.185  51.424  1.00  0.00     0.033 C 
HETATM   10  C7  UNL     1      22.527   4.154  52.240  1.00  0.00     0.003 C 
HETATM   11  C8  UNL     1      21.065   4.514  52.333  1.00  0.00     0.035 C 
HETATM   12  C9  UNL     1      20.217   3.327  51.904  1.00  0.00     0.063 C 
HETATM   13  C10 UNL     1      21.082   2.133  51.952  1.00  0.00     0.037 C 
HETATM   14  C11 UNL     1      22.100   1.935  51.161  1.00  0.00     0.056 C 
HETATM   15  N3  UNL     1      21.176   0.952  52.719  1.00  0.00    -0.260 N 
HETATM   16  N4  UNL     1      22.209   0.514  53.525  1.00  0.00    -0.286 N 
HETATM   17  C18 UNL     1      23.622   0.379  53.357  1.00  0.00     0.245 C 
HETATM   18  N5  UNL     1      24.545  -0.446  53.005  1.00  0.00    -0.171 NA
HETATM   19  H8  UNL     1      24.405   2.634  51.534  1.00  0.00     0.169 HD
HETATM   20  H20 UNL     1      21.652   0.273  54.402  1.00  0.00     0.188 HD
ENDROOT
BRANCH  15  21
HETATM   21  C12 UNL     1      19.952   0.307  52.465  1.00  0.00     0.056 A 
HETATM   22  C13 UNL     1      19.608  -0.580  53.492  1.00  0.00     0.031 A 
HETATM   23  C14 UNL     1      18.444  -1.343  53.457  1.00  0.00     0.002 A 
HETATM   24  C15 UNL     1      17.570  -1.247  52.382  1.00  0.00     0.000 A 
HETATM   25  C16 UNL     1      17.886  -0.383  51.360  1.00  0.00     0.002 A 
HETATM   26  C17 UNL     1      19.045   0.329  51.470  1.00  0.00     0.031 A 
ENDBRANCH  15  21
TORSDOF 1
ENDMDL
MODEL 7
REMARK VINA RESULT:      -7.9      1.621      2.127
REMARK  1 active torsions:
REMARK  status: ('A' for Active; 'I' for Inactive)
REMARK    1  A    between atoms: N3_15  and  C12_16 
ROOT
HETATM    1  C1  UNL     1      23.961   7.716  50.462  1.00  0.00     0.173 C 
HETATM    2  N1  UNL     1      23.139   6.640  50.963  1.00  0.00    -0.305 N 
HETATM    3  C2  UNL     1      21.712   6.459  51.082  1.00  0.00     0.171 C 
HETATM    4  C3  UNL     1      20.980   6.309  49.817  1.00  0.00    -0.000 C 
HETATM    5  C4  UNL     1      20.300   5.475  49.043  1.00  0.00     0.072 C 
HETATM    6  C5  UNL     1      19.951   4.025  49.203  1.00  0.00     0.245 C 
HETATM    7  O1  UNL     1      19.406   2.950  48.876  1.00  0.00    -0.268 OA
HETATM    8  N2  UNL     1      20.448   3.240  50.305  1.00  0.00    -0.324 N 
HETATM    9  C6  UNL     1      20.946   2.457  51.406  1.00  0.00     0.033 C 
HETATM   10  C7  UNL     1      20.216   2.248  52.480  1.00  0.00     0.003 C 
HETATM   11  C8  UNL     1      20.371   0.932  53.199  1.00  0.00     0.035 C 
HETATM   12  C9  UNL     1      21.735   0.334  52.887  1.00  0.00     0.063 C 
HETATM   13  C10 UNL     1      22.572   1.421  52.346  1.00  0.00     0.037 C 
HETATM   14  C11 UNL     1      22.356   2.011  51.202  1.00  0.00     0.056 C 
HETATM   15  N3  UNL     1      23.713   2.148  52.747  1.00  0.00    -0.260 N 
HETATM   16  N4  UNL     1      23.845   3.503  52.983  1.00  0.00    -0.286 N 
HETATM   17  C18 UNL     1      23.490   4.685  52.262  1.00  0.00     0.245 C 
HETATM   18  N5  UNL     1      23.929   5.549  51.416  1.00  0.00    -0.171 NA
HETATM   19  H8  UNL     1      20.964   3.970  50.802  1.00  0.00     0.169 HD
HETATM   20  H20 UNL     1      24.328   3.466  53.934  1.00  0.00     0.188 HD
ENDROOT
BRANCH  15  21
HETATM   21  C12 UNL     1      24.705   1.158  52.851  1.00  0.00     0.056 A 
HETATM   22  C13 UNL     1      25.706   1.319  51.887  1.00  0.00     0.031 A 
HETATM   23  C14 UNL     1      26.790   0.450  51.785  1.00  0.00     0.002 A 
HETATM   24  C15 UNL     1      26.915  -0.625  52.656  1.00  0.00     0.000 A 
HETATM   25  C16 UNL     1      25.944  -0.805  53.612  1.00  0.00     0.002 A 
HETATM   26  C17 UNL     1      24.915   0.090  53.646  1.00  0.00     0.031 A 
ENDBRANCH  15  21
TORSDOF 1
ENDMDL
MODEL 8
REMARK VINA RESULT:      -7.6      3.729      7.176
REMARK  1 active torsions:
REMARK  status: ('A' for Active; 'I' for Inactive)
REMARK    1  A    between atoms: N3_15  and  C12_16 
ROOT
HETATM    1  C1  UNL     1      24.051  -0.663  53.686  1.00  0.00     0.173 C 
HETATM    2  N1  UNL     1      22.851   0.047  53.306  1.00  0.00    -0.305 N 
HETATM    3  C2  UNL     1      22.608   1.375  52.798  1.00  0.00     0.171 C 
HETATM    4  C3  UNL     1      23.087   1.634  51.432  1.00  0.00    -0.000 C 
HETATM    5  C4  UNL     1      22.730   1.863  50.177  1.00  0.00     0.072 C 
HETATM    6  C5  UNL     1      21.382   1.954  49.523  1.00  0.00     0.245 C 
HETATM    7  O1  UNL     1      20.599   2.148  48.572  1.00  0.00    -0.268 OA
HETATM    8  N2  UNL     1      20.167   1.679  50.247  1.00  0.00    -0.324 N 
HETATM    9  C6  UNL     1      18.952   1.405  50.971  1.00  0.00     0.033 C 
HETATM   10  C7  UNL     1      18.228   2.377  51.482  1.00  0.00     0.003 C 
HETATM   11  C8  UNL     1      16.732   2.199  51.529  1.00  0.00     0.035 C 
HETATM   12  C9  UNL     1      16.391   0.716  51.504  1.00  0.00     0.063 C 
HETATM   13  C10 UNL     1      17.619  -0.019  51.862  1.00  0.00     0.037 C 
HETATM   14  C11 UNL     1      18.691  -0.057  51.120  1.00  0.00     0.056 C 
HETATM   15  N3  UNL     1      18.075  -0.812  52.936  1.00  0.00    -0.260 N 
HETATM   16  N4  UNL     1      19.141  -0.597  53.789  1.00  0.00    -0.286 N 
HETATM   17  C18 UNL     1      20.518  -0.259  53.607  1.00  0.00     0.245 C 
HETATM   18  N5  UNL     1      21.694  -0.762  53.471  1.00  0.00    -0.171 NA
HETATM   19  H8  UNL     1      20.567   1.497  51.171  1.00  0.00     0.169 HD
HETATM   20  H20 UNL     1      18.650  -0.758  54.722  1.00  0.00     0.188 HD
ENDROOT
BRANCH  15  21
HETATM   21  C12 UNL     1      17.181  -1.897  52.937  1.00  0.00     0.056 A 
HETATM   22  C13 UNL     1      17.697  -2.999  53.628  1.00  0.00     0.031 A 
HETATM   23  C14 UNL     1      16.997  -4.196  53.753  1.00  0.00     0.002 A 
HETATM   24  C15 UNL     1      15.737  -4.337  53.184  1.00  0.00     0.000 A 
HETATM   25  C16 UNL     1      15.208  -3.269  52.500  1.00  0.00     0.002 A 
HETATM   26  C17 UNL     1      15.958  -2.132  52.423  1.00  0.00     0.031 A 
ENDBRANCH  15  21
TORSDOF 1
ENDMDL
MODEL 9
REMARK VINA RESULT:      -7.4      2.865      5.957
REMARK  1 active torsions:
REMARK  status: ('A' for Active; 'I' for Inactive)
REMARK    1  A    between atoms: N3_15  and  C12_16 
ROOT
HETATM    1  C1  UNL     1      21.684   3.883  46.871  1.00  0.00     0.173 C 
HETATM    2  N1  UNL     1      22.149   3.221  48.069  1.00  0.00    -0.305 N 
HETATM    3  C2  UNL     1      23.401   3.242  48.786  1.00  0.00     0.171 C 
HETATM    4  C3  UNL     1      23.728   4.504  49.464  1.00  0.00    -0.000 C 
HETATM    5  C4  UNL     1      23.869   5.108  50.635  1.00  0.00     0.072 C 
HETATM    6  C5  UNL     1      23.695   4.612  52.041  1.00  0.00     0.245 C 
HETATM    7  O1  UNL     1      23.725   4.708  53.285  1.00  0.00    -0.268 OA
HETATM    8  N2  UNL     1      23.205   3.287  52.324  1.00  0.00    -0.324 N 
HETATM    9  C6  UNL     1      22.715   1.962  52.607  1.00  0.00     0.033 C 
HETATM   10  C7  UNL     1      23.539   0.974  52.880  1.00  0.00     0.003 C 
HETATM   11  C8  UNL     1      23.081  -0.084  53.852  1.00  0.00     0.035 C 
HETATM   12  C9  UNL     1      21.561  -0.119  53.893  1.00  0.00     0.063 C 
HETATM   13  C10 UNL     1      21.077   0.581  52.689  1.00  0.00     0.037 C 
HETATM   14  C11 UNL     1      21.232   1.858  52.473  1.00  0.00     0.056 C 
HETATM   15  N3  UNL     1      20.398   0.245  51.498  1.00  0.00    -0.260 N 
HETATM   16  N4  UNL     1      20.821   0.365  50.188  1.00  0.00    -0.286 N 
HETATM   17  C18 UNL     1      21.412   1.414  49.418  1.00  0.00     0.245 C 
HETATM   18  N5  UNL     1      21.139   2.397  48.633  1.00  0.00    -0.171 NA
HETATM   19  H8  UNL     1      23.114   2.941  51.366  1.00  0.00     0.169 HD
HETATM   20  H20 UNL     1      20.583  -0.615  49.840  1.00  0.00     0.188 HD
ENDROOT
BRANCH  15  21
HETATM   21  C12 UNL     1      19.163  -0.245  51.959  1.00  0.00     0.056 A 
HETATM   22  C13 UNL     1      18.114   0.086  51.094  1.00  0.00     0.031 A 
HETATM   23  C14 UNL     1      16.795  -0.281  51.348  1.00  0.00     0.002 A 
HETATM   24  C15 UNL     1      16.472  -1.003  52.490  1.00  0.00     0.000 A 
HETATM   25  C16 UNL     1      17.485  -1.340  53.356  1.00  0.00     0.002 A 
HETATM   26  C17 UNL     1      18.750  -0.943  53.035  1.00  0.00     0.031 A 
ENDBRANCH  15  21
TORSDOF 1
ENDMDL
