MODEL 1
REMARK VINA RESULT:      -7.8      0.000      0.000
REMARK  4 active torsions:
REMARK  status: ('A' for Active; 'I' for Inactive)
REMARK    1  A    between atoms: N1_2  and  C2_3 
REMARK    2  A    between atoms: C7_8  and  C8_9 
REMARK    3  A    between atoms: N2_13  and  C12_14 
REMARK    4  A    between atoms: C12_14  and  C13_15 
ROOT
HETATM    1  C8  UNL     1      26.068   1.008  52.979  1.00  0.00     0.026 C 
HETATM    2  C9  UNL     1      24.761   0.857  53.248  1.00  0.00     0.012 C 
HETATM    3  C10 UNL     1      23.901  -0.226  53.789  1.00  0.00     0.064 C 
HETATM    4  C11 UNL     1      22.692  -0.160  52.879  1.00  0.00     0.131 C 
HETATM    5  N2  UNL     1      22.569   1.235  52.547  1.00  0.00    -0.344 N 
HETATM    6  C19 UNL     1      23.763   1.918  52.989  1.00  0.00     0.250 C 
HETATM    7  O1  UNL     1      23.888   3.180  53.114  1.00  0.00    -0.268 OA
ENDROOT
BRANCH   1   8
HETATM    8  C7  UNL     1      27.087   0.014  53.173  1.00  0.00    -0.007 A 
HETATM    9  C2  UNL     1      28.267   0.039  53.881  1.00  0.00     0.065 A 
HETATM   10  C3  UNL     1      29.123  -1.038  53.906  1.00  0.00     0.032 A 
HETATM   11  C4  UNL     1      28.845  -2.201  53.223  1.00  0.00     0.002 A 
HETATM   12  C5  UNL     1      27.663  -2.250  52.501  1.00  0.00     0.001 A 
HETATM   13  C6  UNL     1      26.788  -1.161  52.472  1.00  0.00     0.014 A 
BRANCH   9  14
HETATM   14  N1  UNL     1      28.476   1.273  54.554  1.00  0.00    -0.271 NA
HETATM   15  C1  UNL     1      29.383   2.065  54.093  1.00  0.00     0.149 C 
ENDBRANCH   9  14
ENDBRANCH   1   8
BRANCH   5  16
HETATM   16  C12 UNL     1      21.409   1.783  51.876  1.00  0.00     0.164 C 
BRANCH  16  17
HETATM   17  C13 UNL     1      21.744   2.032  50.473  1.00  0.00    -0.040 A 
HETATM   18  C14 UNL     1      22.273   3.242  50.074  1.00  0.00     0.009 A 
HETATM   19  C15 UNL     1      22.600   3.494  48.743  1.00  0.00     0.001 A 
HETATM   20  C16 UNL     1      22.374   2.484  47.834  1.00  0.00     0.000 A 
HETATM   21  C17 UNL     1      21.844   1.248  48.190  1.00  0.00     0.001 A 
HETATM   22  C18 UNL     1      21.526   1.025  49.525  1.00  0.00     0.009 A 
ENDBRANCH  16  17
ENDBRANCH   5  16
TORSDOF 4
ENDMDL
MODEL 2
REMARK VINA RESULT:      -7.8      1.686      2.546
REMARK  4 active torsions:
REMARK  status: ('A' for Active; 'I' for Inactive)
REMARK    1  A    between atoms: N1_2  and  C2_3 
REMARK    2  A    between atoms: C7_8  and  C8_9 
REMARK    3  A    between atoms: N2_13  and  C12_14 
REMARK    4  A    between atoms: C12_14  and  C13_15 
ROOT
HETATM    1  C8  UNL     1      25.878   0.231  52.923  1.00  0.00     0.026 C 
HETATM    2  C9  UNL     1      25.606   1.099  51.934  1.00  0.00     0.012 C 
HETATM    3  C10 UNL     1      26.376   1.753  50.846  1.00  0.00     0.064 C 
HETATM    4  C11 UNL     1      25.857   3.175  50.896  1.00  0.00     0.131 C 
HETATM    5  N2  UNL     1      24.481   3.041  51.299  1.00  0.00    -0.344 N 
HETATM    6  C19 UNL     1      24.260   1.679  51.727  1.00  0.00     0.250 C 
HETATM    7  O1  UNL     1      23.122   1.130  51.883  1.00  0.00    -0.268 OA
ENDROOT
BRANCH   1   8
HETATM    8  C7  UNL     1      27.163  -0.347  53.204  1.00  0.00    -0.007 A 
HETATM    9  C2  UNL     1      28.281   0.164  53.823  1.00  0.00     0.065 A 
HETATM   10  C3  UNL     1      29.436  -0.570  53.961  1.00  0.00     0.032 A 
HETATM   11  C4  UNL     1      29.537  -1.859  53.486  1.00  0.00     0.002 A 
HETATM   12  C5  UNL     1      28.424  -2.397  52.858  1.00  0.00     0.001 A 
HETATM   13  C6  UNL     1      27.247  -1.657  52.715  1.00  0.00     0.014 A 
BRANCH   9  14
HETATM   14  N1  UNL     1      28.092   1.496  54.281  1.00  0.00    -0.271 NA
HETATM   15  C1  UNL     1      28.741   2.437  53.683  1.00  0.00     0.149 C 
ENDBRANCH   9  14
ENDBRANCH   1   8
BRANCH   5  16
HETATM   16  C12 UNL     1      23.540   4.140  51.256  1.00  0.00     0.164 C 
BRANCH  16  17
HETATM   17  C13 UNL     1      23.178   4.403  49.863  1.00  0.00    -0.040 A 
HETATM   18  C14 UNL     1      22.539   3.444  49.103  1.00  0.00     0.009 A 
HETATM   19  C15 UNL     1      22.183   3.680  47.777  1.00  0.00     0.001 A 
HETATM   20  C16 UNL     1      22.495   4.913  47.248  1.00  0.00     0.000 A 
HETATM   21  C17 UNL     1      23.138   5.910  47.975  1.00  0.00     0.001 A 
HETATM   22  C18 UNL     1      23.482   5.647  49.297  1.00  0.00     0.009 A 
ENDBRANCH  16  17
ENDBRANCH   5  16
TORSDOF 4
ENDMDL
MODEL 3
REMARK VINA RESULT:      -7.5      3.278      4.844
REMARK  4 active torsions:
REMARK  status: ('A' for Active; 'I' for Inactive)
REMARK    1  A    between atoms: N1_2  and  C2_3 
REMARK    2  A    between atoms: C7_8  and  C8_9 
REMARK    3  A    between atoms: N2_13  and  C12_14 
REMARK    4  A    between atoms: C12_14  and  C13_15 
ROOT
HETATM    1  C8  UNL     1      24.813   0.900  52.191  1.00  0.00     0.026 C 
HETATM    2  C9  UNL     1      24.741   2.233  52.044  1.00  0.00     0.012 C 
HETATM    3  C10 UNL     1      24.187   3.365  52.830  1.00  0.00     0.064 C 
HETATM    4  C11 UNL     1      23.525   4.206  51.758  1.00  0.00     0.131 C 
HETATM    5  N2  UNL     1      24.351   4.018  50.594  1.00  0.00    -0.344 N 
HETATM    6  C19 UNL     1      25.274   2.938  50.858  1.00  0.00     0.250 C 
HETATM    7  O1  UNL     1      26.321   2.679  50.179  1.00  0.00    -0.268 OA
ENDROOT
BRANCH   1   8
HETATM    8  C7  UNL     1      24.291   0.146  53.296  1.00  0.00    -0.007 A 
HETATM    9  C2  UNL     1      24.915  -0.587  54.281  1.00  0.00     0.065 A 
HETATM   10  C3  UNL     1      24.204  -1.267  55.243  1.00  0.00     0.032 A 
HETATM   11  C4  UNL     1      22.827  -1.251  55.273  1.00  0.00     0.002 A 
HETATM   12  C5  UNL     1      22.175  -0.520  54.291  1.00  0.00     0.001 A 
HETATM   13  C6  UNL     1      22.891   0.173  53.312  1.00  0.00     0.014 A 
BRANCH   9  14
HETATM   14  N1  UNL     1      26.332  -0.551  54.176  1.00  0.00    -0.271 NA
HETATM   15  C1  UNL     1      26.974   0.248  54.957  1.00  0.00     0.149 C 
ENDBRANCH   9  14
ENDBRANCH   1   8
BRANCH   5  16
HETATM   16  C12 UNL     1      24.213   4.818  49.397  1.00  0.00     0.164 C 
BRANCH  16  17
HETATM   17  C13 UNL     1      25.226   5.875  49.410  1.00  0.00    -0.040 A 
HETATM   18  C14 UNL     1      26.355   5.785  48.621  1.00  0.00     0.009 A 
HETATM   19  C15 UNL     1      27.326   6.783  48.618  1.00  0.00     0.001 A 
HETATM   20  C16 UNL     1      27.118   7.871  49.438  1.00  0.00     0.000 A 
HETATM   21  C17 UNL     1      25.996   8.005  50.250  1.00  0.00     0.001 A 
HETATM   22  C18 UNL     1      25.043   6.992  50.232  1.00  0.00     0.009 A 
ENDBRANCH  16  17
ENDBRANCH   5  16
TORSDOF 4
ENDMDL
MODEL 4
REMARK VINA RESULT:      -7.5      2.422      3.793
REMARK  4 active torsions:
REMARK  status: ('A' for Active; 'I' for Inactive)
REMARK    1  A    between atoms: N1_2  and  C2_3 
REMARK    2  A    between atoms: C7_8  and  C8_9 
REMARK    3  A    between atoms: N2_13  and  C12_14 
REMARK    4  A    between atoms: C12_14  and  C13_15 
ROOT
HETATM    1  C8  UNL     1      24.990   0.846  52.383  1.00  0.00     0.026 C 
HETATM    2  C9  UNL     1      24.941   2.183  52.259  1.00  0.00     0.012 C 
HETATM    3  C10 UNL     1      24.330   3.304  53.019  1.00  0.00     0.064 C 
HETATM    4  C11 UNL     1      23.768   4.172  51.912  1.00  0.00     0.131 C 
HETATM    5  N2  UNL     1      24.688   4.000  50.818  1.00  0.00    -0.344 N 
HETATM    6  C19 UNL     1      25.577   2.906  51.136  1.00  0.00     0.250 C 
HETATM    7  O1  UNL     1      26.675   2.652  50.543  1.00  0.00    -0.268 OA
ENDROOT
BRANCH   1   8
HETATM    8  C7  UNL     1      24.371   0.075  53.425  1.00  0.00    -0.007 A 
HETATM    9  C2  UNL     1      24.903  -0.699  54.431  1.00  0.00     0.065 A 
HETATM   10  C3  UNL     1      24.108  -1.388  55.318  1.00  0.00     0.032 A 
HETATM   11  C4  UNL     1      22.734  -1.339  55.248  1.00  0.00     0.002 A 
HETATM   12  C5  UNL     1      22.173  -0.566  54.243  1.00  0.00     0.001 A 
HETATM   13  C6  UNL     1      22.974   0.136  53.339  1.00  0.00     0.014 A 
BRANCH   9  14
HETATM   14  N1  UNL     1      26.325  -0.695  54.431  1.00  0.00    -0.271 NA
HETATM   15  C1  UNL     1      26.925   0.196  55.142  1.00  0.00     0.149 C 
ENDBRANCH   9  14
ENDBRANCH   1   8
BRANCH   5  16
HETATM   16  C12 UNL     1      24.657   4.825  49.630  1.00  0.00     0.164 C 
BRANCH  16  17
HETATM   17  C13 UNL     1      23.640   4.306  48.715  1.00  0.00    -0.040 A 
HETATM   18  C14 UNL     1      23.358   2.956  48.660  1.00  0.00     0.009 A 
HETATM   19  C15 UNL     1      22.390   2.446  47.797  1.00  0.00     0.001 A 
HETATM   20  C16 UNL     1      21.720   3.344  46.996  1.00  0.00     0.000 A 
HETATM   21  C17 UNL     1      21.969   4.714  47.017  1.00  0.00     0.001 A 
HETATM   22  C18 UNL     1      22.942   5.194  47.888  1.00  0.00     0.009 A 
ENDBRANCH  16  17
ENDBRANCH   5  16
TORSDOF 4
ENDMDL
MODEL 5
REMARK VINA RESULT:      -7.5      2.474      7.069
REMARK  4 active torsions:
REMARK  status: ('A' for Active; 'I' for Inactive)
REMARK    1  A    between atoms: N1_2  and  C2_3 
REMARK    2  A    between atoms: C7_8  and  C8_9 
REMARK    3  A    between atoms: N2_13  and  C12_14 
REMARK    4  A    between atoms: C12_14  and  C13_15 
ROOT
HETATM    1  C8  UNL     1      23.873   2.989  49.984  1.00  0.00     0.026 C 
HETATM    2  C9  UNL     1      23.805   2.731  51.300  1.00  0.00     0.012 C 
HETATM    3  C10 UNL     1      24.059   3.489  52.552  1.00  0.00     0.064 C 
HETATM    4  C11 UNL     1      24.799   2.474  53.398  1.00  0.00     0.131 C 
HETATM    5  N2  UNL     1      24.234   1.207  53.014  1.00  0.00    -0.344 N 
HETATM    6  C19 UNL     1      23.420   1.407  51.837  1.00  0.00     0.250 C 
HETATM    7  O1  UNL     1      22.558   0.583  51.387  1.00  0.00    -0.268 OA
ENDROOT
BRANCH   1   8
HETATM    8  C7  UNL     1      24.269   4.236  49.391  1.00  0.00    -0.007 A 
HETATM    9  C2  UNL     1      23.541   5.232  48.780  1.00  0.00     0.065 A 
HETATM   10  C3  UNL     1      24.140   6.349  48.246  1.00  0.00     0.032 A 
HETATM   11  C4  UNL     1      25.505   6.532  48.294  1.00  0.00     0.002 A 
HETATM   12  C5  UNL     1      26.260   5.543  48.904  1.00  0.00     0.001 A 
HETATM   13  C6  UNL     1      25.658   4.406  49.449  1.00  0.00     0.014 A 
BRANCH   9  14
HETATM   14  N1  UNL     1      22.145   4.963  48.773  1.00  0.00    -0.271 NA
HETATM   15  C1  UNL     1      21.363   5.823  49.330  1.00  0.00     0.149 C 
ENDBRANCH   9  14
ENDBRANCH   1   8
BRANCH   5  16
HETATM   16  C12 UNL     1      24.493  -0.019  53.737  1.00  0.00     0.164 C 
BRANCH  16  17
HETATM   17  C13 UNL     1      25.937  -0.258  53.770  1.00  0.00    -0.040 A 
HETATM   18  C14 UNL     1      26.554  -1.004  52.787  1.00  0.00     0.009 A 
HETATM   19  C15 UNL     1      27.928  -1.238  52.801  1.00  0.00     0.001 A 
HETATM   20  C16 UNL     1      28.651  -0.693  53.839  1.00  0.00     0.000 A 
HETATM   21  C17 UNL     1      28.073   0.066  54.852  1.00  0.00     0.001 A 
HETATM   22  C18 UNL     1      26.699   0.283  54.812  1.00  0.00     0.009 A 
ENDBRANCH  16  17
ENDBRANCH   5  16
TORSDOF 4
ENDMDL
MODEL 6
REMARK VINA RESULT:      -7.4      2.800      4.430
REMARK  4 active torsions:
REMARK  status: ('A' for Active; 'I' for Inactive)
REMARK    1  A    between atoms: N1_2  and  C2_3 
REMARK    2  A    between atoms: C7_8  and  C8_9 
REMARK    3  A    between atoms: N2_13  and  C12_14 
REMARK    4  A    between atoms: C12_14  and  C13_15 
ROOT
HETATM    1  C8  UNL     1      24.877   0.669  52.445  1.00  0.00     0.026 C 
HETATM    2  C9  UNL     1      24.916   2.009  52.365  1.00  0.00     0.012 C 
HETATM    3  C10 UNL     1      24.313   3.142  53.114  1.00  0.00     0.064 C 
HETATM    4  C11 UNL     1      23.893   4.076  51.998  1.00  0.00     0.131 C 
HETATM    5  N2  UNL     1      24.887   3.882  50.975  1.00  0.00    -0.344 N 
HETATM    6  C19 UNL     1      25.682   2.727  51.322  1.00  0.00     0.250 C 
HETATM    7  O1  UNL     1      26.808   2.424  50.809  1.00  0.00    -0.268 OA
ENDROOT
BRANCH   1   8
HETATM    8  C7  UNL     1      24.132  -0.094  53.407  1.00  0.00    -0.007 A 
HETATM    9  C2  UNL     1      22.802  -0.440  53.468  1.00  0.00     0.065 A 
HETATM   10  C3  UNL     1      22.286  -1.167  54.517  1.00  0.00     0.032 A 
HETATM   11  C4  UNL     1      23.075  -1.588  55.564  1.00  0.00     0.002 A 
HETATM   12  C5  UNL     1      24.419  -1.251  55.526  1.00  0.00     0.001 A 
HETATM   13  C6  UNL     1      24.950  -0.515  54.464  1.00  0.00     0.014 A 
BRANCH   9  14
HETATM   14  N1  UNL     1      22.060   0.033  52.352  1.00  0.00    -0.271 NA
HETATM   15  C1  UNL     1      21.219   0.990  52.549  1.00  0.00     0.149 C 
ENDBRANCH   9  14
ENDBRANCH   1   8
BRANCH   5  16
HETATM   16  C12 UNL     1      25.001   4.744  49.818  1.00  0.00     0.164 C 
BRANCH  16  17
HETATM   17  C13 UNL     1      23.909   4.444  48.890  1.00  0.00    -0.040 A 
HETATM   18  C14 UNL     1      23.448   3.153  48.732  1.00  0.00     0.009 A 
HETATM   19  C15 UNL     1      22.408   2.850  47.856  1.00  0.00     0.001 A 
HETATM   20  C16 UNL     1      21.853   3.894  47.149  1.00  0.00     0.000 A 
HETATM   21  C17 UNL     1      22.284   5.211  47.275  1.00  0.00     0.001 A 
HETATM   22  C18 UNL     1      23.325   5.483  48.157  1.00  0.00     0.009 A 
ENDBRANCH  16  17
ENDBRANCH   5  16
TORSDOF 4
ENDMDL
MODEL 7
REMARK VINA RESULT:      -7.3      2.084      7.342
REMARK  4 active torsions:
REMARK  status: ('A' for Active; 'I' for Inactive)
REMARK    1  A    between atoms: N1_2  and  C2_3 
REMARK    2  A    between atoms: C7_8  and  C8_9 
REMARK    3  A    between atoms: N2_13  and  C12_14 
REMARK    4  A    between atoms: C12_14  and  C13_15 
ROOT
HETATM    1  C8  UNL     1      24.301   3.470  50.023  1.00  0.00     0.026 C 
HETATM    2  C9  UNL     1      24.581   2.493  50.902  1.00  0.00     0.012 C 
HETATM    3  C10 UNL     1      23.822   1.398  51.559  1.00  0.00     0.064 C 
HETATM    4  C11 UNL     1      24.327   1.469  52.985  1.00  0.00     0.131 C 
HETATM    5  N2  UNL     1      25.698   1.891  52.860  1.00  0.00    -0.344 N 
HETATM    6  C19 UNL     1      25.924   2.311  51.496  1.00  0.00     0.250 C 
HETATM    7  O1  UNL     1      27.065   2.480  50.955  1.00  0.00    -0.268 OA
ENDROOT
BRANCH   1   8
HETATM    8  C7  UNL     1      23.018   3.726  49.432  1.00  0.00    -0.007 A 
HETATM    9  C2  UNL     1      22.007   4.594  49.778  1.00  0.00     0.065 A 
HETATM   10  C3  UNL     1      20.826   4.655  49.074  1.00  0.00     0.032 A 
HETATM   11  C4  UNL     1      20.592   3.849  47.982  1.00  0.00     0.002 A 
HETATM   12  C5  UNL     1      21.594   2.965  47.614  1.00  0.00     0.001 A 
HETATM   13  C6  UNL     1      22.796   2.899  48.324  1.00  0.00     0.014 A 
BRANCH   9  14
HETATM   14  N1  UNL     1      22.330   5.386  50.914  1.00  0.00    -0.271 NA
HETATM   15  C1  UNL     1      22.089   6.650  50.855  1.00  0.00     0.149 C 
ENDBRANCH   9  14
ENDBRANCH   1   8
BRANCH   5  16
HETATM   16  C12 UNL     1      26.629   1.872  53.967  1.00  0.00     0.164 C 
BRANCH  16  17
HETATM   17  C13 UNL     1      27.616   0.815  53.742  1.00  0.00    -0.040 A 
HETATM   18  C14 UNL     1      28.962   1.048  53.933  1.00  0.00     0.009 A 
HETATM   19  C15 UNL     1      29.914   0.052  53.727  1.00  0.00     0.001 A 
HETATM   20  C16 UNL     1      29.459  -1.183  53.322  1.00  0.00     0.000 A 
HETATM   21  C17 UNL     1      28.112  -1.466  53.116  1.00  0.00     0.001 A 
HETATM   22  C18 UNL     1      27.184  -0.452  53.330  1.00  0.00     0.009 A 
ENDBRANCH  16  17
ENDBRANCH   5  16
TORSDOF 4
ENDMDL
MODEL 8
REMARK VINA RESULT:      -7.2      3.227      4.954
REMARK  4 active torsions:
REMARK  status: ('A' for Active; 'I' for Inactive)
REMARK    1  A    between atoms: N1_2  and  C2_3 
REMARK    2  A    between atoms: C7_8  and  C8_9 
REMARK    3  A    between atoms: N2_13  and  C12_14 
REMARK    4  A    between atoms: C12_14  and  C13_15 
ROOT
HETATM    1  C8  UNL     1      24.778   2.733  52.358  1.00  0.00     0.026 C 
HETATM    2  C9  UNL     1      24.069   3.201  51.318  1.00  0.00     0.012 C 
HETATM    3  C10 UNL     1      23.393   2.610  50.135  1.00  0.00     0.064 C 
HETATM    4  C11 UNL     1      23.779   3.573  49.031  1.00  0.00     0.131 C 
HETATM    5  N2  UNL     1      23.862   4.853  49.684  1.00  0.00    -0.344 N 
HETATM    6  C19 UNL     1      23.806   4.642  51.113  1.00  0.00     0.250 C 
HETATM    7  O1  UNL     1      23.575   5.543  51.983  1.00  0.00    -0.268 OA
ENDROOT
BRANCH   1   8
HETATM    8  C7  UNL     1      25.100   1.355  52.604  1.00  0.00    -0.007 A 
HETATM    9  C2  UNL     1      24.377   0.333  53.176  1.00  0.00     0.065 A 
HETATM   10  C3  UNL     1      24.903  -0.927  53.343  1.00  0.00     0.032 A 
HETATM   11  C4  UNL     1      26.185  -1.236  52.944  1.00  0.00     0.002 A 
HETATM   12  C5  UNL     1      26.934  -0.223  52.366  1.00  0.00     0.001 A 
HETATM   13  C6  UNL     1      26.406   1.059  52.193  1.00  0.00     0.014 A 
BRANCH   9  14
HETATM   14  N1  UNL     1      23.068   0.737  53.559  1.00  0.00    -0.271 NA
HETATM   15  C1  UNL     1      22.068   0.153  52.993  1.00  0.00     0.149 C 
ENDBRANCH   9  14
ENDBRANCH   1   8
BRANCH   5  16
HETATM   16  C12 UNL     1      23.984   6.099  48.958  1.00  0.00     0.164 C 
BRANCH  16  17
HETATM   17  C13 UNL     1      25.386   6.299  48.588  1.00  0.00    -0.040 A 
HETATM   18  C14 UNL     1      25.785   7.430  47.904  1.00  0.00     0.009 A 
HETATM   19  C15 UNL     1      27.115   7.638  47.548  1.00  0.00     0.001 A 
HETATM   20  C16 UNL     1      28.025   6.667  47.905  1.00  0.00     0.000 A 
HETATM   21  C17 UNL     1      27.670   5.511  48.595  1.00  0.00     0.001 A 
HETATM   22  C18 UNL     1      26.334   5.330  48.937  1.00  0.00     0.009 A 
ENDBRANCH  16  17
ENDBRANCH   5  16
TORSDOF 4
ENDMDL
MODEL 9
REMARK VINA RESULT:      -7.1      3.135      4.288
REMARK  4 active torsions:
REMARK  status: ('A' for Active; 'I' for Inactive)
REMARK    1  A    between atoms: N1_2  and  C2_3 
REMARK    2  A    between atoms: C7_8  and  C8_9 
REMARK    3  A    between atoms: N2_13  and  C12_14 
REMARK    4  A    between atoms: C12_14  and  C13_15 
ROOT
HETATM    1  C8  UNL     1      25.180   2.677  52.737  1.00  0.00     0.026 C 
HETATM    2  C9  UNL     1      24.265   3.009  51.811  1.00  0.00     0.012 C 
HETATM    3  C10 UNL     1      23.582   2.316  50.688  1.00  0.00     0.064 C 
HETATM    4  C11 UNL     1      23.621   3.362  49.594  1.00  0.00     0.131 C 
HETATM    5  N2  UNL     1      23.519   4.617  50.294  1.00  0.00    -0.344 N 
HETATM    6  C19 UNL     1      23.687   4.367  51.707  1.00  0.00     0.250 C 
HETATM    7  O1  UNL     1      23.387   5.179  52.641  1.00  0.00    -0.268 OA
ENDROOT
BRANCH   1   8
HETATM    8  C7  UNL     1      25.807   1.392  52.877  1.00  0.00    -0.007 A 
HETATM    9  C2  UNL     1      27.127   1.008  52.826  1.00  0.00     0.065 A 
HETATM   10  C3  UNL     1      27.508  -0.308  52.959  1.00  0.00     0.032 A 
HETATM   11  C4  UNL     1      26.586  -1.313  53.151  1.00  0.00     0.002 A 
HETATM   12  C5  UNL     1      25.249  -0.951  53.206  1.00  0.00     0.001 A 
HETATM   13  C6  UNL     1      24.856   0.383  53.072  1.00  0.00     0.014 A 
BRANCH   9  14
HETATM   14  N1  UNL     1      28.009   2.104  52.624  1.00  0.00    -0.271 NA
HETATM   15  C1  UNL     1      28.731   2.489  53.620  1.00  0.00     0.149 C 
ENDBRANCH   9  14
ENDBRANCH   1   8
BRANCH   5  16
HETATM   16  C12 UNL     1      23.291   5.876  49.619  1.00  0.00     0.164 C 
BRANCH  16  17
HETATM   17  C13 UNL     1      24.560   6.598  49.514  1.00  0.00    -0.040 A 
HETATM   18  C14 UNL     1      25.609   6.085  48.779  1.00  0.00     0.009 A 
HETATM   19  C15 UNL     1      26.822   6.762  48.666  1.00  0.00     0.001 A 
HETATM   20  C16 UNL     1      26.936   7.969  49.320  1.00  0.00     0.000 A 
HETATM   21  C17 UNL     1      25.906   8.526  50.072  1.00  0.00     0.001 A 
HETATM   22  C18 UNL     1      24.706   7.827  50.167  1.00  0.00     0.009 A 
ENDBRANCH  16  17
ENDBRANCH   5  16
TORSDOF 4
ENDMDL
