MODEL 1
REMARK VINA RESULT:      -8.2      0.000      0.000
REMARK  4 active torsions:
REMARK  status: ('A' for Active; 'I' for Inactive)
REMARK    1  A    between atoms: C4_4  and  C5_5 
REMARK    2  A    between atoms: C6_6  and  N1_7 
REMARK    3  A    between atoms: N1_7  and  C7_8 
REMARK    4  A    between atoms: C14_18  and  O1_19 
ROOT
HETATM    1  C1  UNL     1      28.109   7.565  47.792  1.00  0.00     0.017 C 
HETATM    2  C2  UNL     1      27.201   7.341  48.559  1.00  0.00    -0.089 C 
HETATM    3  C3  UNL     1      26.111   7.069  49.452  1.00  0.00     0.063 C 
HETATM    4  C4  UNL     1      25.760   5.812  49.735  1.00  0.00     0.010 C 
ENDROOT
BRANCH   4   5
HETATM    5  C5  UNL     1      26.494   4.709  49.129  1.00  0.00     0.018 C 
HETATM    6  C6  UNL     1      26.643   3.575  49.805  1.00  0.00     0.090 C 
BRANCH   6   7
HETATM    7  N1  UNL     1      26.076   3.491  51.102  1.00  0.00    -0.349 N 
HETATM    8  H6  UNL     1      25.726   4.458  51.061  1.00  0.00     0.167 HD
BRANCH   7   9
HETATM    9  C7  UNL     1      26.163   2.310  51.882  1.00  0.00     0.159 A 
HETATM   10  N2  UNL     1      27.413   2.042  52.304  1.00  0.00    -0.222 NA
HETATM   11  C8  UNL     1      27.633   0.932  53.064  1.00  0.00     0.238 A 
HETATM   12  N3  UNL     1      26.588   0.141  53.367  1.00  0.00    -0.215 NA
HETATM   13  C9  UNL     1      25.334   0.417  52.939  1.00  0.00     0.202 A 
HETATM   14  C10 UNL     1      25.065   1.530  52.166  1.00  0.00     0.129 A 
HETATM   15  O2  UNL     1      24.368  -0.517  53.349  1.00  0.00    -0.289 OA
HETATM   16  N4  UNL     1      23.872   2.058  51.589  1.00  0.00    -0.379 N 
HETATM   17  C11 UNL     1      22.737   1.233  51.176  1.00  0.00     0.161 C 
HETATM   18  H8  UNL     1      23.971   3.114  51.525  1.00  0.00     0.160 HD
HETATM   19  C12 UNL     1      22.308   0.329  52.269  1.00  0.00    -0.004 A 
HETATM   20  C13 UNL     1      20.924   0.284  52.293  1.00  0.00     0.048 A 
HETATM   21  C18 UNL     1      22.970  -0.429  53.209  1.00  0.00     0.086 A 
HETATM   22  C14 UNL     1      20.170  -0.461  53.184  1.00  0.00     0.069 A 
HETATM   23  C16 UNL     1      20.901  -1.195  54.096  1.00  0.00     0.039 A 
HETATM   24  C17 UNL     1      22.282  -1.201  54.136  1.00  0.00     0.040 A 
BRANCH  22  25
HETATM   25  O1  UNL     1      18.783  -0.448  53.136  1.00  0.00    -0.356 OA
HETATM   26  C15 UNL     1      18.051  -1.586  53.544  1.00  0.00     0.210 C 
ENDBRANCH  22  25
ENDBRANCH   7   9
ENDBRANCH   6   7
ENDBRANCH   4   5
TORSDOF 4
ENDMDL
MODEL 2
REMARK VINA RESULT:      -8.1      2.882      4.792
REMARK  4 active torsions:
REMARK  status: ('A' for Active; 'I' for Inactive)
REMARK    1  A    between atoms: C4_4  and  C5_5 
REMARK    2  A    between atoms: C6_6  and  N1_7 
REMARK    3  A    between atoms: N1_7  and  C7_8 
REMARK    4  A    between atoms: C14_18  and  O1_19 
ROOT
HETATM    1  C1  UNL     1      29.846   7.561  47.889  1.00  0.00     0.017 C 
HETATM    2  C2  UNL     1      29.340   6.476  48.055  1.00  0.00    -0.089 C 
HETATM    3  C3  UNL     1      28.740   5.191  48.276  1.00  0.00     0.063 C 
HETATM    4  C4  UNL     1      27.461   5.092  48.646  1.00  0.00     0.010 C 
ENDROOT
BRANCH   4   5
HETATM    5  C5  UNL     1      26.669   6.302  48.825  1.00  0.00     0.018 C 
HETATM    6  C6  UNL     1      25.358   6.203  49.011  1.00  0.00     0.090 C 
BRANCH   6   7
HETATM    7  N1  UNL     1      24.781   4.907  49.025  1.00  0.00    -0.349 N 
HETATM    8  H6  UNL     1      25.158   4.680  48.094  1.00  0.00     0.167 HD
BRANCH   7   9
HETATM    9  C7  UNL     1      24.016   4.440  50.124  1.00  0.00     0.159 A 
HETATM   10  N2  UNL     1      22.843   5.085  50.267  1.00  0.00    -0.222 NA
HETATM   11  C8  UNL     1      22.011   4.731  51.288  1.00  0.00     0.238 A 
HETATM   12  N3  UNL     1      22.395   3.745  52.118  1.00  0.00    -0.215 NA
HETATM   13  C9  UNL     1      23.576   3.101  51.967  1.00  0.00     0.202 A 
HETATM   14  C10 UNL     1      24.450   3.427  50.948  1.00  0.00     0.129 A 
HETATM   15  O2  UNL     1      23.811   2.101  52.925  1.00  0.00    -0.289 OA
HETATM   16  N4  UNL     1      25.728   2.931  50.556  1.00  0.00    -0.379 N 
HETATM   17  C11 UNL     1      26.696   2.356  51.490  1.00  0.00     0.161 C 
HETATM   18  H8  UNL     1      25.827   3.056  49.506  1.00  0.00     0.160 HD
HETATM   19  C12 UNL     1      26.074   1.298  52.321  1.00  0.00    -0.004 A 
HETATM   20  C13 UNL     1      26.972   0.253  52.458  1.00  0.00     0.048 A 
HETATM   21  C18 UNL     1      24.854   1.156  52.946  1.00  0.00     0.086 A 
HETATM   22  C14 UNL     1      26.732  -0.910  53.171  1.00  0.00     0.069 A 
HETATM   23  C16 UNL     1      25.490  -0.983  53.770  1.00  0.00     0.039 A 
HETATM   24  C17 UNL     1      24.542   0.017  53.678  1.00  0.00     0.040 A 
BRANCH  22  25
HETATM   25  O1  UNL     1      27.691  -1.910  53.257  1.00  0.00    -0.356 OA
HETATM   26  C15 UNL     1      29.063  -1.572  53.285  1.00  0.00     0.210 C 
ENDBRANCH  22  25
ENDBRANCH   7   9
ENDBRANCH   6   7
ENDBRANCH   4   5
TORSDOF 4
ENDMDL
MODEL 3
REMARK VINA RESULT:      -7.8      2.439      7.853
REMARK  4 active torsions:
REMARK  status: ('A' for Active; 'I' for Inactive)
REMARK    1  A    between atoms: C4_4  and  C5_5 
REMARK    2  A    between atoms: C6_6  and  N1_7 
REMARK    3  A    between atoms: N1_7  and  C7_8 
REMARK    4  A    between atoms: C14_18  and  O1_19 
ROOT
HETATM    1  C1  UNL     1      17.785  -3.133  53.829  1.00  0.00     0.017 C 
HETATM    2  C2  UNL     1      18.183  -2.052  53.461  1.00  0.00    -0.089 C 
HETATM    3  C3  UNL     1      18.651  -0.761  53.045  1.00  0.00     0.063 C 
HETATM    4  C4  UNL     1      19.878  -0.346  53.369  1.00  0.00     0.010 C 
ENDROOT
BRANCH   4   5
HETATM    5  C5  UNL     1      20.746  -1.215  54.153  1.00  0.00     0.018 C 
HETATM    6  C6  UNL     1      22.052  -0.971  54.192  1.00  0.00     0.090 C 
BRANCH   6   7
HETATM    7  N1  UNL     1      22.546   0.138  53.457  1.00  0.00    -0.349 N 
HETATM    8  H6  UNL     1      21.631   0.609  53.466  1.00  0.00     0.167 HD
BRANCH   7   9
HETATM    9  C7  UNL     1      23.897   0.212  53.035  1.00  0.00     0.159 A 
HETATM   10  N2  UNL     1      24.624  -0.866  53.384  1.00  0.00    -0.222 NA
HETATM   11  C8  UNL     1      25.941  -0.919  53.038  1.00  0.00     0.238 A 
HETATM   12  N3  UNL     1      26.469   0.112  52.354  1.00  0.00    -0.215 NA
HETATM   13  C9  UNL     1      25.732   1.192  52.006  1.00  0.00     0.202 A 
HETATM   14  C10 UNL     1      24.394   1.289  52.336  1.00  0.00     0.129 A 
HETATM   15  O2  UNL     1      26.447   2.171  51.296  1.00  0.00    -0.289 OA
HETATM   16  N4  UNL     1      23.397   2.282  52.106  1.00  0.00    -0.379 N 
HETATM   17  C11 UNL     1      23.687   3.709  51.978  1.00  0.00     0.161 C 
HETATM   18  H8  UNL     1      22.452   1.799  52.049  1.00  0.00     0.160 HD
HETATM   19  C12 UNL     1      24.754   3.950  50.977  1.00  0.00    -0.004 A 
HETATM   20  C13 UNL     1      24.424   5.069  50.232  1.00  0.00     0.048 A 
HETATM   21  C18 UNL     1      25.937   3.319  50.660  1.00  0.00     0.086 A 
HETATM   22  C14 UNL     1      25.190   5.592  49.205  1.00  0.00     0.069 A 
HETATM   23  C16 UNL     1      26.361   4.909  48.943  1.00  0.00     0.039 A 
HETATM   24  C17 UNL     1      26.758   3.785  49.641  1.00  0.00     0.040 A 
BRANCH  22  25
HETATM   25  O1  UNL     1      24.782   6.722  48.508  1.00  0.00    -0.356 OA
HETATM   26  C15 UNL     1      23.626   6.672  47.697  1.00  0.00     0.210 C 
ENDBRANCH  22  25
ENDBRANCH   7   9
ENDBRANCH   6   7
ENDBRANCH   4   5
TORSDOF 4
ENDMDL
MODEL 4
REMARK VINA RESULT:      -7.8      2.783      7.760
REMARK  4 active torsions:
REMARK  status: ('A' for Active; 'I' for Inactive)
REMARK    1  A    between atoms: C4_4  and  C5_5 
REMARK    2  A    between atoms: C6_6  and  N1_7 
REMARK    3  A    between atoms: N1_7  and  C7_8 
REMARK    4  A    between atoms: C14_18  and  O1_19 
ROOT
HETATM    1  C1  UNL     1      29.456  -2.191  53.435  1.00  0.00     0.017 C 
HETATM    2  C2  UNL     1      29.372  -0.985  53.454  1.00  0.00    -0.089 C 
HETATM    3  C3  UNL     1      29.257   0.445  53.461  1.00  0.00     0.063 C 
HETATM    4  C4  UNL     1      28.215   1.041  54.047  1.00  0.00     0.010 C 
ENDROOT
BRANCH   4   5
HETATM    5  C5  UNL     1      27.188   0.228  54.684  1.00  0.00     0.018 C 
HETATM    6  C6  UNL     1      26.076  -0.062  54.016  1.00  0.00     0.090 C 
BRANCH   6   7
HETATM    7  N1  UNL     1      25.939   0.442  52.697  1.00  0.00    -0.349 N 
HETATM    8  H6  UNL     1      26.782  -0.051  52.372  1.00  0.00     0.167 HD
BRANCH   7   9
HETATM    9  C7  UNL     1      24.873   1.303  52.333  1.00  0.00     0.159 A 
HETATM   10  N2  UNL     1      23.709   0.993  52.935  1.00  0.00    -0.222 NA
HETATM   11  C8  UNL     1      22.604   1.745  52.670  1.00  0.00     0.238 A 
HETATM   12  N3  UNL     1      22.716   2.775  51.813  1.00  0.00    -0.215 NA
HETATM   13  C9  UNL     1      23.890   3.081  51.212  1.00  0.00     0.202 A 
HETATM   14  C10 UNL     1      25.035   2.347  51.451  1.00  0.00     0.129 A 
HETATM   15  O2  UNL     1      23.822   4.188  50.349  1.00  0.00    -0.289 OA
HETATM   16  N4  UNL     1      26.376   2.437  50.972  1.00  0.00    -0.379 N 
HETATM   17  C11 UNL     1      26.734   2.967  49.657  1.00  0.00     0.161 C 
HETATM   18  H8  UNL     1      27.025   2.063  51.726  1.00  0.00     0.160 HD
HETATM   19  C12 UNL     1      26.118   4.296  49.431  1.00  0.00    -0.004 A 
HETATM   20  C13 UNL     1      27.040   5.112  48.795  1.00  0.00     0.048 A 
HETATM   21  C18 UNL     1      24.888   4.849  49.710  1.00  0.00     0.086 A 
HETATM   22  C14 UNL     1      26.812   6.426  48.425  1.00  0.00     0.069 A 
HETATM   23  C16 UNL     1      25.558   6.913  48.736  1.00  0.00     0.039 A 
HETATM   24  C17 UNL     1      24.587   6.162  49.370  1.00  0.00     0.040 A 
BRANCH  22  25
HETATM   25  O1  UNL     1      27.795   7.173  47.789  1.00  0.00    -0.356 OA
HETATM   26  C15 UNL     1      28.429   8.234  48.473  1.00  0.00     0.210 C 
ENDBRANCH  22  25
ENDBRANCH   7   9
ENDBRANCH   6   7
ENDBRANCH   4   5
TORSDOF 4
ENDMDL
MODEL 5
REMARK VINA RESULT:      -7.7      3.450      8.898
REMARK  4 active torsions:
REMARK  status: ('A' for Active; 'I' for Inactive)
REMARK    1  A    between atoms: C4_4  and  C5_5 
REMARK    2  A    between atoms: C6_6  and  N1_7 
REMARK    3  A    between atoms: N1_7  and  C7_8 
REMARK    4  A    between atoms: C14_18  and  O1_19 
ROOT
HETATM    1  C1  UNL     1      21.649  -1.255  54.408  1.00  0.00     0.017 C 
HETATM    2  C2  UNL     1      22.559  -0.606  53.948  1.00  0.00    -0.089 C 
HETATM    3  C3  UNL     1      23.636   0.155  53.381  1.00  0.00     0.063 C 
HETATM    4  C4  UNL     1      23.388   1.181  52.564  1.00  0.00     0.010 C 
ENDROOT
BRANCH   4   5
HETATM    5  C5  UNL     1      22.009   1.529  52.247  1.00  0.00     0.018 C 
HETATM    6  C6  UNL     1      21.676   2.807  52.097  1.00  0.00     0.090 C 
BRANCH   6   7
HETATM    7  N1  UNL     1      22.692   3.785  52.256  1.00  0.00    -0.349 N 
HETATM    8  H6  UNL     1      23.116   3.282  53.048  1.00  0.00     0.167 HD
BRANCH   7   9
HETATM    9  C7  UNL     1      22.770   4.924  51.417  1.00  0.00     0.159 A 
HETATM   10  N2  UNL     1      21.690   5.723  51.502  1.00  0.00    -0.222 NA
HETATM   11  C8  UNL     1      21.640   6.855  50.744  1.00  0.00     0.238 A 
HETATM   12  N3  UNL     1      22.677   7.135  49.935  1.00  0.00    -0.215 NA
HETATM   13  C9  UNL     1      23.761   6.327  49.856  1.00  0.00     0.202 A 
HETATM   14  C10 UNL     1      23.854   5.170  50.605  1.00  0.00     0.129 A 
HETATM   15  O2  UNL     1      24.747   6.775  48.960  1.00  0.00    -0.289 OA
HETATM   16  N4  UNL     1      24.850   4.156  50.722  1.00  0.00    -0.379 N 
HETATM   17  C11 UNL     1      25.757   3.780  49.638  1.00  0.00     0.161 C 
HETATM   18  H8  UNL     1      24.800   3.751  51.703  1.00  0.00     0.160 HD
HETATM   19  C12 UNL     1      26.438   4.971  49.075  1.00  0.00    -0.004 A 
HETATM   20  C13 UNL     1      27.761   4.649  48.820  1.00  0.00     0.048 A 
HETATM   21  C18 UNL     1      26.042   6.255  48.774  1.00  0.00     0.086 A 
HETATM   22  C14 UNL     1      28.699   5.517  48.289  1.00  0.00     0.069 A 
HETATM   23  C16 UNL     1      28.231   6.786  48.012  1.00  0.00     0.039 A 
HETATM   24  C17 UNL     1      26.928   7.183  48.240  1.00  0.00     0.040 A 
BRANCH  22  25
HETATM   25  O1  UNL     1      30.007   5.110  48.065  1.00  0.00    -0.356 OA
HETATM   26  C15 UNL     1      30.943   6.012  47.510  1.00  0.00     0.210 C 
ENDBRANCH  22  25
ENDBRANCH   7   9
ENDBRANCH   6   7
ENDBRANCH   4   5
TORSDOF 4
ENDMDL
MODEL 6
REMARK VINA RESULT:      -7.4      3.352      5.421
REMARK  4 active torsions:
REMARK  status: ('A' for Active; 'I' for Inactive)
REMARK    1  A    between atoms: C4_4  and  C5_5 
REMARK    2  A    between atoms: C6_6  and  N1_7 
REMARK    3  A    between atoms: N1_7  and  C7_8 
REMARK    4  A    between atoms: C14_18  and  O1_19 
ROOT
HETATM    1  C1  UNL     1      30.133  -0.904  53.537  1.00  0.00     0.017 C 
HETATM    2  C2  UNL     1      29.253  -0.379  54.179  1.00  0.00    -0.089 C 
HETATM    3  C3  UNL     1      28.207   0.260  54.924  1.00  0.00     0.063 C 
HETATM    4  C4  UNL     1      26.933   0.149  54.542  1.00  0.00     0.010 C 
ENDROOT
BRANCH   4   5
HETATM    5  C5  UNL     1      26.605  -0.630  53.355  1.00  0.00     0.018 C 
HETATM    6  C6  UNL     1      25.345  -0.687  52.939  1.00  0.00     0.090 C 
BRANCH   6   7
HETATM    7  N1  UNL     1      24.364   0.021  53.680  1.00  0.00    -0.349 N 
HETATM    8  H6  UNL     1      24.479  -0.589  54.502  1.00  0.00     0.167 HD
BRANCH   7   9
HETATM    9  C7  UNL     1      23.677   1.135  53.137  1.00  0.00     0.159 A 
HETATM   10  N2  UNL     1      24.463   2.216  52.971  1.00  0.00    -0.222 NA
HETATM   11  C8  UNL     1      23.923   3.357  52.456  1.00  0.00     0.238 A 
HETATM   12  N3  UNL     1      22.619   3.361  52.129  1.00  0.00    -0.215 NA
HETATM   13  C9  UNL     1      21.834   2.271  52.298  1.00  0.00     0.202 A 
HETATM   14  C10 UNL     1      22.339   1.094  52.817  1.00  0.00     0.129 A 
HETATM   15  O2  UNL     1      20.499   2.457  51.904  1.00  0.00    -0.289 OA
HETATM   16  N4  UNL     1      21.762  -0.180  53.098  1.00  0.00    -0.379 N 
HETATM   17  C11 UNL     1      20.358  -0.374  53.459  1.00  0.00     0.161 C 
HETATM   18  H8  UNL     1      22.519  -0.919  52.997  1.00  0.00     0.160 HD
HETATM   19  C12 UNL     1      19.460   0.285  52.481  1.00  0.00    -0.004 A 
HETATM   20  C13 UNL     1      18.375  -0.543  52.244  1.00  0.00     0.048 A 
HETATM   21  C18 UNL     1      19.487   1.483  51.802  1.00  0.00     0.086 A 
HETATM   22  C14 UNL     1      17.329  -0.253  51.384  1.00  0.00     0.069 A 
HETATM   23  C16 UNL     1      17.424   0.964  50.739  1.00  0.00     0.039 A 
HETATM   24  C17 UNL     1      18.475   1.842  50.921  1.00  0.00     0.040 A 
BRANCH  22  25
HETATM   25  O1  UNL     1      16.279  -1.142  51.207  1.00  0.00    -0.356 OA
HETATM   26  C15 UNL     1      15.528  -1.580  52.320  1.00  0.00     0.210 C 
ENDBRANCH  22  25
ENDBRANCH   7   9
ENDBRANCH   6   7
ENDBRANCH   4   5
TORSDOF 4
ENDMDL
MODEL 7
REMARK VINA RESULT:      -7.3      2.924      5.017
REMARK  4 active torsions:
REMARK  status: ('A' for Active; 'I' for Inactive)
REMARK    1  A    between atoms: C4_4  and  C5_5 
REMARK    2  A    between atoms: C6_6  and  N1_7 
REMARK    3  A    between atoms: N1_7  and  C7_8 
REMARK    4  A    between atoms: C14_18  and  O1_19 
ROOT
HETATM    1  C1  UNL     1      29.829  -0.650  53.536  1.00  0.00     0.017 C 
HETATM    2  C2  UNL     1      28.758  -0.310  53.984  1.00  0.00    -0.089 C 
HETATM    3  C3  UNL     1      27.497   0.114  54.522  1.00  0.00     0.063 C 
HETATM    4  C4  UNL     1      26.749   1.012  53.876  1.00  0.00     0.010 C 
ENDROOT
BRANCH   4   5
HETATM    5  C5  UNL     1      27.221   1.563  52.612  1.00  0.00     0.018 C 
HETATM    6  C6  UNL     1      26.339   2.012  51.726  1.00  0.00     0.090 C 
BRANCH   6   7
HETATM    7  N1  UNL     1      24.961   1.931  52.055  1.00  0.00    -0.349 N 
HETATM    8  H6  UNL     1      25.162   1.642  53.022  1.00  0.00     0.167 HD
BRANCH   7   9
HETATM    9  C7  UNL     1      23.948   2.225  51.108  1.00  0.00     0.159 A 
HETATM   10  N2  UNL     1      24.392   2.942  50.058  1.00  0.00    -0.222 NA
HETATM   11  C8  UNL     1      23.515   3.292  49.075  1.00  0.00     0.238 A 
HETATM   12  N3  UNL     1      22.232   2.906  49.188  1.00  0.00    -0.215 NA
HETATM   13  C9  UNL     1      21.793   2.185  50.247  1.00  0.00     0.202 A 
HETATM   14  C10 UNL     1      22.645   1.809  51.267  1.00  0.00     0.129 A 
HETATM   15  O2  UNL     1      20.424   1.872  50.200  1.00  0.00    -0.289 OA
HETATM   16  N4  UNL     1      22.465   1.068  52.471  1.00  0.00    -0.379 N 
HETATM   17  C11 UNL     1      21.209   1.027  53.219  1.00  0.00     0.161 C 
HETATM   18  H8  UNL     1      23.380   0.577  52.702  1.00  0.00     0.160 HD
HETATM   19  C12 UNL     1      20.073   0.671  52.336  1.00  0.00    -0.004 A 
HETATM   20  C13 UNL     1      19.234  -0.196  53.016  1.00  0.00     0.048 A 
HETATM   21  C18 UNL     1      19.708   1.010  51.052  1.00  0.00     0.086 A 
HETATM   22  C14 UNL     1      18.068  -0.737  52.501  1.00  0.00     0.069 A 
HETATM   23  C16 UNL     1      17.766  -0.354  51.210  1.00  0.00     0.039 A 
HETATM   24  C17 UNL     1      18.553   0.505  50.468  1.00  0.00     0.040 A 
BRANCH  22  25
HETATM   25  O1  UNL     1      17.284  -1.600  53.255  1.00  0.00    -0.356 OA
HETATM   26  C15 UNL     1      17.780  -2.873  53.614  1.00  0.00     0.210 C 
ENDBRANCH  22  25
ENDBRANCH   7   9
ENDBRANCH   6   7
ENDBRANCH   4   5
TORSDOF 4
ENDMDL
MODEL 8
REMARK VINA RESULT:      -7.3      2.744      5.562
REMARK  4 active torsions:
REMARK  status: ('A' for Active; 'I' for Inactive)
REMARK    1  A    between atoms: C4_4  and  C5_5 
REMARK    2  A    between atoms: C6_6  and  N1_7 
REMARK    3  A    between atoms: N1_7  and  C7_8 
REMARK    4  A    between atoms: C14_18  and  O1_19 
ROOT
HETATM    1  C1  UNL     1      20.115   1.141  51.024  1.00  0.00     0.017 C 
HETATM    2  C2  UNL     1      20.252   2.270  51.435  1.00  0.00    -0.089 C 
HETATM    3  C3  UNL     1      20.438   3.607  51.921  1.00  0.00     0.063 C 
HETATM    4  C4  UNL     1      20.810   4.587  51.094  1.00  0.00     0.010 C 
ENDROOT
BRANCH   4   5
HETATM    5  C5  UNL     1      21.028   4.292  49.684  1.00  0.00     0.018 C 
HETATM    6  C6  UNL     1      22.214   4.540  49.141  1.00  0.00     0.090 C 
BRANCH   6   7
HETATM    7  N1  UNL     1      23.227   5.089  49.969  1.00  0.00    -0.349 N 
HETATM    8  H6  UNL     1      22.567   5.736  50.423  1.00  0.00     0.167 HD
BRANCH   7   9
HETATM    9  C7  UNL     1      24.570   4.639  49.906  1.00  0.00     0.159 A 
HETATM   10  N2  UNL     1      25.323   5.335  49.033  1.00  0.00    -0.222 NA
HETATM   11  C8  UNL     1      26.636   5.002  48.877  1.00  0.00     0.238 A 
HETATM   12  N3  UNL     1      27.134   3.987  49.605  1.00  0.00    -0.215 NA
HETATM   13  C9  UNL     1      26.370   3.293  50.481  1.00  0.00     0.202 A 
HETATM   14  C10 UNL     1      25.036   3.595  50.671  1.00  0.00     0.129 A 
HETATM   15  O2  UNL     1      27.056   2.267  51.154  1.00  0.00    -0.289 OA
HETATM   16  N4  UNL     1      24.016   3.048  51.505  1.00  0.00    -0.379 N 
HETATM   17  C11 UNL     1      23.980   1.650  51.934  1.00  0.00     0.161 C 
HETATM   18  H8  UNL     1      23.326   3.822  51.740  1.00  0.00     0.160 HD
HETATM   19  C12 UNL     1      25.273   1.241  52.532  1.00  0.00    -0.004 A 
HETATM   20  C13 UNL     1      25.022   0.443  53.635  1.00  0.00     0.048 A 
HETATM   21  C18 UNL     1      26.595   1.484  52.229  1.00  0.00     0.086 A 
HETATM   22  C14 UNL     1      25.994  -0.123  54.443  1.00  0.00     0.069 A 
HETATM   23  C16 UNL     1      27.295   0.162  54.078  1.00  0.00     0.039 A 
HETATM   24  C17 UNL     1      27.625   0.951  52.994  1.00  0.00     0.040 A 
BRANCH  22  25
HETATM   25  O1  UNL     1      25.652  -0.914  55.531  1.00  0.00    -0.356 OA
HETATM   26  C15 UNL     1      24.327  -1.382  55.675  1.00  0.00     0.210 C 
ENDBRANCH  22  25
ENDBRANCH   7   9
ENDBRANCH   6   7
ENDBRANCH   4   5
TORSDOF 4
ENDMDL
MODEL 9
REMARK VINA RESULT:      -7.3      3.082      6.267
REMARK  4 active torsions:
REMARK  status: ('A' for Active; 'I' for Inactive)
REMARK    1  A    between atoms: C4_4  and  C5_5 
REMARK    2  A    between atoms: C6_6  and  N1_7 
REMARK    3  A    between atoms: N1_7  and  C7_8 
REMARK    4  A    between atoms: C14_18  and  O1_19 
ROOT
HETATM    1  C1  UNL     1      29.909  -0.646  53.621  1.00  0.00     0.017 C 
HETATM    2  C2  UNL     1      29.063   0.209  53.500  1.00  0.00    -0.089 C 
HETATM    3  C3  UNL     1      28.046   1.210  53.343  1.00  0.00     0.063 C 
HETATM    4  C4  UNL     1      26.888   1.112  53.999  1.00  0.00     0.010 C 
ENDROOT
BRANCH   4   5
HETATM    5  C5  UNL     1      26.657  -0.024  54.882  1.00  0.00     0.018 C 
HETATM    6  C6  UNL     1      25.648  -0.851  54.634  1.00  0.00     0.090 C 
BRANCH   6   7
HETATM    7  N1  UNL     1      24.830  -0.585  53.506  1.00  0.00    -0.349 N 
HETATM    8  H6  UNL     1      25.589  -0.806  52.846  1.00  0.00     0.167 HD
BRANCH   7   9
HETATM    9  C7  UNL     1      23.478  -0.179  53.641  1.00  0.00     0.159 A 
HETATM   10  N2  UNL     1      22.805  -0.874  54.578  1.00  0.00    -0.222 NA
HETATM   11  C8  UNL     1      21.494  -0.581  54.806  1.00  0.00     0.238 A 
HETATM   12  N3  UNL     1      20.917   0.397  54.086  1.00  0.00    -0.215 NA
HETATM   13  C9  UNL     1      21.600   1.092  53.146  1.00  0.00     0.202 A 
HETATM   14  C10 UNL     1      22.930   0.829  52.880  1.00  0.00     0.129 A 
HETATM   15  O2  UNL     1      20.839   2.075  52.492  1.00  0.00    -0.289 OA
HETATM   16  N4  UNL     1      23.877   1.386  51.971  1.00  0.00    -0.379 N 
HETATM   17  C11 UNL     1      23.516   1.974  50.682  1.00  0.00     0.161 C 
HETATM   18  H8  UNL     1      24.846   1.293  52.399  1.00  0.00     0.160 HD
HETATM   19  C12 UNL     1      22.441   2.984  50.838  1.00  0.00    -0.004 A 
HETATM   20  C13 UNL     1      22.718   4.061  50.012  1.00  0.00     0.048 A 
HETATM   21  C18 UNL     1      21.293   3.061  51.595  1.00  0.00     0.086 A 
HETATM   22  C14 UNL     1      21.931   5.193  49.895  1.00  0.00     0.069 A 
HETATM   23  C16 UNL     1      20.797   5.200  50.683  1.00  0.00     0.039 A 
HETATM   24  C17 UNL     1      20.454   4.166  51.532  1.00  0.00     0.040 A 
BRANCH  22  25
HETATM   25  O1  UNL     1      22.284   6.228  49.040  1.00  0.00    -0.356 OA
HETATM   26  C15 UNL     1      22.546   5.960  47.678  1.00  0.00     0.210 C 
ENDBRANCH  22  25
ENDBRANCH   7   9
ENDBRANCH   6   7
ENDBRANCH   4   5
TORSDOF 4
ENDMDL
