MODEL 1
REMARK VINA RESULT:      -8.5      0.000      0.000
REMARK  2 active torsions:
REMARK  status: ('A' for Active; 'I' for Inactive)
REMARK    1  A    between atoms: C7_7  and  N1_8 
REMARK    2  A    between atoms: N2_14  and  C13_15 
ROOT
HETATM    1  N1  UNL     1      22.839   1.841  51.427  1.00  0.00    -0.378 N 
HETATM    2  C8  UNL     1      21.515   1.376  51.857  1.00  0.00     0.127 C 
HETATM    3  C9  UNL     1      21.666   0.804  53.304  1.00  0.00     0.047 C 
HETATM    4  C10 UNL     1      22.460  -0.441  53.058  1.00  0.00    -0.027 C 
HETATM    5  C11 UNL     1      23.620  -0.883  53.320  1.00  0.00    -0.011 C 
HETATM    6  C12 UNL     1      24.326   0.150  54.066  1.00  0.00     0.152 C 
HETATM    7  N2  UNL     1      25.370   0.747  53.202  1.00  0.00    -0.356 N 
HETATM    8  C18 UNL     1      25.282   1.636  52.124  1.00  0.00     0.100 C 
HETATM    9  C19 UNL     1      26.647   1.804  51.410  1.00  0.00     0.034 C 
HETATM   10  C20 UNL     1      24.209   1.647  51.125  1.00  0.00     0.148 C 
ENDROOT
BRANCH   7  11
HETATM   11  C13 UNL     1      26.712   0.329  53.555  1.00  0.00     0.140 A 
HETATM   12  N3  UNL     1      27.508   1.161  54.276  1.00  0.00    -0.224 NA
HETATM   13  C14 UNL     1      28.767   0.820  54.639  1.00  0.00     0.238 A 
HETATM   14  N4  UNL     1      29.307  -0.367  54.306  1.00  0.00    -0.217 NA
HETATM   15  C15 UNL     1      28.532  -1.210  53.589  1.00  0.00     0.178 A 
HETATM   16  C16 UNL     1      27.258  -0.890  53.210  1.00  0.00     0.065 A 
HETATM   17  O1  UNL     1      28.455  -2.440  52.979  1.00  0.00    -0.329 OA
HETATM   18  C17 UNL     1      27.139  -2.185  52.556  1.00  0.00     0.224 A 
ENDBRANCH   7  11
BRANCH   1  19
HETATM   19  C7  UNL     1      22.581   3.249  51.168  1.00  0.00     0.036 A 
HETATM   20  C2  UNL     1      22.375   3.576  49.830  1.00  0.00    -0.035 A 
HETATM   21  C1  UNL     1      22.422   2.624  48.661  1.00  0.00     0.050 C 
HETATM   22  C3  UNL     1      22.095   4.879  49.393  1.00  0.00     0.009 A 
HETATM   23  C4  UNL     1      22.019   5.881  50.323  1.00  0.00     0.001 A 
HETATM   24  C5  UNL     1      22.218   5.585  51.654  1.00  0.00     0.002 A 
HETATM   25  C6  UNL     1      22.491   4.298  52.053  1.00  0.00     0.030 A 
ENDBRANCH   1  19
TORSDOF 2
ENDMDL
MODEL 2
REMARK VINA RESULT:      -8.1      1.459      3.300
REMARK  2 active torsions:
REMARK  status: ('A' for Active; 'I' for Inactive)
REMARK    1  A    between atoms: C7_7  and  N1_8 
REMARK    2  A    between atoms: N2_14  and  C13_15 
ROOT
HETATM    1  N1  UNL     1      23.271   2.713  51.466  1.00  0.00    -0.378 N 
HETATM    2  C8  UNL     1      23.196   3.564  50.272  1.00  0.00     0.127 C 
HETATM    3  C9  UNL     1      24.392   3.175  49.343  1.00  0.00     0.047 C 
HETATM    4  C10 UNL     1      25.563   3.690  50.121  1.00  0.00    -0.027 C 
HETATM    5  C11 UNL     1      26.562   3.214  50.739  1.00  0.00    -0.011 C 
HETATM    6  C12 UNL     1      26.500   1.762  50.625  1.00  0.00     0.152 C 
HETATM    7  N2  UNL     1      26.135   1.186  51.939  1.00  0.00    -0.356 N 
HETATM    8  C18 UNL     1      24.916   1.150  52.626  1.00  0.00     0.100 C 
HETATM    9  C19 UNL     1      25.090   0.611  54.070  1.00  0.00     0.034 C 
HETATM   10  C20 UNL     1      23.914   2.221  52.628  1.00  0.00     0.148 C 
ENDROOT
BRANCH   7  11
HETATM   11  C13 UNL     1      27.248   0.549  52.612  1.00  0.00     0.140 A 
HETATM   12  N3  UNL     1      28.199   1.312  53.213  1.00  0.00    -0.224 NA
HETATM   13  C14 UNL     1      29.256   0.770  53.861  1.00  0.00     0.238 A 
HETATM   14  N4  UNL     1      29.431  -0.561  53.949  1.00  0.00    -0.217 NA
HETATM   15  C15 UNL     1      28.497  -1.340  53.359  1.00  0.00     0.178 A 
HETATM   16  C16 UNL     1      27.420  -0.817  52.698  1.00  0.00     0.065 A 
HETATM   17  O1  UNL     1      28.097  -2.627  53.090  1.00  0.00    -0.329 OA
HETATM   18  C17 UNL     1      26.964  -2.167  52.398  1.00  0.00     0.224 A 
ENDBRANCH   7  11
BRANCH   1  19
HETATM   19  C7  UNL     1      21.989   2.029  51.414  1.00  0.00     0.036 A 
HETATM   20  C2  UNL     1      20.900   2.778  51.855  1.00  0.00    -0.035 A 
HETATM   21  C1  UNL     1      20.945   4.188  52.388  1.00  0.00     0.050 C 
HETATM   22  C3  UNL     1      19.585   2.292  51.860  1.00  0.00     0.009 A 
HETATM   23  C4  UNL     1      19.355   1.019  51.412  1.00  0.00     0.001 A 
HETATM   24  C5  UNL     1      20.414   0.255  50.970  1.00  0.00     0.002 A 
HETATM   25  C6  UNL     1      21.693   0.759  50.976  1.00  0.00     0.030 A 
ENDBRANCH   1  19
TORSDOF 2
ENDMDL
MODEL 3
REMARK VINA RESULT:      -7.9      1.072      1.230
REMARK  2 active torsions:
REMARK  status: ('A' for Active; 'I' for Inactive)
REMARK    1  A    between atoms: C7_7  and  N1_8 
REMARK    2  A    between atoms: N2_14  and  C13_15 
ROOT
HETATM    1  N1  UNL     1      23.110   2.998  50.772  1.00  0.00    -0.378 N 
HETATM    2  C8  UNL     1      21.673   2.795  50.996  1.00  0.00     0.127 C 
HETATM    3  C9  UNL     1      21.504   2.192  52.428  1.00  0.00     0.047 C 
HETATM    4  C10 UNL     1      22.072   0.818  52.251  1.00  0.00    -0.027 C 
HETATM    5  C11 UNL     1      23.076   0.158  52.655  1.00  0.00    -0.011 C 
HETATM    6  C12 UNL     1      23.852   1.028  53.529  1.00  0.00     0.152 C 
HETATM    7  N2  UNL     1      25.104   1.417  52.841  1.00  0.00    -0.356 N 
HETATM    8  C18 UNL     1      25.342   2.316  51.794  1.00  0.00     0.100 C 
HETATM    9  C19 UNL     1      26.803   2.222  51.283  1.00  0.00     0.034 C 
HETATM   10  C20 UNL     1      24.446   2.543  50.656  1.00  0.00     0.148 C 
ENDROOT
BRANCH   7  11
HETATM   11  C13 UNL     1      26.276   0.744  53.362  1.00  0.00     0.140 A 
HETATM   12  N3  UNL     1      27.069   1.376  54.266  1.00  0.00    -0.224 NA
HETATM   13  C14 UNL     1      28.172   0.793  54.791  1.00  0.00     0.238 A 
HETATM   14  N4  UNL     1      28.551  -0.452  54.446  1.00  0.00    -0.217 NA
HETATM   15  C15 UNL     1      27.777  -1.100  53.548  1.00  0.00     0.178 A 
HETATM   16  C16 UNL     1      26.657  -0.532  53.004  1.00  0.00     0.065 A 
HETATM   17  O1  UNL     1      27.595  -2.258  52.831  1.00  0.00    -0.329 OA
HETATM   18  C17 UNL     1      26.432  -1.746  52.232  1.00  0.00     0.224 A 
ENDBRANCH   7  11
BRANCH   1  19
HETATM   19  C7  UNL     1      23.165   4.431  50.530  1.00  0.00     0.036 A 
HETATM   20  C2  UNL     1      22.932   4.818  49.213  1.00  0.00    -0.035 A 
HETATM   21  C1  UNL     1      22.660   3.900  48.048  1.00  0.00     0.050 C 
HETATM   22  C3  UNL     1      22.927   6.157  48.796  1.00  0.00     0.009 A 
HETATM   23  C4  UNL     1      23.163   7.134  49.726  1.00  0.00     0.001 A 
HETATM   24  C5  UNL     1      23.396   6.779  51.037  1.00  0.00     0.002 A 
HETATM   25  C6  UNL     1      23.395   5.458  51.416  1.00  0.00     0.030 A 
ENDBRANCH   1  19
TORSDOF 2
ENDMDL
MODEL 4
REMARK VINA RESULT:      -7.8      2.676      6.985
REMARK  2 active torsions:
REMARK  status: ('A' for Active; 'I' for Inactive)
REMARK    1  A    between atoms: C7_7  and  N1_8 
REMARK    2  A    between atoms: N2_14  and  C13_15 
ROOT
HETATM    1  N1  UNL     1      24.901   0.033  53.745  1.00  0.00    -0.378 N 
HETATM    2  C8  UNL     1      24.302  -0.894  54.713  1.00  0.00     0.127 C 
HETATM    3  C9  UNL     1      22.937  -1.372  54.121  1.00  0.00     0.047 C 
HETATM    4  C10 UNL     1      22.113  -0.125  54.208  1.00  0.00    -0.027 C 
HETATM    5  C11 UNL     1      21.577   0.704  53.412  1.00  0.00    -0.011 C 
HETATM    6  C12 UNL     1      21.881   0.271  52.055  1.00  0.00     0.152 C 
HETATM    7  N2  UNL     1      22.864   1.202  51.455  1.00  0.00    -0.356 N 
HETATM    8  C18 UNL     1      24.238   1.362  51.674  1.00  0.00     0.100 C 
HETATM    9  C19 UNL     1      24.788   2.618  50.951  1.00  0.00     0.034 C 
HETATM   10  C20 UNL     1      24.909   1.218  52.970  1.00  0.00     0.148 C 
ENDROOT
BRANCH   7  11
HETATM   11  C13 UNL     1      22.283   2.089  50.468  1.00  0.00     0.140 A 
HETATM   12  N3  UNL     1      22.285   1.731  49.158  1.00  0.00    -0.224 NA
HETATM   13  C14 UNL     1      21.752   2.517  48.194  1.00  0.00     0.238 A 
HETATM   14  N4  UNL     1      21.186   3.705  48.477  1.00  0.00    -0.217 NA
HETATM   15  C15 UNL     1      21.173   4.081  49.774  1.00  0.00     0.178 A 
HETATM   16  C16 UNL     1      21.706   3.305  50.767  1.00  0.00     0.065 A 
HETATM   17  O1  UNL     1      20.802   5.055  50.671  1.00  0.00    -0.329 OA
HETATM   18  C17 UNL     1      21.324   4.314  51.745  1.00  0.00     0.224 A 
ENDBRANCH   7  11
BRANCH   1  19
HETATM   19  C7  UNL     1      26.158  -0.635  53.445  1.00  0.00     0.036 A 
HETATM   20  C2  UNL     1      27.294  -0.021  53.967  1.00  0.00    -0.035 A 
HETATM   21  C1  UNL     1      27.328   1.255  54.772  1.00  0.00     0.050 C 
HETATM   22  C3  UNL     1      28.589  -0.530  53.797  1.00  0.00     0.009 A 
HETATM   23  C4  UNL     1      28.750  -1.687  53.083  1.00  0.00     0.001 A 
HETATM   24  C5  UNL     1      27.643  -2.316  52.555  1.00  0.00     0.002 A 
HETATM   25  C6  UNL     1      26.385  -1.793  52.739  1.00  0.00     0.030 A 
ENDBRANCH   1  19
TORSDOF 2
ENDMDL
MODEL 5
REMARK VINA RESULT:      -7.7      2.408      3.363
REMARK  2 active torsions:
REMARK  status: ('A' for Active; 'I' for Inactive)
REMARK    1  A    between atoms: C7_7  and  N1_8 
REMARK    2  A    between atoms: N2_14  and  C13_15 
ROOT
HETATM    1  N1  UNL     1      23.660   4.850  50.326  1.00  0.00    -0.378 N 
HETATM    2  C8  UNL     1      22.382   5.282  50.904  1.00  0.00     0.127 C 
HETATM    3  C9  UNL     1      22.371   4.839  52.403  1.00  0.00     0.047 C 
HETATM    4  C10 UNL     1      22.265   3.351  52.281  1.00  0.00    -0.027 C 
HETATM    5  C11 UNL     1      22.983   2.335  52.524  1.00  0.00    -0.011 C 
HETATM    6  C12 UNL     1      24.248   2.810  53.070  1.00  0.00     0.152 C 
HETATM    7  N2  UNL     1      25.316   2.616  52.064  1.00  0.00    -0.356 N 
HETATM    8  C18 UNL     1      25.609   3.305  50.881  1.00  0.00     0.100 C 
HETATM    9  C19 UNL     1      26.712   2.588  50.061  1.00  0.00     0.034 C 
HETATM   10  C20 UNL     1      24.614   3.868  49.963  1.00  0.00     0.148 C 
ENDROOT
BRANCH   7  11
HETATM   11  C13 UNL     1      26.208   1.519  52.382  1.00  0.00     0.140 A 
HETATM   12  N3  UNL     1      25.848   0.246  52.070  1.00  0.00    -0.224 NA
HETATM   13  C14 UNL     1      26.643  -0.815  52.338  1.00  0.00     0.238 A 
HETATM   14  N4  UNL     1      27.842  -0.674  52.932  1.00  0.00    -0.217 NA
HETATM   15  C15 UNL     1      28.221   0.583  53.252  1.00  0.00     0.178 A 
HETATM   16  C16 UNL     1      27.435   1.672  52.992  1.00  0.00     0.065 A 
HETATM   17  O1  UNL     1      29.202   1.365  53.813  1.00  0.00    -0.329 OA
HETATM   18  C17 UNL     1      28.455   2.532  53.575  1.00  0.00     0.224 A 
ENDBRANCH   7  11
BRANCH   1  19
HETATM   19  C7  UNL     1      24.224   6.118  49.891  1.00  0.00     0.036 A 
HETATM   20  C2  UNL     1      23.888   6.502  48.595  1.00  0.00    -0.035 A 
HETATM   21  C1  UNL     1      23.033   5.722  47.627  1.00  0.00     0.050 C 
HETATM   22  C3  UNL     1      24.323   7.700  48.012  1.00  0.00     0.009 A 
HETATM   23  C4  UNL     1      25.118   8.537  48.749  1.00  0.00     0.001 A 
HETATM   24  C5  UNL     1      25.467   8.182  50.034  1.00  0.00     0.002 A 
HETATM   25  C6  UNL     1      25.024   7.000  50.580  1.00  0.00     0.030 A 
ENDBRANCH   1  19
TORSDOF 2
ENDMDL
MODEL 6
REMARK VINA RESULT:      -7.5      3.755      7.767
REMARK  2 active torsions:
REMARK  status: ('A' for Active; 'I' for Inactive)
REMARK    1  A    between atoms: C7_7  and  N1_8 
REMARK    2  A    between atoms: N2_14  and  C13_15 
ROOT
HETATM    1  N1  UNL     1      23.210   2.009  51.966  1.00  0.00    -0.378 N 
HETATM    2  C8  UNL     1      23.855   2.956  52.884  1.00  0.00     0.127 C 
HETATM    3  C9  UNL     1      23.318   4.383  52.539  1.00  0.00     0.047 C 
HETATM    4  C10 UNL     1      23.952   4.633  51.206  1.00  0.00    -0.027 C 
HETATM    5  C11 UNL     1      23.583   4.768  50.001  1.00  0.00    -0.011 C 
HETATM    6  C12 UNL     1      22.133   4.631  49.967  1.00  0.00     0.152 C 
HETATM    7  N2  UNL     1      21.780   3.342  49.332  1.00  0.00    -0.356 N 
HETATM    8  C18 UNL     1      21.857   2.026  49.806  1.00  0.00     0.100 C 
HETATM    9  C19 UNL     1      21.562   0.998  48.685  1.00  0.00     0.034 C 
HETATM   10  C20 UNL     1      22.914   1.503  50.677  1.00  0.00     0.148 C 
ENDROOT
BRANCH   7  11
HETATM   11  C13 UNL     1      21.260   3.489  47.988  1.00  0.00     0.140 A 
HETATM   12  N3  UNL     1      22.119   3.661  46.949  1.00  0.00    -0.224 NA
HETATM   13  C14 UNL     1      21.690   3.798  45.673  1.00  0.00     0.238 A 
HETATM   14  N4  UNL     1      20.382   3.772  45.355  1.00  0.00    -0.217 NA
HETATM   15  C15 UNL     1      19.510   3.602  46.373  1.00  0.00     0.178 A 
HETATM   16  C16 UNL     1      19.918   3.462  47.671  1.00  0.00     0.065 A 
HETATM   17  O1  UNL     1      18.186   3.493  46.728  1.00  0.00    -0.329 OA
HETATM   18  C17 UNL     1      18.527   3.339  48.083  1.00  0.00     0.224 A 
ENDBRANCH   7  11
BRANCH   1  19
HETATM   19  C7  UNL     1      22.528   1.123  52.896  1.00  0.00     0.036 A 
HETATM   20  C2  UNL     1      23.311   0.097  53.419  1.00  0.00    -0.035 A 
HETATM   21  C1  UNL     1      24.757  -0.177  53.090  1.00  0.00     0.050 C 
HETATM   22  C3  UNL     1      22.831  -0.841  54.343  1.00  0.00     0.009 A 
HETATM   23  C4  UNL     1      21.528  -0.748  54.754  1.00  0.00     0.001 A 
HETATM   24  C5  UNL     1      20.730   0.257  54.253  1.00  0.00     0.002 A 
HETATM   25  C6  UNL     1      21.229   1.164  53.348  1.00  0.00     0.030 A 
ENDBRANCH   1  19
TORSDOF 2
ENDMDL
MODEL 7
REMARK VINA RESULT:      -7.5      3.977      7.013
REMARK  2 active torsions:
REMARK  status: ('A' for Active; 'I' for Inactive)
REMARK    1  A    between atoms: C7_7  and  N1_8 
REMARK    2  A    between atoms: N2_14  and  C13_15 
ROOT
HETATM    1  N1  UNL     1      21.822   1.629  51.839  1.00  0.00    -0.378 N 
HETATM    2  C8  UNL     1      21.229   0.677  50.892  1.00  0.00     0.127 C 
HETATM    3  C9  UNL     1      21.802   1.005  49.475  1.00  0.00     0.047 C 
HETATM    4  C10 UNL     1      21.147   2.317  49.177  1.00  0.00    -0.027 C 
HETATM    5  C11 UNL     1      21.493   3.528  49.028  1.00  0.00    -0.011 C 
HETATM    6  C12 UNL     1      22.937   3.598  49.209  1.00  0.00     0.152 C 
HETATM    7  N2  UNL     1      23.235   4.267  50.495  1.00  0.00    -0.356 N 
HETATM    8  C18 UNL     1      23.126   3.819  51.817  1.00  0.00     0.100 C 
HETATM    9  C19 UNL     1      23.363   4.968  52.831  1.00  0.00     0.034 C 
HETATM   10  C20 UNL     1      22.073   2.935  52.326  1.00  0.00     0.148 C 
ENDROOT
BRANCH   7  11
HETATM   11  C13 UNL     1      23.728   5.620  50.335  1.00  0.00     0.140 A 
HETATM   12  N3  UNL     1      25.067   5.851  50.330  1.00  0.00    -0.224 NA
HETATM   13  C14 UNL     1      25.584   7.093  50.178  1.00  0.00     0.238 A 
HETATM   14  N4  UNL     1      24.801   8.176  50.024  1.00  0.00    -0.217 NA
HETATM   15  C15 UNL     1      23.465   7.969  50.026  1.00  0.00     0.178 A 
HETATM   16  C16 UNL     1      22.918   6.725  50.178  1.00  0.00     0.065 A 
HETATM   17  O1  UNL     1      22.225   8.554  49.929  1.00  0.00    -0.329 OA
HETATM   18  C17 UNL     1      21.589   7.309  50.075  1.00  0.00     0.224 A 
ENDBRANCH   7  11
BRANCH   1  19
HETATM   19  C7  UNL     1      22.497   0.734  52.765  1.00  0.00     0.036 A 
HETATM   20  C2  UNL     1      21.678   0.156  53.732  1.00  0.00    -0.035 A 
HETATM   21  C1  UNL     1      20.199   0.395  53.907  1.00  0.00     0.050 C 
HETATM   22  C3  UNL     1      22.148  -0.747  54.697  1.00  0.00     0.009 A 
HETATM   23  C4  UNL     1      23.476  -1.078  54.692  1.00  0.00     0.001 A 
HETATM   24  C5  UNL     1      24.310  -0.521  53.747  1.00  0.00     0.002 A 
HETATM   25  C6  UNL     1      23.820   0.361  52.812  1.00  0.00     0.030 A 
ENDBRANCH   1  19
TORSDOF 2
ENDMDL
MODEL 8
REMARK VINA RESULT:      -7.5      3.653      6.380
REMARK  2 active torsions:
REMARK  status: ('A' for Active; 'I' for Inactive)
REMARK    1  A    between atoms: C7_7  and  N1_8 
REMARK    2  A    between atoms: N2_14  and  C13_15 
ROOT
HETATM    1  N1  UNL     1      21.760   1.559  51.588  1.00  0.00    -0.378 N 
HETATM    2  C8  UNL     1      20.953   0.595  50.831  1.00  0.00     0.127 C 
HETATM    3  C9  UNL     1      21.481   0.594  49.360  1.00  0.00     0.047 C 
HETATM    4  C10 UNL     1      21.040   1.941  48.877  1.00  0.00    -0.027 C 
HETATM    5  C11 UNL     1      21.577   3.033  48.521  1.00  0.00    -0.011 C 
HETATM    6  C12 UNL     1      23.021   2.871  48.635  1.00  0.00     0.152 C 
HETATM    7  N2  UNL     1      23.511   3.665  49.784  1.00  0.00    -0.356 N 
HETATM    8  C18 UNL     1      23.414   3.451  51.164  1.00  0.00     0.100 C 
HETATM    9  C19 UNL     1      23.909   4.681  51.968  1.00  0.00     0.034 C 
HETATM   10  C20 UNL     1      22.261   2.859  51.848  1.00  0.00     0.148 C 
ENDROOT
BRANCH   7  11
HETATM   11  C13 UNL     1      24.217   4.867  49.388  1.00  0.00     0.140 A 
HETATM   12  N3  UNL     1      23.529   6.026  49.215  1.00  0.00    -0.224 NA
HETATM   13  C14 UNL     1      24.137   7.179  48.853  1.00  0.00     0.238 A 
HETATM   14  N4  UNL     1      25.464   7.248  48.641  1.00  0.00    -0.217 NA
HETATM   15  C15 UNL     1      26.169   6.107  48.807  1.00  0.00     0.178 A 
HETATM   16  C16 UNL     1      25.578   4.929  49.173  1.00  0.00     0.065 A 
HETATM   17  O1  UNL     1      27.412   5.524  48.761  1.00  0.00    -0.329 OA
HETATM   18  C17 UNL     1      26.880   4.279  49.138  1.00  0.00     0.224 A 
ENDBRANCH   7  11
BRANCH   1  19
HETATM   19  C7  UNL     1      22.331   0.711  52.622  1.00  0.00     0.036 A 
HETATM   20  C2  UNL     1      21.440   0.304  53.613  1.00  0.00    -0.035 A 
HETATM   21  C1  UNL     1      19.983   0.681  53.712  1.00  0.00     0.050 C 
HETATM   22  C3  UNL     1      21.806  -0.531  54.678  1.00  0.00     0.009 A 
HETATM   23  C4  UNL     1      23.101  -0.970  54.753  1.00  0.00     0.001 A 
HETATM   24  C5  UNL     1      24.003  -0.583  53.786  1.00  0.00     0.002 A 
HETATM   25  C6  UNL     1      23.616   0.236  52.752  1.00  0.00     0.030 A 
ENDBRANCH   1  19
TORSDOF 2
ENDMDL
MODEL 9
REMARK VINA RESULT:      -7.0      8.274      9.908
REMARK  2 active torsions:
REMARK  status: ('A' for Active; 'I' for Inactive)
REMARK    1  A    between atoms: C7_7  and  N1_8 
REMARK    2  A    between atoms: N2_14  and  C13_15 
ROOT
HETATM    1  N1  UNL     1      30.103   8.924  48.466  1.00  0.00    -0.378 N 
HETATM    2  C8  UNL     1      29.868   9.937  47.430  1.00  0.00     0.127 C 
HETATM    3  C9  UNL     1      30.315   9.322  46.064  1.00  0.00     0.047 C 
HETATM    4  C10 UNL     1      31.802   9.264  46.227  1.00  0.00    -0.027 C 
HETATM    5  C11 UNL     1      32.701   8.377  46.330  1.00  0.00    -0.011 C 
HETATM    6  C12 UNL     1      32.047   7.077  46.265  1.00  0.00     0.152 C 
HETATM    7  N2  UNL     1      32.076   6.449  47.605  1.00  0.00    -0.356 N 
HETATM    8  C18 UNL     1      31.345   6.720  48.769  1.00  0.00     0.100 C 
HETATM    9  C19 UNL     1      31.887   5.920  49.981  1.00  0.00     0.034 C 
HETATM   10  C20 UNL     1      30.931   8.053  49.215  1.00  0.00     0.148 C 
ENDROOT
BRANCH   7  11
HETATM   11  C13 UNL     1      33.030   5.364  47.708  1.00  0.00     0.140 A 
HETATM   12  N3  UNL     1      34.249   5.590  48.265  1.00  0.00    -0.224 NA
HETATM   13  C14 UNL     1      35.176   4.612  48.392  1.00  0.00     0.238 A 
HETATM   14  N4  UNL     1      34.947   3.354  47.972  1.00  0.00    -0.217 NA
HETATM   15  C15 UNL     1      33.741   3.107  47.415  1.00  0.00     0.178 A 
HETATM   16  C16 UNL     1      32.787   4.077  47.275  1.00  0.00     0.065 A 
HETATM   17  O1  UNL     1      32.929   2.160  46.837  1.00  0.00    -0.329 OA
HETATM   18  C17 UNL     1      31.899   3.100  46.662  1.00  0.00     0.224 A 
ENDBRANCH   7  11
BRANCH   1  19
HETATM   19  C7  UNL     1      28.764   8.743  49.002  1.00  0.00     0.036 A 
HETATM   20  C2  UNL     1      28.053   7.669  48.470  1.00  0.00    -0.035 A 
HETATM   21  C1  UNL     1      28.536   6.724  47.398  1.00  0.00     0.050 C 
HETATM   22  C3  UNL     1      26.756   7.329  48.879  1.00  0.00     0.009 A 
HETATM   23  C4  UNL     1      26.154   8.087  49.847  1.00  0.00     0.001 A 
HETATM   24  C5  UNL     1      26.833   9.155  50.391  1.00  0.00     0.002 A 
HETATM   25  C6  UNL     1      28.105   9.465  49.971  1.00  0.00     0.030 A 
ENDBRANCH   1  19
TORSDOF 2
ENDMDL
