MODEL 1
REMARK VINA RESULT:      -9.2      0.000      0.000
REMARK  3 active torsions:
REMARK  status: ('A' for Active; 'I' for Inactive)
REMARK    1  A    between atoms: C4_5  and  N2_6 
REMARK    2  A    between atoms: C6_8  and  C7_9 
REMARK    3  A    between atoms: C8_11  and  C9_12 
ROOT
HETATM    1  C7  UNL     1      25.065   1.101  51.864  1.00  0.00     0.252 A 
HETATM    2  N3  UNL     1      26.516   0.978  51.977  1.00  0.00    -0.251 NA
HETATM    3  C8  UNL     1      26.819   0.201  52.962  1.00  0.00     0.147 A 
HETATM    4  C11 UNL     1      25.615  -0.294  53.634  1.00  0.00     0.166 A 
HETATM    5  N6  UNL     1      25.095  -1.049  54.619  1.00  0.00    -0.225 NA
HETATM    6  C12 UNL     1      23.736  -0.978  54.571  1.00  0.00     0.103 A 
HETATM    7  C13 UNL     1      22.835  -1.597  55.394  1.00  0.00     0.150 A 
HETATM    8  N7  UNL     1      21.529  -1.341  55.108  1.00  0.00    -0.271 NA
HETATM    9  C14 UNL     1      21.186  -0.532  54.082  1.00  0.00     0.118 A 
HETATM   10  C15 UNL     1      22.126   0.088  53.256  1.00  0.00     0.051 A 
HETATM   11  C16 UNL     1      23.475  -0.141  53.507  1.00  0.00     0.070 A 
HETATM   12  N8  UNL     1      24.607   0.275  52.938  1.00  0.00    -0.299 N 
ENDROOT
BRANCH   1  13
HETATM   13  C6  UNL     1      24.604   2.495  51.901  1.00  0.00     0.022 A 
HETATM   14  C5  UNL     1      24.535   3.352  50.815  1.00  0.00     0.125 A 
HETATM   15  N2  UNL     1      24.072   4.543  51.201  1.00  0.00    -0.276 N 
HETATM   16  N9  UNL     1      23.841   4.489  52.492  1.00  0.00    -0.184 NA
HETATM   17  C17 UNL     1      24.152   3.250  52.972  1.00  0.00     0.151 A 
BRANCH  15  18
HETATM   18  C4  UNL     1      23.867   5.690  50.327  1.00  0.00     0.113 C 
HETATM   19  C3  UNL     1      24.322   5.402  48.934  1.00  0.00     0.057 C 
HETATM   20  C2  UNL     1      24.505   6.711  48.200  1.00  0.00     0.274 C 
HETATM   21  N1  UNL     1      25.646   7.417  48.745  1.00  0.00     0.084 N 
HETATM   22  C1  UNL     1      25.596   8.768  48.256  1.00  0.00     0.309 C 
HETATM   23  C19 UNL     1      25.801   7.288  50.160  1.00  0.00     0.274 C 
HETATM   24  C18 UNL     1      24.520   6.912  50.879  1.00  0.00     0.057 C 
ENDBRANCH  15  18
ENDBRANCH   1  13
BRANCH   3  25
HETATM   25  C9  UNL     1      28.191  -0.125  53.334  1.00  0.00     0.184 A 
HETATM   26  N4  UNL     1      28.777  -1.228  53.675  1.00  0.00    -0.220 NA
HETATM   27  C10 UNL     1      30.027  -0.561  53.832  1.00  0.00     0.237 A 
HETATM   28  N5  UNL     1      29.440   0.549  53.490  1.00  0.00    -0.220 NA
ENDBRANCH   3  25
TORSDOF 3
ENDMDL
MODEL 2
REMARK VINA RESULT:      -9.2      1.182      1.582
REMARK  3 active torsions:
REMARK  status: ('A' for Active; 'I' for Inactive)
REMARK    1  A    between atoms: C4_5  and  N2_6 
REMARK    2  A    between atoms: C6_8  and  C7_9 
REMARK    3  A    between atoms: C8_11  and  C9_12 
ROOT
HETATM    1  C7  UNL     1      25.115   1.051  51.889  1.00  0.00     0.252 A 
HETATM    2  N3  UNL     1      26.564   0.911  51.998  1.00  0.00    -0.251 NA
HETATM    3  C8  UNL     1      26.861   0.130  52.982  1.00  0.00     0.147 A 
HETATM    4  C11 UNL     1      25.653  -0.353  53.656  1.00  0.00     0.166 A 
HETATM    5  N6  UNL     1      25.126  -1.103  54.641  1.00  0.00    -0.225 NA
HETATM    6  C12 UNL     1      23.768  -1.017  54.596  1.00  0.00     0.103 A 
HETATM    7  C13 UNL     1      22.861  -1.627  55.420  1.00  0.00     0.150 A 
HETATM    8  N7  UNL     1      21.558  -1.356  55.138  1.00  0.00    -0.271 NA
HETATM    9  C14 UNL     1      21.222  -0.541  54.113  1.00  0.00     0.118 A 
HETATM   10  C15 UNL     1      22.167   0.069  53.287  1.00  0.00     0.051 A 
HETATM   11  C16 UNL     1      23.514  -0.175  53.534  1.00  0.00     0.070 A 
HETATM   12  N8  UNL     1      24.649   0.229  52.963  1.00  0.00    -0.299 N 
ENDROOT
BRANCH   1  13
HETATM   13  C6  UNL     1      24.669   2.450  51.929  1.00  0.00     0.022 A 
HETATM   14  C5  UNL     1      24.640   3.320  50.852  1.00  0.00     0.125 A 
HETATM   15  N2  UNL     1      24.181   4.512  51.238  1.00  0.00    -0.276 N 
HETATM   16  N9  UNL     1      23.913   4.447  52.522  1.00  0.00    -0.184 NA
HETATM   17  C17 UNL     1      24.196   3.199  52.996  1.00  0.00     0.151 A 
BRANCH  15  18
HETATM   18  C4  UNL     1      24.014   5.671  50.371  1.00  0.00     0.113 C 
HETATM   19  C3  UNL     1      24.198   6.947  51.124  1.00  0.00     0.057 C 
HETATM   20  C2  UNL     1      23.593   8.077  50.322  1.00  0.00     0.274 C 
HETATM   21  N1  UNL     1      22.151   7.946  50.309  1.00  0.00     0.084 N 
HETATM   22  C1  UNL     1      21.642   8.828  49.294  1.00  0.00     0.309 C 
HETATM   23  C19 UNL     1      21.681   6.597  50.233  1.00  0.00     0.274 C 
HETATM   24  C18 UNL     1      22.701   5.630  49.665  1.00  0.00     0.057 C 
ENDBRANCH  15  18
ENDBRANCH   1  13
BRANCH   3  25
HETATM   25  C9  UNL     1      28.230  -0.212  53.350  1.00  0.00     0.184 A 
HETATM   26  N4  UNL     1      28.812  -1.329  53.652  1.00  0.00    -0.220 NA
HETATM   27  C10 UNL     1      30.062  -0.670  53.843  1.00  0.00     0.237 A 
HETATM   28  N5  UNL     1      29.478   0.453  53.541  1.00  0.00    -0.220 NA
ENDBRANCH   3  25
TORSDOF 3
ENDMDL
MODEL 3
REMARK VINA RESULT:      -8.6      2.787      6.411
REMARK  3 active torsions:
REMARK  status: ('A' for Active; 'I' for Inactive)
REMARK    1  A    between atoms: C4_5  and  N2_6 
REMARK    2  A    between atoms: C6_8  and  C7_9 
REMARK    3  A    between atoms: C8_11  and  C9_12 
ROOT
HETATM    1  C7  UNL     1      24.349   2.122  50.501  1.00  0.00     0.252 A 
HETATM    2  N3  UNL     1      24.837   3.186  49.629  1.00  0.00    -0.251 NA
HETATM    3  C8  UNL     1      26.042   3.511  49.959  1.00  0.00     0.147 A 
HETATM    4  C11 UNL     1      26.514   2.709  51.090  1.00  0.00     0.166 A 
HETATM    5  N6  UNL     1      27.514   2.436  51.948  1.00  0.00    -0.225 NA
HETATM    6  C12 UNL     1      27.123   1.445  52.796  1.00  0.00     0.103 A 
HETATM    7  C13 UNL     1      27.842   0.879  53.813  1.00  0.00     0.150 A 
HETATM    8  N7  UNL     1      27.191  -0.098  54.500  1.00  0.00    -0.271 NA
HETATM    9  C14 UNL     1      25.929  -0.457  54.174  1.00  0.00     0.118 A 
HETATM   10  C15 UNL     1      25.216   0.137  53.131  1.00  0.00     0.051 A 
HETATM   11  C16 UNL     1      25.838   1.143  52.398  1.00  0.00     0.070 A 
HETATM   12  N8  UNL     1      25.465   1.903  51.368  1.00  0.00    -0.299 N 
ENDROOT
BRANCH   1  13
HETATM   13  C6  UNL     1      23.088   2.464  51.174  1.00  0.00     0.022 A 
HETATM   14  C5  UNL     1      22.021   1.605  51.377  1.00  0.00     0.125 A 
HETATM   15  N2  UNL     1      21.038   2.240  52.018  1.00  0.00    -0.276 N 
HETATM   16  N9  UNL     1      21.427   3.474  52.237  1.00  0.00    -0.184 NA
HETATM   17  C17 UNL     1      22.682   3.665  51.737  1.00  0.00     0.151 A 
BRANCH  15  18
HETATM   18  C4  UNL     1      19.763   1.647  52.400  1.00  0.00     0.113 C 
HETATM   19  C3  UNL     1      19.879   0.170  52.580  1.00  0.00     0.057 C 
HETATM   20  C2  UNL     1      18.495  -0.438  52.531  1.00  0.00     0.274 C 
HETATM   21  N1  UNL     1      17.971  -0.344  51.184  1.00  0.00     0.084 N 
HETATM   22  C1  UNL     1      16.563  -0.629  51.244  1.00  0.00     0.309 C 
HETATM   23  C19 UNL     1      18.318   0.862  50.498  1.00  0.00     0.274 C 
HETATM   24  C18 UNL     1      18.692   2.003  51.424  1.00  0.00     0.057 C 
ENDBRANCH  15  18
ENDBRANCH   1  13
BRANCH   3  25
HETATM   25  C9  UNL     1      26.809   4.545  49.275  1.00  0.00     0.184 A 
HETATM   26  N4  UNL     1      26.562   5.782  48.982  1.00  0.00    -0.220 NA
HETATM   27  C10 UNL     1      27.836   5.930  48.361  1.00  0.00     0.237 A 
HETATM   28  N5  UNL     1      28.087   4.688  48.654  1.00  0.00    -0.220 NA
ENDBRANCH   3  25
TORSDOF 3
ENDMDL
MODEL 4
REMARK VINA RESULT:      -8.6      2.293      6.367
REMARK  3 active torsions:
REMARK  status: ('A' for Active; 'I' for Inactive)
REMARK    1  A    between atoms: C4_5  and  N2_6 
REMARK    2  A    between atoms: C6_8  and  C7_9 
REMARK    3  A    between atoms: C8_11  and  C9_12 
ROOT
HETATM    1  C7  UNL     1      24.873   1.368  53.659  1.00  0.00     0.252 A 
HETATM    2  N3  UNL     1      25.981   0.522  54.094  1.00  0.00    -0.251 NA
HETATM    3  C8  UNL     1      26.992   0.676  53.307  1.00  0.00     0.147 A 
HETATM    4  C11 UNL     1      26.692   1.641  52.246  1.00  0.00     0.166 A 
HETATM    5  N6  UNL     1      27.125   2.297  51.153  1.00  0.00    -0.225 NA
HETATM    6  C12 UNL     1      26.134   3.109  50.693  1.00  0.00     0.103 A 
HETATM    7  C13 UNL     1      26.168   3.941  49.608  1.00  0.00     0.150 A 
HETATM    8  N7  UNL     1      25.022   4.639  49.384  1.00  0.00    -0.271 NA
HETATM    9  C14 UNL     1      23.950   4.495  50.195  1.00  0.00     0.118 A 
HETATM   10  C15 UNL     1      23.941   3.639  51.297  1.00  0.00     0.051 A 
HETATM   11  C16 UNL     1      25.089   2.902  51.569  1.00  0.00     0.070 A 
HETATM   12  N8  UNL     1      25.421   2.017  52.508  1.00  0.00    -0.299 N 
ENDROOT
BRANCH   1  13
HETATM   13  C6  UNL     1      23.634   0.616  53.427  1.00  0.00     0.022 A 
HETATM   14  C5  UNL     1      22.352   1.139  53.458  1.00  0.00     0.125 A 
HETATM   15  N2  UNL     1      21.459   0.181  53.205  1.00  0.00    -0.276 N 
HETATM   16  N9  UNL     1      22.113  -0.941  53.012  1.00  0.00    -0.184 NA
HETATM   17  C17 UNL     1      23.455  -0.729  53.138  1.00  0.00     0.151 A 
BRANCH  15  18
HETATM   18  C4  UNL     1      20.015   0.367  53.156  1.00  0.00     0.113 C 
HETATM   19  C3  UNL     1      19.294  -0.938  53.212  1.00  0.00     0.057 C 
HETATM   20  C2  UNL     1      17.878  -0.735  52.720  1.00  0.00     0.274 C 
HETATM   21  N1  UNL     1      17.893  -0.465  51.297  1.00  0.00     0.084 N 
HETATM   22  C1  UNL     1      16.593   0.033  50.935  1.00  0.00     0.309 C 
HETATM   23  C19 UNL     1      18.993   0.336  50.859  1.00  0.00     0.274 C 
HETATM   24  C18 UNL     1      19.617   1.169  51.962  1.00  0.00     0.057 C 
ENDBRANCH  15  18
ENDBRANCH   1  13
BRANCH   3  25
HETATM   25  C9  UNL     1      28.256  -0.032  53.475  1.00  0.00     0.184 A 
HETATM   26  N4  UNL     1      29.482   0.365  53.602  1.00  0.00    -0.220 NA
HETATM   27  C10 UNL     1      29.947  -0.979  53.702  1.00  0.00     0.237 A 
HETATM   28  N5  UNL     1      28.716  -1.380  53.574  1.00  0.00    -0.220 NA
ENDBRANCH   3  25
TORSDOF 3
ENDMDL
MODEL 5
REMARK VINA RESULT:      -8.4      1.481      4.437
REMARK  3 active torsions:
REMARK  status: ('A' for Active; 'I' for Inactive)
REMARK    1  A    between atoms: C4_5  and  N2_6 
REMARK    2  A    between atoms: C6_8  and  C7_9 
REMARK    3  A    between atoms: C8_11  and  C9_12 
ROOT
HETATM    1  C7  UNL     1      23.852   2.485  52.721  1.00  0.00     0.252 A 
HETATM    2  N3  UNL     1      22.622   1.731  52.944  1.00  0.00    -0.251 NA
HETATM    3  C8  UNL     1      22.899   0.562  53.417  1.00  0.00     0.147 A 
HETATM    4  C11 UNL     1      24.345   0.384  53.570  1.00  0.00     0.166 A 
HETATM    5  N6  UNL     1      25.355  -0.423  53.943  1.00  0.00    -0.225 NA
HETATM    6  C12 UNL     1      26.540   0.222  53.759  1.00  0.00     0.103 A 
HETATM    7  C13 UNL     1      27.799  -0.247  54.014  1.00  0.00     0.150 A 
HETATM    8  N7  UNL     1      28.804   0.626  53.731  1.00  0.00    -0.271 NA
HETATM    9  C14 UNL     1      28.540   1.855  53.235  1.00  0.00     0.118 A 
HETATM   10  C15 UNL     1      27.245   2.310  52.983  1.00  0.00     0.051 A 
HETATM   11  C16 UNL     1      26.181   1.456  53.256  1.00  0.00     0.070 A 
HETATM   12  N8  UNL     1      24.857   1.558  53.140  1.00  0.00    -0.299 N 
ENDROOT
BRANCH   1  13
HETATM   13  C6  UNL     1      23.983   2.973  51.342  1.00  0.00     0.022 A 
HETATM   14  C5  UNL     1      24.639   4.129  50.951  1.00  0.00     0.125 A 
HETATM   15  N2  UNL     1      24.566   4.272  49.626  1.00  0.00    -0.276 N 
HETATM   16  N9  UNL     1      23.889   3.255  49.146  1.00  0.00    -0.184 NA
HETATM   17  C17 UNL     1      23.507   2.426  50.159  1.00  0.00     0.151 A 
BRANCH  15  18
HETATM   18  C4  UNL     1      25.143   5.372  48.866  1.00  0.00     0.113 C 
HETATM   19  C3  UNL     1      26.635   5.314  48.869  1.00  0.00     0.057 C 
HETATM   20  C2  UNL     1      27.177   6.668  48.471  1.00  0.00     0.274 C 
HETATM   21  N1  UNL     1      26.916   7.624  49.526  1.00  0.00     0.084 N 
HETATM   22  C1  UNL     1      27.148   8.938  48.991  1.00  0.00     0.309 C 
HETATM   23  C19 UNL     1      25.659   7.450  50.184  1.00  0.00     0.274 C 
HETATM   24  C18 UNL     1      24.641   6.688  49.358  1.00  0.00     0.057 C 
ENDBRANCH  15  18
ENDBRANCH   1  13
BRANCH   3  25
HETATM   25  C9  UNL     1      21.883  -0.431  53.748  1.00  0.00     0.184 A 
HETATM   26  N4  UNL     1      21.910  -1.529  54.434  1.00  0.00    -0.220 NA
HETATM   27  C10 UNL     1      20.524  -1.760  54.191  1.00  0.00     0.237 A 
HETATM   28  N5  UNL     1      20.496  -0.657  53.502  1.00  0.00    -0.220 NA
ENDBRANCH   3  25
TORSDOF 3
ENDMDL
MODEL 6
REMARK VINA RESULT:      -8.3      2.683      3.236
REMARK  3 active torsions:
REMARK  status: ('A' for Active; 'I' for Inactive)
REMARK    1  A    between atoms: C4_5  and  N2_6 
REMARK    2  A    between atoms: C6_8  and  C7_9 
REMARK    3  A    between atoms: C8_11  and  C9_12 
ROOT
HETATM    1  C7  UNL     1      24.256   1.737  51.872  1.00  0.00     0.252 A 
HETATM    2  N3  UNL     1      25.663   2.068  52.077  1.00  0.00    -0.251 NA
HETATM    3  C8  UNL     1      26.137   1.393  53.070  1.00  0.00     0.147 A 
HETATM    4  C11 UNL     1      25.111   0.526  53.656  1.00  0.00     0.166 A 
HETATM    5  N6  UNL     1      24.797  -0.385  54.596  1.00  0.00    -0.225 NA
HETATM    6  C12 UNL     1      23.490  -0.739  54.461  1.00  0.00     0.103 A 
HETATM    7  C13 UNL     1      22.781  -1.633  55.216  1.00  0.00     0.150 A 
HETATM    8  N7  UNL     1      21.480  -1.788  54.849  1.00  0.00    -0.271 NA
HETATM    9  C14 UNL     1      20.960  -1.093  53.813  1.00  0.00     0.118 A 
HETATM   10  C15 UNL     1      21.705  -0.185  53.058  1.00  0.00     0.051 A 
HETATM   11  C16 UNL     1      23.042   0.009  53.393  1.00  0.00     0.070 A 
HETATM   12  N8  UNL     1      24.017   0.775  52.903  1.00  0.00    -0.299 N 
ENDROOT
BRANCH   1  13
HETATM   13  C6  UNL     1      23.381   2.916  51.896  1.00  0.00     0.022 A 
HETATM   14  C5  UNL     1      22.186   3.051  51.207  1.00  0.00     0.125 A 
HETATM   15  N2  UNL     1      21.649   4.247  51.453  1.00  0.00    -0.276 N 
HETATM   16  N9  UNL     1      22.448   4.890  52.272  1.00  0.00    -0.184 NA
HETATM   17  C17 UNL     1      23.529   4.115  52.576  1.00  0.00     0.151 A 
BRANCH  15  18
HETATM   18  C4  UNL     1      20.393   4.735  50.898  1.00  0.00     0.113 C 
HETATM   19  C3  UNL     1      19.622   3.636  50.245  1.00  0.00     0.057 C 
HETATM   20  C2  UNL     1      18.588   4.246  49.326  1.00  0.00     0.274 C 
HETATM   21  N1  UNL     1      19.248   4.859  48.192  1.00  0.00     0.084 N 
HETATM   22  C1  UNL     1      18.283   5.690  47.524  1.00  0.00     0.309 C 
HETATM   23  C19 UNL     1      20.487   5.499  48.505  1.00  0.00     0.274 C 
HETATM   24  C18 UNL     1      20.624   5.877  49.968  1.00  0.00     0.057 C 
ENDBRANCH  15  18
ENDBRANCH   1  13
BRANCH   3  25
HETATM   25  C9  UNL     1      27.518   1.499  53.526  1.00  0.00     0.184 A 
HETATM   26  N4  UNL     1      28.554   2.130  53.072  1.00  0.00    -0.220 NA
HETATM   27  C10 UNL     1      29.366   1.641  54.137  1.00  0.00     0.237 A 
HETATM   28  N5  UNL     1      28.327   1.006  54.594  1.00  0.00    -0.220 NA
ENDBRANCH   3  25
TORSDOF 3
ENDMDL
MODEL 7
REMARK VINA RESULT:      -8.1      2.503      4.818
REMARK  3 active torsions:
REMARK  status: ('A' for Active; 'I' for Inactive)
REMARK    1  A    between atoms: C4_5  and  N2_6 
REMARK    2  A    between atoms: C6_8  and  C7_9 
REMARK    3  A    between atoms: C8_11  and  C9_12 
ROOT
HETATM    1  C7  UNL     1      24.177   3.220  51.951  1.00  0.00     0.252 A 
HETATM    2  N3  UNL     1      22.843   3.089  51.372  1.00  0.00    -0.251 NA
HETATM    3  C8  UNL     1      22.335   1.945  51.684  1.00  0.00     0.147 A 
HETATM    4  C11 UNL     1      23.260   1.164  52.510  1.00  0.00     0.166 A 
HETATM    5  N6  UNL     1      23.494   0.020  53.179  1.00  0.00    -0.225 NA
HETATM    6  C12 UNL     1      24.730   0.075  53.747  1.00  0.00     0.103 A 
HETATM    7  C13 UNL     1      25.347  -0.880  54.508  1.00  0.00     0.150 A 
HETATM    8  N7  UNL     1      26.592  -0.548  54.945  1.00  0.00    -0.271 NA
HETATM    9  C14 UNL     1      27.146   0.644  54.632  1.00  0.00     0.118 A 
HETATM   10  C15 UNL     1      26.495   1.603  53.853  1.00  0.00     0.051 A 
HETATM   11  C16 UNL     1      25.219   1.312  53.380  1.00  0.00     0.070 A 
HETATM   12  N8  UNL     1      24.335   1.973  52.633  1.00  0.00    -0.299 N 
ENDROOT
BRANCH   1  13
HETATM   13  C6  UNL     1      25.208   3.526  50.952  1.00  0.00     0.022 A 
HETATM   14  C5  UNL     1      25.294   4.691  50.208  1.00  0.00     0.125 A 
HETATM   15  N2  UNL     1      26.351   4.639  49.395  1.00  0.00    -0.276 N 
HETATM   16  N9  UNL     1      26.951   3.487  49.583  1.00  0.00    -0.184 NA
HETATM   17  C17 UNL     1      26.288   2.763  50.531  1.00  0.00     0.151 A 
BRANCH  15  18
HETATM   18  C4  UNL     1      26.751   5.689  48.468  1.00  0.00     0.113 C 
HETATM   19  C3  UNL     1      28.236   5.825  48.405  1.00  0.00     0.057 C 
HETATM   20  C2  UNL     1      28.578   7.170  47.805  1.00  0.00     0.274 C 
HETATM   21  N1  UNL     1      28.224   8.221  48.735  1.00  0.00     0.084 N 
HETATM   22  C1  UNL     1      28.260   9.467  48.019  1.00  0.00     0.309 C 
HETATM   23  C19 UNL     1      27.022   7.979  49.471  1.00  0.00     0.274 C 
HETATM   24  C18 UNL     1      26.091   6.984  48.804  1.00  0.00     0.057 C 
ENDBRANCH  15  18
ENDBRANCH   1  13
BRANCH   3  25
HETATM   25  C9  UNL     1      21.009   1.512  51.258  1.00  0.00     0.184 A 
HETATM   26  N4  UNL     1      20.561   0.981  50.165  1.00  0.00    -0.220 NA
HETATM   27  C10 UNL     1      19.235   0.932  50.686  1.00  0.00     0.237 A 
HETATM   28  N5  UNL     1      19.683   1.466  51.785  1.00  0.00    -0.220 NA
ENDBRANCH   3  25
TORSDOF 3
ENDMDL
MODEL 8
REMARK VINA RESULT:      -7.9      3.089      6.953
REMARK  3 active torsions:
REMARK  status: ('A' for Active; 'I' for Inactive)
REMARK    1  A    between atoms: C4_5  and  N2_6 
REMARK    2  A    between atoms: C6_8  and  C7_9 
REMARK    3  A    between atoms: C8_11  and  C9_12 
ROOT
HETATM    1  C7  UNL     1      21.826   2.976  52.454  1.00  0.00     0.252 A 
HETATM    2  N3  UNL     1      20.896   3.728  51.617  1.00  0.00    -0.251 NA
HETATM    3  C8  UNL     1      19.808   3.054  51.447  1.00  0.00     0.147 A 
HETATM    4  C11 UNL     1      19.870   1.768  52.146  1.00  0.00     0.166 A 
HETATM    5  N6  UNL     1      19.252   0.611  52.451  1.00  0.00    -0.225 NA
HETATM    6  C12 UNL     1      20.070  -0.143  53.235  1.00  0.00     0.103 A 
HETATM    7  C13 UNL     1      19.821  -1.382  53.759  1.00  0.00     0.150 A 
HETATM    8  N7  UNL     1      20.830  -1.900  54.511  1.00  0.00    -0.271 NA
HETATM    9  C14 UNL     1      21.978  -1.214  54.704  1.00  0.00     0.118 A 
HETATM   10  C15 UNL     1      22.208   0.050  54.158  1.00  0.00     0.051 A 
HETATM   11  C16 UNL     1      21.207   0.624  53.380  1.00  0.00     0.070 A 
HETATM   12  N8  UNL     1      21.091   1.779  52.724  1.00  0.00    -0.299 N 
ENDROOT
BRANCH   1  13
HETATM   13  C6  UNL     1      23.137   2.780  51.822  1.00  0.00     0.022 A 
HETATM   14  C5  UNL     1      24.148   1.959  52.293  1.00  0.00     0.125 A 
HETATM   15  N2  UNL     1      25.203   2.017  51.477  1.00  0.00    -0.276 N 
HETATM   16  N9  UNL     1      24.913   2.841  50.498  1.00  0.00    -0.184 NA
HETATM   17  C17 UNL     1      23.653   3.339  50.662  1.00  0.00     0.151 A 
BRANCH  15  18
HETATM   18  C4  UNL     1      26.448   1.284  51.660  1.00  0.00     0.113 C 
HETATM   19  C3  UNL     1      26.205  -0.071  52.237  1.00  0.00     0.057 C 
HETATM   20  C2  UNL     1      27.501  -0.598  52.810  1.00  0.00     0.274 C 
HETATM   21  N1  UNL     1      27.858   0.166  53.986  1.00  0.00     0.084 N 
HETATM   22  C1  UNL     1      29.226  -0.141  54.307  1.00  0.00     0.309 C 
HETATM   23  C19 UNL     1      27.553   1.561  53.901  1.00  0.00     0.274 C 
HETATM   24  C18 UNL     1      27.418   2.067  52.478  1.00  0.00     0.057 C 
ENDBRANCH  15  18
ENDBRANCH   1  13
BRANCH   3  25
HETATM   25  C9  UNL     1      18.681   3.536  50.658  1.00  0.00     0.184 A 
HETATM   26  N4  UNL     1      17.526   3.028  50.364  1.00  0.00    -0.220 NA
HETATM   27  C10 UNL     1      17.171   4.180  49.602  1.00  0.00     0.237 A 
HETATM   28  N5  UNL     1      18.331   4.691  49.897  1.00  0.00    -0.220 NA
ENDBRANCH   3  25
TORSDOF 3
ENDMDL
MODEL 9
REMARK VINA RESULT:      -7.8      4.289      6.810
REMARK  3 active torsions:
REMARK  status: ('A' for Active; 'I' for Inactive)
REMARK    1  A    between atoms: C4_5  and  N2_6 
REMARK    2  A    between atoms: C6_8  and  C7_9 
REMARK    3  A    between atoms: C8_11  and  C9_12 
ROOT
HETATM    1  C7  UNL     1      21.466   1.387  50.835  1.00  0.00     0.252 A 
HETATM    2  N3  UNL     1      22.508   2.207  50.223  1.00  0.00    -0.251 NA
HETATM    3  C8  UNL     1      23.614   2.079  50.878  1.00  0.00     0.147 A 
HETATM    4  C11 UNL     1      23.454   1.160  52.008  1.00  0.00     0.166 A 
HETATM    5  N6  UNL     1      24.026   0.548  53.062  1.00  0.00    -0.225 NA
HETATM    6  C12 UNL     1      23.103  -0.237  53.682  1.00  0.00     0.103 A 
HETATM    7  C13 UNL     1      23.277  -1.023  54.788  1.00  0.00     0.150 A 
HETATM    8  N7  UNL     1      22.169  -1.703  55.189  1.00  0.00    -0.271 NA
HETATM    9  C14 UNL     1      21.000  -1.585  54.520  1.00  0.00     0.118 A 
HETATM   10  C15 UNL     1      20.848  -0.776  53.394  1.00  0.00     0.051 A 
HETATM   11  C16 UNL     1      21.952  -0.060  52.943  1.00  0.00     0.070 A 
HETATM   12  N8  UNL     1      22.159   0.784  51.931  1.00  0.00    -0.299 N 
ENDROOT
BRANCH   1  13
HETATM   13  C6  UNL     1      20.269   2.158  51.196  1.00  0.00     0.022 A 
HETATM   14  C5  UNL     1      18.966   1.832  50.858  1.00  0.00     0.125 A 
HETATM   15  N2  UNL     1      18.124   2.747  51.345  1.00  0.00    -0.276 N 
HETATM   16  N9  UNL     1      18.832   3.649  51.983  1.00  0.00    -0.184 NA
HETATM   17  C17 UNL     1      20.158   3.335  51.921  1.00  0.00     0.151 A 
BRANCH  15  18
HETATM   18  C4  UNL     1      16.677   2.727  51.184  1.00  0.00     0.113 C 
HETATM   19  C3  UNL     1      15.998   3.518  52.253  1.00  0.00     0.057 C 
HETATM   20  C2  UNL     1      14.543   3.113  52.311  1.00  0.00     0.274 C 
HETATM   21  N1  UNL     1      14.435   1.764  52.826  1.00  0.00     0.084 N 
HETATM   22  C1  UNL     1      13.097   1.305  52.568  1.00  0.00     0.309 C 
HETATM   23  C19 UNL     1      15.474   0.881  52.395  1.00  0.00     0.274 C 
HETATM   24  C18 UNL     1      16.161   1.329  51.119  1.00  0.00     0.057 C 
ENDBRANCH  15  18
ENDBRANCH   1  13
BRANCH   3  25
HETATM   25  C9  UNL     1      24.846   2.770  50.515  1.00  0.00     0.184 A 
HETATM   26  N4  UNL     1      26.028   2.806  51.043  1.00  0.00    -0.220 NA
HETATM   27  C10 UNL     1      26.495   3.694  50.030  1.00  0.00     0.237 A 
HETATM   28  N5  UNL     1      25.308   3.659  49.499  1.00  0.00    -0.220 NA
ENDBRANCH   3  25
TORSDOF 3
ENDMDL
