MODEL 1
REMARK VINA RESULT:      -7.5      0.000      0.000
REMARK  9 active torsions:
REMARK  status: ('A' for Active; 'I' for Inactive)
REMARK    1  A    between atoms: C3_4  and  C4_5 
REMARK    2  A    between atoms: C4_5  and  N1_6 
REMARK    3  A    between atoms: C7_9  and  C8_10 
REMARK    4  A    between atoms: N2_11  and  C9_12 
REMARK    5  A    between atoms: N3_14  and  C11_15 
REMARK    6  A    between atoms: C11_15  and  O1_17 
REMARK    7  A    between atoms: O1_17  and  C13_18 
REMARK    8  A    between atoms: C13_18  and  C14_19 
REMARK    9  A    between atoms: C14_19  and  N4_20 
ROOT
HETATM    1  C9  UNL     1      23.698   1.721  51.418  1.00  0.00     0.146 A 
HETATM    2  C10 UNL     1      22.385   1.349  51.075  1.00  0.00     0.146 A 
HETATM    3  N3  UNL     1      23.110   0.741  52.170  1.00  0.00    -0.310 N 
ENDROOT
BRANCH   1   4
HETATM    4  N2  UNL     1      24.267   2.695  50.661  1.00  0.00    -0.245 NA
HETATM    5  C8  UNL     1      24.572   3.863  50.837  1.00  0.00     0.106 C 
BRANCH   5   6
HETATM    6  C7  UNL     1      25.121   4.072  49.469  1.00  0.00     0.092 A 
HETATM    7  C6  UNL     1      25.021   5.458  49.024  1.00  0.00     0.007 A 
HETATM    8  C5  UNL     1      25.974   6.265  48.601  1.00  0.00     0.109 A 
HETATM    9  N1  UNL     1      27.292   5.737  48.561  1.00  0.00    -0.278 N 
HETATM   10  N5  UNL     1      27.540   4.395  48.965  1.00  0.00    -0.188 NA
HETATM   11  C19 UNL     1      26.565   3.648  49.374  1.00  0.00     0.125 A 
BRANCH   9  12
HETATM   12  C4  UNL     1      28.459   6.485  48.146  1.00  0.00     0.180 C 
BRANCH  12  13
HETATM   13  C3  UNL     1      29.679   5.632  48.130  1.00  0.00     0.032 C 
HETATM   14  C2  UNL     1      30.907   5.910  48.535  1.00  0.00     0.088 C 
HETATM   15  C1  UNL     1      31.205   7.245  49.104  1.00  0.00     0.082 C 
HETATM   16  F1  UNL     1      31.814   4.915  48.392  1.00  0.00    -0.212 F 
ENDBRANCH  12  13
ENDBRANCH   9  12
ENDBRANCH   5   6
ENDBRANCH   1   4
BRANCH   3  17
HETATM   17  C11 UNL     1      22.964  -0.340  53.237  1.00  0.00     0.225 C 
HETATM   18  C12 UNL     1      21.800   0.172  54.066  1.00  0.00     0.063 C 
BRANCH  17  19
HETATM   19  O1  UNL     1      24.082  -0.514  53.776  1.00  0.00    -0.365 OA
BRANCH  19  20
HETATM   20  C13 UNL     1      25.255  -0.606  54.200  1.00  0.00     0.189 C 
BRANCH  20  21
HETATM   21  C14 UNL     1      26.185  -1.197  53.140  1.00  0.00     0.143 C 
BRANCH  21  22
HETATM   22  N4  UNL     1      27.276  -0.336  52.775  1.00  0.00    -0.406 N 
HETATM   23  C15 UNL     1      28.314  -0.339  53.777  1.00  0.00     0.143 C 
HETATM   24  C16 UNL     1      28.871   0.960  54.206  1.00  0.00     0.187 C 
HETATM   25  O2  UNL     1      28.957   1.865  53.146  1.00  0.00    -0.388 OA
HETATM   26  C17 UNL     1      27.645   2.116  52.776  1.00  0.00     0.187 C 
HETATM   27  C18 UNL     1      26.947   0.906  52.193  1.00  0.00     0.143 C 
ENDBRANCH  21  22
ENDBRANCH  20  21
ENDBRANCH  19  20
ENDBRANCH  17  19
ENDBRANCH   3  17
TORSDOF 9
ENDMDL
MODEL 2
REMARK VINA RESULT:      -6.9      3.078      7.743
REMARK  9 active torsions:
REMARK  status: ('A' for Active; 'I' for Inactive)
REMARK    1  A    between atoms: C3_4  and  C4_5 
REMARK    2  A    between atoms: C4_5  and  N1_6 
REMARK    3  A    between atoms: C7_9  and  C8_10 
REMARK    4  A    between atoms: N2_11  and  C9_12 
REMARK    5  A    between atoms: N3_14  and  C11_15 
REMARK    6  A    between atoms: C11_15  and  O1_17 
REMARK    7  A    between atoms: O1_17  and  C13_18 
REMARK    8  A    between atoms: C13_18  and  C14_19 
REMARK    9  A    between atoms: C14_19  and  N4_20 
ROOT
HETATM    1  C9  UNL     1      25.710   3.832  50.397  1.00  0.00     0.146 A 
HETATM    2  C10 UNL     1      26.536   3.198  49.451  1.00  0.00     0.146 A 
HETATM    3  N3  UNL     1      26.345   4.632  49.484  1.00  0.00    -0.310 N 
ENDROOT
BRANCH   1   4
HETATM    4  N2  UNL     1      25.088   3.026  51.294  1.00  0.00    -0.245 NA
HETATM    5  C8  UNL     1      24.205   2.186  51.239  1.00  0.00     0.106 C 
BRANCH   5   6
HETATM    6  C7  UNL     1      24.225   1.864  52.692  1.00  0.00     0.092 A 
HETATM    7  C6  UNL     1      24.332   0.433  52.954  1.00  0.00     0.007 A 
HETATM    8  C5  UNL     1      25.228  -0.216  53.673  1.00  0.00     0.109 A 
HETATM    9  N1  UNL     1      26.242   0.563  54.290  1.00  0.00    -0.278 N 
HETATM   10  N5  UNL     1      26.263   1.977  54.123  1.00  0.00    -0.188 NA
HETATM   11  C19 UNL     1      25.359   2.561  53.404  1.00  0.00     0.125 A 
BRANCH   9  12
HETATM   12  C4  UNL     1      27.314   0.018  55.094  1.00  0.00     0.180 C 
BRANCH  12  13
HETATM   13  C3  UNL     1      28.647   0.310  54.498  1.00  0.00     0.032 C 
HETATM   14  C2  UNL     1      29.396  -0.435  53.703  1.00  0.00     0.088 C 
HETATM   15  C1  UNL     1      28.917  -1.775  53.290  1.00  0.00     0.082 C 
HETATM   16  F1  UNL     1      30.575   0.112  53.321  1.00  0.00    -0.212 F 
ENDBRANCH  12  13
ENDBRANCH   9  12
ENDBRANCH   5   6
ENDBRANCH   1   4
BRANCH   3  17
HETATM   17  C11 UNL     1      26.747   5.902  48.742  1.00  0.00     0.225 C 
HETATM   18  C12 UNL     1      28.197   5.628  48.386  1.00  0.00     0.063 C 
BRANCH  17  19
HETATM   19  O1  UNL     1      26.458   6.887  49.461  1.00  0.00    -0.365 OA
BRANCH  19  20
HETATM   20  C13 UNL     1      26.213   7.956  50.062  1.00  0.00     0.189 C 
BRANCH  20  21
HETATM   21  C14 UNL     1      25.108   8.748  49.360  1.00  0.00     0.143 C 
BRANCH  21  22
HETATM   22  N4  UNL     1      23.797   8.178  49.508  1.00  0.00    -0.406 N 
HETATM   23  C15 UNL     1      23.588   7.667  50.841  1.00  0.00     0.143 C 
HETATM   24  C16 UNL     1      22.990   6.323  50.985  1.00  0.00     0.187 C 
HETATM   25  O2  UNL     1      22.026   6.075  50.004  1.00  0.00    -0.388 OA
HETATM   26  C17 UNL     1      22.723   6.057  48.807  1.00  0.00     0.187 C 
HETATM   27  C18 UNL     1      23.310   7.402  48.437  1.00  0.00     0.143 C 
ENDBRANCH  21  22
ENDBRANCH  20  21
ENDBRANCH  19  20
ENDBRANCH  17  19
ENDBRANCH   3  17
TORSDOF 9
ENDMDL
MODEL 3
REMARK VINA RESULT:      -6.8      2.113      3.475
REMARK  9 active torsions:
REMARK  status: ('A' for Active; 'I' for Inactive)
REMARK    1  A    between atoms: C3_4  and  C4_5 
REMARK    2  A    between atoms: C4_5  and  N1_6 
REMARK    3  A    between atoms: C7_9  and  C8_10 
REMARK    4  A    between atoms: N2_11  and  C9_12 
REMARK    5  A    between atoms: N3_14  and  C11_15 
REMARK    6  A    between atoms: C11_15  and  O1_17 
REMARK    7  A    between atoms: O1_17  and  C13_18 
REMARK    8  A    between atoms: C13_18  and  C14_19 
REMARK    9  A    between atoms: C14_19  and  N4_20 
ROOT
HETATM    1  C9  UNL     1      25.064   5.235  49.997  1.00  0.00     0.146 A 
HETATM    2  C10 UNL     1      23.739   5.471  49.584  1.00  0.00     0.146 A 
HETATM    3  N3  UNL     1      24.065   4.669  50.743  1.00  0.00    -0.310 N 
ENDROOT
BRANCH   1   4
HETATM    4  N2  UNL     1      26.041   5.803  49.245  1.00  0.00    -0.245 NA
HETATM    5  C8  UNL     1      26.604   6.885  49.229  1.00  0.00     0.106 C 
BRANCH   5   6
HETATM    6  C7  UNL     1      27.500   6.560  48.084  1.00  0.00     0.092 A 
HETATM    7  C6  UNL     1      28.482   7.605  47.820  1.00  0.00     0.007 A 
HETATM    8  C5  UNL     1      29.797   7.514  47.763  1.00  0.00     0.109 A 
HETATM    9  N1  UNL     1      30.362   6.230  47.986  1.00  0.00    -0.278 N 
HETATM   10  N5  UNL     1      29.522   5.113  48.255  1.00  0.00    -0.188 NA
HETATM   11  C19 UNL     1      28.237   5.262  48.301  1.00  0.00     0.125 A 
BRANCH   9  12
HETATM   12  C4  UNL     1      31.781   5.952  47.983  1.00  0.00     0.180 C 
BRANCH  12  13
HETATM   13  C3  UNL     1      32.052   4.492  47.875  1.00  0.00     0.032 C 
HETATM   14  C2  UNL     1      32.538   3.798  46.859  1.00  0.00     0.088 C 
HETATM   15  C1  UNL     1      32.897   4.494  45.602  1.00  0.00     0.082 C 
HETATM   16  F1  UNL     1      32.673   2.466  47.067  1.00  0.00    -0.212 F 
ENDBRANCH  12  13
ENDBRANCH   9  12
ENDBRANCH   5   6
ENDBRANCH   1   4
BRANCH   3  17
HETATM   17  C11 UNL     1      23.403   3.834  51.835  1.00  0.00     0.225 C 
HETATM   18  C12 UNL     1      23.457   4.762  53.036  1.00  0.00     0.063 C 
BRANCH  17  19
HETATM   19  O1  UNL     1      23.977   2.721  51.882  1.00  0.00    -0.365 OA
BRANCH  19  20
HETATM   20  C13 UNL     1      24.607   1.656  52.062  1.00  0.00     0.189 C 
BRANCH  20  21
HETATM   21  C14 UNL     1      26.118   1.891  52.030  1.00  0.00     0.143 C 
BRANCH  21  22
HETATM   22  N4  UNL     1      26.739   1.874  53.325  1.00  0.00    -0.406 N 
HETATM   23  C15 UNL     1      28.136   2.227  53.249  1.00  0.00     0.143 C 
HETATM   24  C16 UNL     1      29.106   1.391  53.985  1.00  0.00     0.187 C 
HETATM   25  O2  UNL     1      28.587   0.939  55.201  1.00  0.00    -0.388 OA
HETATM   26  C17 UNL     1      27.541   0.097  54.857  1.00  0.00     0.187 C 
HETATM   27  C18 UNL     1      26.389   0.819  54.192  1.00  0.00     0.143 C 
ENDBRANCH  21  22
ENDBRANCH  20  21
ENDBRANCH  19  20
ENDBRANCH  17  19
ENDBRANCH   3  17
TORSDOF 9
ENDMDL
MODEL 4
REMARK VINA RESULT:      -6.7      3.034      7.868
REMARK  9 active torsions:
REMARK  status: ('A' for Active; 'I' for Inactive)
REMARK    1  A    between atoms: C3_4  and  C4_5 
REMARK    2  A    between atoms: C4_5  and  N1_6 
REMARK    3  A    between atoms: C7_9  and  C8_10 
REMARK    4  A    between atoms: N2_11  and  C9_12 
REMARK    5  A    between atoms: N3_14  and  C11_15 
REMARK    6  A    between atoms: C11_15  and  O1_17 
REMARK    7  A    between atoms: O1_17  and  C13_18 
REMARK    8  A    between atoms: C13_18  and  C14_19 
REMARK    9  A    between atoms: C14_19  and  N4_20 
ROOT
HETATM    1  C9  UNL     1      25.419   4.145  50.541  1.00  0.00     0.146 A 
HETATM    2  C10 UNL     1      26.353   3.749  49.567  1.00  0.00     0.146 A 
HETATM    3  N3  UNL     1      25.892   5.114  49.698  1.00  0.00    -0.310 N 
ENDROOT
BRANCH   1   4
HETATM    4  N2  UNL     1      24.959   3.171  51.369  1.00  0.00    -0.245 NA
HETATM    5  C8  UNL     1      24.328   2.137  51.224  1.00  0.00     0.106 C 
BRANCH   5   6
HETATM    6  C7  UNL     1      24.321   1.774  52.668  1.00  0.00     0.092 A 
HETATM    7  C6  UNL     1      24.475   0.341  52.893  1.00  0.00     0.007 A 
HETATM    8  C5  UNL     1      25.376  -0.294  53.618  1.00  0.00     0.109 A 
HETATM    9  N1  UNL     1      26.342   0.505  54.286  1.00  0.00    -0.278 N 
HETATM   10  N5  UNL     1      26.313   1.922  54.159  1.00  0.00    -0.188 NA
HETATM   11  C19 UNL     1      25.406   2.492  53.432  1.00  0.00     0.125 A 
BRANCH   9  12
HETATM   12  C4  UNL     1      27.412  -0.023  55.104  1.00  0.00     0.180 C 
BRANCH  12  13
HETATM   13  C3  UNL     1      28.747   0.267  54.512  1.00  0.00     0.032 C 
HETATM   14  C2  UNL     1      29.497  -0.480  53.719  1.00  0.00     0.088 C 
HETATM   15  C1  UNL     1      29.017  -1.819  53.305  1.00  0.00     0.082 C 
HETATM   16  F1  UNL     1      30.677   0.066  53.340  1.00  0.00    -0.212 F 
ENDBRANCH  12  13
ENDBRANCH   9  12
ENDBRANCH   5   6
ENDBRANCH   1   4
BRANCH   3  17
HETATM   17  C11 UNL     1      26.047   6.488  49.055  1.00  0.00     0.225 C 
HETATM   18  C12 UNL     1      24.793   6.596  48.206  1.00  0.00     0.063 C 
BRANCH  17  19
HETATM   19  O1  UNL     1      27.174   6.543  48.509  1.00  0.00    -0.365 OA
BRANCH  19  20
HETATM   20  C13 UNL     1      28.355   6.551  48.098  1.00  0.00     0.189 C 
BRANCH  20  21
HETATM   21  C14 UNL     1      29.077   7.837  48.505  1.00  0.00     0.143 C 
BRANCH  21  22
HETATM   22  N4  UNL     1      30.410   7.949  47.980  1.00  0.00    -0.406 N 
HETATM   23  C15 UNL     1      30.767   6.799  47.186  1.00  0.00     0.143 C 
HETATM   24  C16 UNL     1      32.088   6.178  47.415  1.00  0.00     0.187 C 
HETATM   25  O2  UNL     1      33.067   7.130  47.707  1.00  0.00    -0.388 OA
HETATM   26  C17 UNL     1      32.688   7.680  48.921  1.00  0.00     0.187 C 
HETATM   27  C18 UNL     1      31.398   8.468  48.842  1.00  0.00     0.143 C 
ENDBRANCH  21  22
ENDBRANCH  20  21
ENDBRANCH  19  20
ENDBRANCH  17  19
ENDBRANCH   3  17
TORSDOF 9
ENDMDL
MODEL 5
REMARK VINA RESULT:      -6.7      6.257     10.158
REMARK  9 active torsions:
REMARK  status: ('A' for Active; 'I' for Inactive)
REMARK    1  A    between atoms: C3_4  and  C4_5 
REMARK    2  A    between atoms: C4_5  and  N1_6 
REMARK    3  A    between atoms: C7_9  and  C8_10 
REMARK    4  A    between atoms: N2_11  and  C9_12 
REMARK    5  A    between atoms: N3_14  and  C11_15 
REMARK    6  A    between atoms: C11_15  and  O1_17 
REMARK    7  A    between atoms: O1_17  and  C13_18 
REMARK    8  A    between atoms: C13_18  and  C14_19 
REMARK    9  A    between atoms: C14_19  and  N4_20 
ROOT
HETATM    1  C9  UNL     1      18.922  -0.615  52.965  1.00  0.00     0.146 A 
HETATM    2  C10 UNL     1      18.067  -1.626  53.440  1.00  0.00     0.146 A 
HETATM    3  N3  UNL     1      17.680  -0.703  52.395  1.00  0.00    -0.310 N 
ENDROOT
BRANCH   1   4
HETATM    4  N2  UNL     1      20.149  -0.541  53.541  1.00  0.00    -0.245 NA
HETATM    5  C8  UNL     1      20.877  -1.320  54.134  1.00  0.00     0.106 C 
BRANCH   5   6
HETATM    6  C7  UNL     1      21.975  -0.341  54.363  1.00  0.00     0.092 A 
HETATM    7  C6  UNL     1      23.152  -0.943  54.979  1.00  0.00     0.007 A 
HETATM    8  C5  UNL     1      24.401  -0.946  54.555  1.00  0.00     0.109 A 
HETATM    9  N1  UNL     1      24.666  -0.275  53.332  1.00  0.00    -0.278 N 
HETATM   10  N5  UNL     1      23.612   0.361  52.619  1.00  0.00    -0.188 NA
HETATM   11  C19 UNL     1      22.403   0.331  53.081  1.00  0.00     0.125 A 
BRANCH   9  12
HETATM   12  C4  UNL     1      25.970  -0.197  52.710  1.00  0.00     0.180 C 
BRANCH  12  13
HETATM   13  C3  UNL     1      26.640   1.099  53.004  1.00  0.00     0.032 C 
HETATM   14  C2  UNL     1      27.641   1.363  53.827  1.00  0.00     0.088 C 
HETATM   15  C1  UNL     1      28.251   0.265  54.613  1.00  0.00     0.082 C 
HETATM   16  F1  UNL     1      28.036   2.657  53.878  1.00  0.00    -0.212 F 
ENDBRANCH  12  13
ENDBRANCH   9  12
ENDBRANCH   5   6
ENDBRANCH   1   4
BRANCH   3  17
HETATM   17  C11 UNL     1      16.496  -0.348  51.501  1.00  0.00     0.225 C 
HETATM   18  C12 UNL     1      17.175   0.231  50.273  1.00  0.00     0.063 C 
BRANCH  17  19
HETATM   19  O1  UNL     1      15.700   0.359  52.163  1.00  0.00    -0.365 OA
BRANCH  19  20
HETATM   20  C13 UNL     1      14.936   1.174  52.724  1.00  0.00     0.189 C 
BRANCH  20  21
HETATM   21  C14 UNL     1      13.652   1.379  51.917  1.00  0.00     0.143 C 
BRANCH  21  22
HETATM   22  N4  UNL     1      12.858   2.493  52.357  1.00  0.00    -0.406 N 
HETATM   23  C15 UNL     1      13.663   3.674  52.551  1.00  0.00     0.143 C 
HETATM   24  C16 UNL     1      13.465   4.455  53.790  1.00  0.00     0.187 C 
HETATM   25  O2  UNL     1      12.125   4.475  54.184  1.00  0.00    -0.388 OA
HETATM   26  C17 UNL     1      11.822   3.162  54.507  1.00  0.00     0.187 C 
HETATM   27  C18 UNL     1      11.858   2.230  53.315  1.00  0.00     0.143 C 
ENDBRANCH  21  22
ENDBRANCH  20  21
ENDBRANCH  19  20
ENDBRANCH  17  19
ENDBRANCH   3  17
TORSDOF 9
ENDMDL
MODEL 6
REMARK VINA RESULT:      -6.7      3.638      8.578
REMARK  9 active torsions:
REMARK  status: ('A' for Active; 'I' for Inactive)
REMARK    1  A    between atoms: C3_4  and  C4_5 
REMARK    2  A    between atoms: C4_5  and  N1_6 
REMARK    3  A    between atoms: C7_9  and  C8_10 
REMARK    4  A    between atoms: N2_11  and  C9_12 
REMARK    5  A    between atoms: N3_14  and  C11_15 
REMARK    6  A    between atoms: C11_15  and  O1_17 
REMARK    7  A    between atoms: O1_17  and  C13_18 
REMARK    8  A    between atoms: C13_18  and  C14_19 
REMARK    9  A    between atoms: C14_19  and  N4_20 
ROOT
HETATM    1  C9  UNL     1      27.029   5.959  48.609  1.00  0.00     0.146 A 
HETATM    2  C10 UNL     1      28.390   5.693  48.371  1.00  0.00     0.146 A 
HETATM    3  N3  UNL     1      27.797   6.993  48.146  1.00  0.00    -0.310 N 
ENDROOT
BRANCH   1   4
HETATM    4  N2  UNL     1      26.281   4.922  49.066  1.00  0.00    -0.245 NA
HETATM    5  C8  UNL     1      25.229   4.813  49.674  1.00  0.00     0.106 C 
BRANCH   5   6
HETATM    6  C7  UNL     1      25.237   3.325  49.704  1.00  0.00     0.092 A 
HETATM    7  C6  UNL     1      26.472   2.776  50.252  1.00  0.00     0.007 A 
HETATM    8  C5  UNL     1      26.635   1.943  51.262  1.00  0.00     0.109 A 
HETATM    9  N1  UNL     1      25.460   1.501  51.926  1.00  0.00    -0.278 N 
HETATM   10  N5  UNL     1      24.180   1.954  51.498  1.00  0.00    -0.188 NA
HETATM   11  C19 UNL     1      24.080   2.774  50.502  1.00  0.00     0.125 A 
BRANCH   9  12
HETATM   12  C4  UNL     1      25.452   0.607  53.063  1.00  0.00     0.180 C 
BRANCH  12  13
HETATM   13  C3  UNL     1      25.866  -0.771  52.678  1.00  0.00     0.032 C 
HETATM   14  C2  UNL     1      27.032  -1.375  52.834  1.00  0.00     0.088 C 
HETATM   15  C1  UNL     1      28.152  -0.650  53.480  1.00  0.00     0.082 C 
HETATM   16  F1  UNL     1      27.101  -2.648  52.377  1.00  0.00    -0.212 F 
ENDBRANCH  12  13
ENDBRANCH   9  12
ENDBRANCH   5   6
ENDBRANCH   1   4
BRANCH   3  17
HETATM   17  C11 UNL     1      28.150   8.390  47.643  1.00  0.00     0.225 C 
HETATM   18  C12 UNL     1      28.585   8.123  46.213  1.00  0.00     0.063 C 
BRANCH  17  19
HETATM   19  O1  UNL     1      28.954   8.908  48.452  1.00  0.00    -0.365 OA
BRANCH  19  20
HETATM   20  C13 UNL     1      29.782   9.531  49.153  1.00  0.00     0.189 C 
BRANCH  20  21
HETATM   21  C14 UNL     1      31.100   9.738  48.405  1.00  0.00     0.143 C 
BRANCH  21  22
HETATM   22  N4  UNL     1      31.992   8.613  48.470  1.00  0.00    -0.406 N 
HETATM   23  C15 UNL     1      32.112   7.956  47.191  1.00  0.00     0.143 C 
HETATM   24  C16 UNL     1      32.017   6.482  47.155  1.00  0.00     0.187 C 
HETATM   25  O2  UNL     1      32.606   5.895  48.277  1.00  0.00    -0.388 OA
HETATM   26  C17 UNL     1      31.829   6.301  49.349  1.00  0.00     0.187 C 
HETATM   27  C18 UNL     1      31.904   7.790  49.611  1.00  0.00     0.143 C 
ENDBRANCH  21  22
ENDBRANCH  20  21
ENDBRANCH  19  20
ENDBRANCH  17  19
ENDBRANCH   3  17
TORSDOF 9
ENDMDL
MODEL 7
REMARK VINA RESULT:      -6.6      4.083      9.308
REMARK  9 active torsions:
REMARK  status: ('A' for Active; 'I' for Inactive)
REMARK    1  A    between atoms: C3_4  and  C4_5 
REMARK    2  A    between atoms: C4_5  and  N1_6 
REMARK    3  A    between atoms: C7_9  and  C8_10 
REMARK    4  A    between atoms: N2_11  and  C9_12 
REMARK    5  A    between atoms: N3_14  and  C11_15 
REMARK    6  A    between atoms: C11_15  and  O1_17 
REMARK    7  A    between atoms: O1_17  and  C13_18 
REMARK    8  A    between atoms: C13_18  and  C14_19 
REMARK    9  A    between atoms: C14_19  and  N4_20 
ROOT
HETATM    1  C9  UNL     1      28.647   5.252  48.253  1.00  0.00     0.146 A 
HETATM    2  C10 UNL     1      28.707   6.603  47.865  1.00  0.00     0.146 A 
HETATM    3  N3  UNL     1      29.843   5.711  47.772  1.00  0.00    -0.310 N 
ENDROOT
BRANCH   1   4
HETATM    4  N2  UNL     1      27.453   4.812  48.729  1.00  0.00    -0.245 NA
HETATM    5  C8  UNL     1      26.432   5.344  49.133  1.00  0.00     0.106 C 
BRANCH   5   6
HETATM    6  C7  UNL     1      25.714   4.071  49.418  1.00  0.00     0.092 A 
HETATM    7  C6  UNL     1      26.516   3.129  50.190  1.00  0.00     0.007 A 
HETATM    8  C5  UNL     1      26.234   2.546  51.340  1.00  0.00     0.109 A 
HETATM    9  N1  UNL     1      24.980   2.859  51.929  1.00  0.00    -0.278 N 
HETATM   10  N5  UNL     1      24.091   3.765  51.284  1.00  0.00    -0.188 NA
HETATM   11  C19 UNL     1      24.421   4.310  50.157  1.00  0.00     0.125 A 
BRANCH   9  12
HETATM   12  C4  UNL     1      24.517   2.331  53.193  1.00  0.00     0.180 C 
BRANCH  12  13
HETATM   13  C3  UNL     1      23.659   1.129  53.002  1.00  0.00     0.032 C 
HETATM   14  C2  UNL     1      23.939  -0.147  53.210  1.00  0.00     0.088 C 
HETATM   15  C1  UNL     1      25.279  -0.531  53.710  1.00  0.00     0.082 C 
HETATM   16  F1  UNL     1      22.938  -1.020  52.942  1.00  0.00    -0.212 F 
ENDBRANCH  12  13
ENDBRANCH   9  12
ENDBRANCH   5   6
ENDBRANCH   1   4
BRANCH   3  17
HETATM   17  C11 UNL     1      31.315   5.699  47.373  1.00  0.00     0.225 C 
HETATM   18  C12 UNL     1      31.663   4.223  47.444  1.00  0.00     0.063 C 
BRANCH  17  19
HETATM   19  O1  UNL     1      31.927   6.518  48.098  1.00  0.00    -0.365 OA
BRANCH  19  20
HETATM   20  C13 UNL     1      32.663   7.289  48.752  1.00  0.00     0.189 C 
BRANCH  20  21
HETATM   21  C14 UNL     1      31.839   8.306  49.544  1.00  0.00     0.143 C 
BRANCH  21  22
HETATM   22  N4  UNL     1      31.211   9.310  48.730  1.00  0.00    -0.406 N 
HETATM   23  C15 UNL     1      32.096   9.783  47.694  1.00  0.00     0.143 C 
HETATM   24  C16 UNL     1      32.203  11.242  47.482  1.00  0.00     0.187 C 
HETATM   25  O2  UNL     1      30.978  11.886  47.673  1.00  0.00    -0.388 OA
HETATM   26  C17 UNL     1      30.686  11.716  49.017  1.00  0.00     0.187 C 
HETATM   27  C18 UNL     1      30.423  10.274  49.393  1.00  0.00     0.143 C 
ENDBRANCH  21  22
ENDBRANCH  20  21
ENDBRANCH  19  20
ENDBRANCH  17  19
ENDBRANCH   3  17
TORSDOF 9
ENDMDL
MODEL 8
REMARK VINA RESULT:      -6.6      2.824      3.739
REMARK  9 active torsions:
REMARK  status: ('A' for Active; 'I' for Inactive)
REMARK    1  A    between atoms: C3_4  and  C4_5 
REMARK    2  A    between atoms: C4_5  and  N1_6 
REMARK    3  A    between atoms: C7_9  and  C8_10 
REMARK    4  A    between atoms: N2_11  and  C9_12 
REMARK    5  A    between atoms: N3_14  and  C11_15 
REMARK    6  A    between atoms: C11_15  and  O1_17 
REMARK    7  A    between atoms: O1_17  and  C13_18 
REMARK    8  A    between atoms: C13_18  and  C14_19 
REMARK    9  A    between atoms: C14_19  and  N4_20 
ROOT
HETATM    1  C9  UNL     1      25.111   4.335  50.048  1.00  0.00     0.146 A 
HETATM    2  C10 UNL     1      24.211   3.535  49.321  1.00  0.00     0.146 A 
HETATM    3  N3  UNL     1      24.102   3.733  50.750  1.00  0.00    -0.310 N 
ENDROOT
BRANCH   1   4
HETATM    4  N2  UNL     1      26.107   4.925  49.337  1.00  0.00    -0.245 NA
HETATM    5  C8  UNL     1      27.273   4.661  49.095  1.00  0.00     0.106 C 
BRANCH   5   6
HETATM    6  C7  UNL     1      27.518   5.867  48.257  1.00  0.00     0.092 A 
HETATM    7  C6  UNL     1      26.859   7.060  48.774  1.00  0.00     0.007 A 
HETATM    8  C5  UNL     1      27.384   8.228  49.092  1.00  0.00     0.109 A 
HETATM    9  N1  UNL     1      28.785   8.373  48.913  1.00  0.00    -0.278 N 
HETATM   10  N5  UNL     1      29.560   7.289  48.412  1.00  0.00    -0.188 NA
HETATM   11  C19 UNL     1      28.992   6.163  48.119  1.00  0.00     0.125 A 
BRANCH   9  12
HETATM   12  C4  UNL     1      29.529   9.572  49.228  1.00  0.00     0.180 C 
BRANCH  12  13
HETATM   13  C3  UNL     1      29.151  10.701  48.334  1.00  0.00     0.032 C 
HETATM   14  C2  UNL     1      29.635  11.931  48.280  1.00  0.00     0.088 C 
HETATM   15  C1  UNL     1      30.718  12.333  49.208  1.00  0.00     0.082 C 
HETATM   16  F1  UNL     1      29.081  12.741  47.347  1.00  0.00    -0.212 F 
ENDBRANCH  12  13
ENDBRANCH   9  12
ENDBRANCH   5   6
ENDBRANCH   1   4
BRANCH   3  17
HETATM   17  C11 UNL     1      23.259   3.307  51.948  1.00  0.00     0.225 C 
HETATM   18  C12 UNL     1      23.269   4.553  52.815  1.00  0.00     0.063 C 
BRANCH  17  19
HETATM   19  O1  UNL     1      23.725   2.233  52.396  1.00  0.00    -0.365 OA
BRANCH  19  20
HETATM   20  C13 UNL     1      24.320   1.201  52.775  1.00  0.00     0.189 C 
BRANCH  20  21
HETATM   21  C14 UNL     1      25.821   1.288  52.493  1.00  0.00     0.143 C 
BRANCH  21  22
HETATM   22  N4  UNL     1      26.627   1.463  53.670  1.00  0.00    -0.406 N 
HETATM   23  C15 UNL     1      27.767   2.308  53.412  1.00  0.00     0.143 C 
HETATM   24  C16 UNL     1      29.087   1.866  53.908  1.00  0.00     0.187 C 
HETATM   25  O2  UNL     1      28.989   1.219  55.142  1.00  0.00    -0.388 OA
HETATM   26  C17 UNL     1      28.269   0.062  54.888  1.00  0.00     0.187 C 
HETATM   27  C18 UNL     1      26.837   0.328  54.479  1.00  0.00     0.143 C 
ENDBRANCH  21  22
ENDBRANCH  20  21
ENDBRANCH  19  20
ENDBRANCH  17  19
ENDBRANCH   3  17
TORSDOF 9
ENDMDL
MODEL 9
REMARK VINA RESULT:      -6.5      4.165      9.106
REMARK  9 active torsions:
REMARK  status: ('A' for Active; 'I' for Inactive)
REMARK    1  A    between atoms: C3_4  and  C4_5 
REMARK    2  A    between atoms: C4_5  and  N1_6 
REMARK    3  A    between atoms: C7_9  and  C8_10 
REMARK    4  A    between atoms: N2_11  and  C9_12 
REMARK    5  A    between atoms: N3_14  and  C11_15 
REMARK    6  A    between atoms: C11_15  and  O1_17 
REMARK    7  A    between atoms: O1_17  and  C13_18 
REMARK    8  A    between atoms: C13_18  and  C14_19 
REMARK    9  A    between atoms: C14_19  and  N4_20 
ROOT
HETATM    1  C9  UNL     1      27.439   5.886  48.584  1.00  0.00     0.146 A 
HETATM    2  C10 UNL     1      28.757   5.493  48.290  1.00  0.00     0.146 A 
HETATM    3  N3  UNL     1      28.297   6.856  48.138  1.00  0.00    -0.310 N 
ENDROOT
BRANCH   1   4
HETATM    4  N2  UNL     1      26.601   4.913  49.024  1.00  0.00    -0.245 NA
HETATM    5  C8  UNL     1      25.528   4.889  49.604  1.00  0.00     0.106 C 
BRANCH   5   6
HETATM    6  C7  UNL     1      25.419   3.405  49.638  1.00  0.00     0.092 A 
HETATM    7  C6  UNL     1      26.391   2.785  50.531  1.00  0.00     0.007 A 
HETATM    8  C5  UNL     1      26.185   1.967  51.545  1.00  0.00     0.109 A 
HETATM    9  N1  UNL     1      24.836   1.622  51.827  1.00  0.00    -0.278 N 
HETATM   10  N5  UNL     1      23.779   2.152  51.035  1.00  0.00    -0.188 NA
HETATM   11  C19 UNL     1      24.041   2.953  50.053  1.00  0.00     0.125 A 
BRANCH   9  12
HETATM   12  C4  UNL     1      24.425   0.757  52.911  1.00  0.00     0.180 C 
BRANCH  12  13
HETATM   13  C3  UNL     1      23.031   0.267  52.722  1.00  0.00     0.032 C 
HETATM   14  C2  UNL     1      22.299  -0.511  53.501  1.00  0.00     0.088 C 
HETATM   15  C1  UNL     1      22.866  -1.015  54.773  1.00  0.00     0.082 C 
HETATM   16  F1  UNL     1      21.050  -0.784  53.053  1.00  0.00    -0.212 F 
ENDBRANCH  12  13
ENDBRANCH   9  12
ENDBRANCH   5   6
ENDBRANCH   1   4
BRANCH   3  17
HETATM   17  C11 UNL     1      28.778   8.229  47.680  1.00  0.00     0.225 C 
HETATM   18  C12 UNL     1      28.994   8.022  46.192  1.00  0.00     0.063 C 
BRANCH  17  19
HETATM   19  O1  UNL     1      29.740   8.572  48.407  1.00  0.00    -0.365 OA
BRANCH  19  20
HETATM   20  C13 UNL     1      30.598   8.989  49.215  1.00  0.00     0.189 C 
BRANCH  20  21
HETATM   21  C14 UNL     1      31.588   7.887  49.595  1.00  0.00     0.143 C 
BRANCH  21  22
HETATM   22  N4  UNL     1      32.230   7.265  48.470  1.00  0.00    -0.406 N 
HETATM   23  C15 UNL     1      32.648   5.918  48.774  1.00  0.00     0.143 C 
HETATM   24  C16 UNL     1      34.012   5.508  48.383  1.00  0.00     0.187 C 
HETATM   25  O2  UNL     1      34.400   6.080  47.169  1.00  0.00    -0.388 OA
HETATM   26  C17 UNL     1      34.466   7.442  47.415  1.00  0.00     0.187 C 
HETATM   27  C18 UNL     1      33.118   8.060  47.718  1.00  0.00     0.143 C 
ENDBRANCH  21  22
ENDBRANCH  20  21
ENDBRANCH  19  20
ENDBRANCH  17  19
ENDBRANCH   3  17
TORSDOF 9
ENDMDL
