MODEL 1
REMARK VINA RESULT:      -8.6      0.000      0.000
REMARK  7 active torsions:
REMARK  status: ('A' for Active; 'I' for Inactive)
REMARK    1  A    between atoms: O1_2  and  C2_3 
REMARK    2  A    between atoms: C5_6  and  C6_7 
REMARK    3  A    between atoms: C6_7  and  C7_8 
REMARK    4  A    between atoms: C7_8  and  C8_9 
REMARK    5  A    between atoms: C12_13  and  C13_14 
REMARK    6  A    between atoms: C13_14  and  C14_15 
REMARK    7  A    between atoms: C14_15  and  O2_16 
ROOT
HETATM    1  C2  UNL     1      20.728   0.249  51.853  1.00  0.00     0.075 A 
HETATM    2  C3  UNL     1      22.068   0.278  52.156  1.00  0.00     0.053 A 
HETATM    3  C4  UNL     1      22.524  -0.326  53.309  1.00  0.00     0.020 A 
HETATM    4  C5  UNL     1      23.896  -0.226  53.501  1.00  0.00     0.052 A 
HETATM    5  N1  UNL     1      24.400  -0.802  54.625  1.00  0.00    -0.245 NA
HETATM    6  C15 UNL     1      23.541  -1.432  55.477  1.00  0.00     0.234 A 
HETATM    7  N2  UNL     1      22.213  -1.530  55.291  1.00  0.00    -0.241 NA
HETATM    8  C16 UNL     1      21.665  -0.969  54.183  1.00  0.00     0.071 A 
HETATM    9  C17 UNL     1      20.318  -0.996  53.875  1.00  0.00     0.042 A 
HETATM   10  C18 UNL     1      19.852  -0.387  52.713  1.00  0.00    -0.026 A 
HETATM   11  C19 UNL     1      18.387  -0.512  52.541  1.00  0.00     0.051 C 
ENDROOT
BRANCH   4  12
HETATM   12  C6  UNL     1      24.790   0.471  52.540  1.00  0.00     0.088 C 
BRANCH  12  13
HETATM   13  C7  UNL     1      26.167  -0.058  52.673  1.00  0.00    -0.013 C 
BRANCH  13  14
HETATM   14  C8  UNL     1      27.282   0.609  52.890  1.00  0.00    -0.048 C 
HETATM   15  C9  UNL     1      27.523   2.068  52.714  1.00  0.00     0.040 C 
HETATM   16  C10 UNL     1      28.650   2.331  53.703  1.00  0.00     0.010 C 
HETATM   17  C11 UNL     1      29.469   1.058  53.745  1.00  0.00     0.048 C 
HETATM   18  C12 UNL     1      28.507   0.053  53.351  1.00  0.00    -0.009 C 
BRANCH  18  19
HETATM   19  C13 UNL     1      28.856  -1.192  53.455  1.00  0.00    -0.113 C 
BRANCH  19  20
HETATM   20  C14 UNL     1      29.187  -2.441  53.268  1.00  0.00     0.229 C 
BRANCH  20  21
HETATM   21  O2  UNL     1      28.218  -3.295  52.813  1.00  0.00    -0.380 OA
HETATM   22  H15 UNL     1      27.247  -3.088  53.052  1.00  0.00     0.211 HD
ENDBRANCH  20  21
ENDBRANCH  19  20
ENDBRANCH  18  19
ENDBRANCH  13  14
ENDBRANCH  12  13
ENDBRANCH   4  12
BRANCH   1  23
HETATM   23  O1  UNL     1      20.066   0.789  50.760  1.00  0.00    -0.355 OA
HETATM   24  C1  UNL     1      20.835   1.091  49.609  1.00  0.00     0.210 C 
ENDBRANCH   1  23
TORSDOF 7
ENDMDL
MODEL 2
REMARK VINA RESULT:      -8.4      1.463      2.288
REMARK  7 active torsions:
REMARK  status: ('A' for Active; 'I' for Inactive)
REMARK    1  A    between atoms: O1_2  and  C2_3 
REMARK    2  A    between atoms: C5_6  and  C6_7 
REMARK    3  A    between atoms: C6_7  and  C7_8 
REMARK    4  A    between atoms: C7_8  and  C8_9 
REMARK    5  A    between atoms: C12_13  and  C13_14 
REMARK    6  A    between atoms: C13_14  and  C14_15 
REMARK    7  A    between atoms: C14_15  and  O2_16 
ROOT
HETATM    1  C2  UNL     1      21.193   0.353  52.008  1.00  0.00     0.075 A 
HETATM    2  C3  UNL     1      22.529   0.380  52.330  1.00  0.00     0.053 A 
HETATM    3  C4  UNL     1      22.972  -0.246  53.475  1.00  0.00     0.020 A 
HETATM    4  C5  UNL     1      24.341  -0.145  53.688  1.00  0.00     0.052 A 
HETATM    5  N1  UNL     1      24.832  -0.743  54.806  1.00  0.00    -0.245 NA
HETATM    6  C15 UNL     1      23.964  -1.393  55.633  1.00  0.00     0.234 A 
HETATM    7  N2  UNL     1      22.638  -1.492  55.428  1.00  0.00    -0.241 NA
HETATM    8  C16 UNL     1      22.103  -0.910  54.325  1.00  0.00     0.071 A 
HETATM    9  C17 UNL     1      20.761  -0.934  53.998  1.00  0.00     0.042 A 
HETATM   10  C18 UNL     1      20.308  -0.303  52.843  1.00  0.00    -0.026 A 
HETATM   11  C19 UNL     1      18.846  -0.429  52.650  1.00  0.00     0.051 C 
ENDROOT
BRANCH   4  12
HETATM   12  C6  UNL     1      25.244   0.574  52.754  1.00  0.00     0.088 C 
BRANCH  12  13
HETATM   13  C7  UNL     1      26.224  -0.378  52.182  1.00  0.00    -0.013 C 
BRANCH  13  14
HETATM   14  C8  UNL     1      27.288  -0.901  52.758  1.00  0.00    -0.048 C 
HETATM   15  C9  UNL     1      27.565  -2.339  53.032  1.00  0.00     0.040 C 
HETATM   16  C10 UNL     1      29.087  -2.378  53.046  1.00  0.00     0.010 C 
HETATM   17  C11 UNL     1      29.531  -1.031  53.577  1.00  0.00     0.048 C 
HETATM   18  C12 UNL     1      28.413  -0.177  53.240  1.00  0.00    -0.009 C 
BRANCH  18  19
HETATM   19  C13 UNL     1      28.555   1.101  53.410  1.00  0.00    -0.113 C 
BRANCH  19  20
HETATM   20  C14 UNL     1      28.819   2.306  53.834  1.00  0.00     0.229 C 
BRANCH  20  21
HETATM   21  O2  UNL     1      29.780   2.446  54.800  1.00  0.00    -0.380 OA
HETATM   22  H15 UNL     1      30.757   2.457  54.504  1.00  0.00     0.211 HD
ENDBRANCH  20  21
ENDBRANCH  19  20
ENDBRANCH  18  19
ENDBRANCH  13  14
ENDBRANCH  12  13
ENDBRANCH   4  12
BRANCH   1  23
HETATM   23  O1  UNL     1      20.544   0.913  50.918  1.00  0.00    -0.355 OA
HETATM   24  C1  UNL     1      21.295   1.103  49.732  1.00  0.00     0.210 C 
ENDBRANCH   1  23
TORSDOF 7
ENDMDL
MODEL 3
REMARK VINA RESULT:      -8.1      4.227      6.064
REMARK  7 active torsions:
REMARK  status: ('A' for Active; 'I' for Inactive)
REMARK    1  A    between atoms: O1_2  and  C2_3 
REMARK    2  A    between atoms: C5_6  and  C6_7 
REMARK    3  A    between atoms: C6_7  and  C7_8 
REMARK    4  A    between atoms: C7_8  and  C8_9 
REMARK    5  A    between atoms: C12_13  and  C13_14 
REMARK    6  A    between atoms: C13_14  and  C14_15 
REMARK    7  A    between atoms: C14_15  and  O2_16 
ROOT
HETATM    1  C2  UNL     1      24.159  -0.171  53.376  1.00  0.00     0.075 A 
HETATM    2  C3  UNL     1      24.844   0.683  52.544  1.00  0.00     0.053 A 
HETATM    3  C4  UNL     1      26.088   1.150  52.912  1.00  0.00     0.020 A 
HETATM    4  C5  UNL     1      26.673   2.005  51.988  1.00  0.00     0.052 A 
HETATM    5  N1  UNL     1      27.901   2.498  52.301  1.00  0.00    -0.245 NA
HETATM    6  C15 UNL     1      28.470   2.126  53.484  1.00  0.00     0.234 A 
HETATM    7  N2  UNL     1      27.905   1.297  54.379  1.00  0.00    -0.241 NA
HETATM    8  C16 UNL     1      26.679   0.781  54.109  1.00  0.00     0.071 A 
HETATM    9  C17 UNL     1      25.987  -0.077  54.942  1.00  0.00     0.042 A 
HETATM   10  C18 UNL     1      24.731  -0.550  54.576  1.00  0.00    -0.026 A 
HETATM   11  C19 UNL     1      24.137  -1.457  55.584  1.00  0.00     0.051 C 
ENDROOT
BRANCH   4  12
HETATM   12  C6  UNL     1      26.010   2.378  50.712  1.00  0.00     0.088 C 
BRANCH  12  13
HETATM   13  C7  UNL     1      26.746   3.498  50.081  1.00  0.00    -0.013 C 
BRANCH  13  14
HETATM   14  C8  UNL     1      26.261   4.508  49.388  1.00  0.00    -0.048 C 
HETATM   15  C9  UNL     1      24.832   4.875  49.187  1.00  0.00     0.040 C 
HETATM   16  C10 UNL     1      24.915   6.375  48.938  1.00  0.00     0.010 C 
HETATM   17  C11 UNL     1      26.239   6.605  48.240  1.00  0.00     0.048 C 
HETATM   18  C12 UNL     1      27.027   5.476  48.681  1.00  0.00    -0.009 C 
BRANCH  18  19
HETATM   19  C13 UNL     1      28.292   5.470  48.391  1.00  0.00    -0.113 C 
BRANCH  19  20
HETATM   20  C14 UNL     1      29.571   5.698  48.275  1.00  0.00     0.229 C 
BRANCH  20  21
HETATM   21  O2  UNL     1      30.333   5.651  49.412  1.00  0.00    -0.380 OA
HETATM   22  H15 UNL     1      31.168   5.065  49.403  1.00  0.00     0.211 HD
ENDBRANCH  20  21
ENDBRANCH  19  20
ENDBRANCH  18  19
ENDBRANCH  13  14
ENDBRANCH  12  13
ENDBRANCH   4  12
BRANCH   1  23
HETATM   23  O1  UNL     1      22.911  -0.749  53.201  1.00  0.00    -0.355 OA
HETATM   24  C1  UNL     1      21.801   0.117  53.042  1.00  0.00     0.210 C 
ENDBRANCH   1  23
TORSDOF 7
ENDMDL
MODEL 4
REMARK VINA RESULT:      -8.0      2.550      3.836
REMARK  7 active torsions:
REMARK  status: ('A' for Active; 'I' for Inactive)
REMARK    1  A    between atoms: O1_2  and  C2_3 
REMARK    2  A    between atoms: C5_6  and  C6_7 
REMARK    3  A    between atoms: C6_7  and  C7_8 
REMARK    4  A    between atoms: C7_8  and  C8_9 
REMARK    5  A    between atoms: C12_13  and  C13_14 
REMARK    6  A    between atoms: C13_14  and  C14_15 
REMARK    7  A    between atoms: C14_15  and  O2_16 
ROOT
HETATM    1  C2  UNL     1      22.046  -0.437  53.816  1.00  0.00     0.075 A 
HETATM    2  C3  UNL     1      23.163   0.202  53.334  1.00  0.00     0.053 A 
HETATM    3  C4  UNL     1      23.079   0.957  52.183  1.00  0.00     0.020 A 
HETATM    4  C5  UNL     1      24.275   1.549  51.800  1.00  0.00     0.052 A 
HETATM    5  N1  UNL     1      24.250   2.305  50.670  1.00  0.00    -0.245 NA
HETATM    6  C15 UNL     1      23.071   2.431  49.996  1.00  0.00     0.234 A 
HETATM    7  N2  UNL     1      21.912   1.860  50.367  1.00  0.00    -0.241 NA
HETATM    8  C16 UNL     1      21.889   1.096  51.489  1.00  0.00     0.071 A 
HETATM    9  C17 UNL     1      20.769   0.452  51.977  1.00  0.00     0.042 A 
HETATM   10  C18 UNL     1      20.848  -0.313  53.137  1.00  0.00    -0.026 A 
HETATM   11  C19 UNL     1      19.556  -0.930  53.515  1.00  0.00     0.051 C 
ENDROOT
BRANCH   4  12
HETATM   12  C6  UNL     1      25.534   1.380  52.571  1.00  0.00     0.088 C 
BRANCH  12  13
HETATM   13  C7  UNL     1      26.354   0.314  51.952  1.00  0.00    -0.013 C 
BRANCH  13  14
HETATM   14  C8  UNL     1      27.143  -0.559  52.544  1.00  0.00    -0.048 C 
HETATM   15  C9  UNL     1      26.947  -2.031  52.670  1.00  0.00     0.040 C 
HETATM   16  C10 UNL     1      28.377  -2.537  52.799  1.00  0.00     0.010 C 
HETATM   17  C11 UNL     1      29.141  -1.444  53.516  1.00  0.00     0.048 C 
HETATM   18  C12 UNL     1      28.373  -0.262  53.194  1.00  0.00    -0.009 C 
BRANCH  18  19
HETATM   19  C13 UNL     1      28.870   0.891  53.522  1.00  0.00    -0.113 C 
BRANCH  19  20
HETATM   20  C14 UNL     1      29.100   2.101  53.950  1.00  0.00     0.229 C 
BRANCH  20  21
HETATM   21  O2  UNL     1      29.078   3.117  53.032  1.00  0.00    -0.380 OA
HETATM   22  H15 UNL     1      29.968   3.539  52.764  1.00  0.00     0.211 HD
ENDBRANCH  20  21
ENDBRANCH  19  20
ENDBRANCH  18  19
ENDBRANCH  13  14
ENDBRANCH  12  13
ENDBRANCH   4  12
BRANCH   1  23
HETATM   23  O1  UNL     1      21.913  -1.239  54.941  1.00  0.00    -0.355 OA
HETATM   24  C1  UNL     1      23.091  -1.567  55.657  1.00  0.00     0.210 C 
ENDBRANCH   1  23
TORSDOF 7
ENDMDL
MODEL 5
REMARK VINA RESULT:      -8.0      4.042      6.511
REMARK  7 active torsions:
REMARK  status: ('A' for Active; 'I' for Inactive)
REMARK    1  A    between atoms: O1_2  and  C2_3 
REMARK    2  A    between atoms: C5_6  and  C6_7 
REMARK    3  A    between atoms: C6_7  and  C7_8 
REMARK    4  A    between atoms: C7_8  and  C8_9 
REMARK    5  A    between atoms: C12_13  and  C13_14 
REMARK    6  A    between atoms: C13_14  and  C14_15 
REMARK    7  A    between atoms: C14_15  and  O2_16 
ROOT
HETATM    1  C2  UNL     1      26.060   0.240  53.946  1.00  0.00     0.075 A 
HETATM    2  C3  UNL     1      26.140   1.101  52.878  1.00  0.00     0.053 A 
HETATM    3  C4  UNL     1      25.011   1.382  52.138  1.00  0.00     0.020 A 
HETATM    4  C5  UNL     1      25.223   2.263  51.085  1.00  0.00     0.052 A 
HETATM    5  N1  UNL     1      24.143   2.573  50.320  1.00  0.00    -0.245 NA
HETATM    6  C15 UNL     1      22.940   2.009  50.630  1.00  0.00     0.234 A 
HETATM    7  N2  UNL     1      22.733   1.157  51.649  1.00  0.00    -0.241 NA
HETATM    8  C16 UNL     1      23.783   0.818  52.440  1.00  0.00     0.071 A 
HETATM    9  C17 UNL     1      23.708  -0.047  53.515  1.00  0.00     0.042 A 
HETATM   10  C18 UNL     1      24.844  -0.334  54.265  1.00  0.00    -0.026 A 
HETATM   11  C19 UNL     1      24.582  -1.277  55.376  1.00  0.00     0.051 C 
ENDROOT
BRANCH   4  12
HETATM   12  C6  UNL     1      26.555   2.851  50.790  1.00  0.00     0.088 C 
BRANCH  12  13
HETATM   13  C7  UNL     1      26.515   3.530  49.475  1.00  0.00    -0.013 C 
BRANCH  13  14
HETATM   14  C8  UNL     1      26.934   4.741  49.167  1.00  0.00    -0.048 C 
HETATM   15  C9  UNL     1      28.210   5.125  48.501  1.00  0.00     0.040 C 
HETATM   16  C10 UNL     1      27.842   6.443  47.833  1.00  0.00     0.010 C 
HETATM   17  C11 UNL     1      26.810   7.089  48.733  1.00  0.00     0.048 C 
HETATM   18  C12 UNL     1      26.229   5.952  49.412  1.00  0.00    -0.009 C 
BRANCH  18  19
HETATM   19  C13 UNL     1      25.175   6.156  50.140  1.00  0.00    -0.113 C 
BRANCH  19  20
HETATM   20  C14 UNL     1      24.201   6.116  51.007  1.00  0.00     0.229 C 
BRANCH  20  21
HETATM   21  O2  UNL     1      24.364   6.803  52.181  1.00  0.00    -0.380 OA
HETATM   22  H15 UNL     1      23.849   7.676  52.299  1.00  0.00     0.211 HD
ENDBRANCH  20  21
ENDBRANCH  19  20
ENDBRANCH  18  19
ENDBRANCH  13  14
ENDBRANCH  12  13
ENDBRANCH   4  12
BRANCH   1  23
HETATM   23  O1  UNL     1      27.062  -0.175  54.811  1.00  0.00    -0.355 OA
HETATM   24  C1  UNL     1      28.404  -0.028  54.382  1.00  0.00     0.210 C 
ENDBRANCH   1  23
TORSDOF 7
ENDMDL
MODEL 6
REMARK VINA RESULT:      -7.9      1.978      2.533
REMARK  7 active torsions:
REMARK  status: ('A' for Active; 'I' for Inactive)
REMARK    1  A    between atoms: O1_2  and  C2_3 
REMARK    2  A    between atoms: C5_6  and  C6_7 
REMARK    3  A    between atoms: C6_7  and  C7_8 
REMARK    4  A    between atoms: C7_8  and  C8_9 
REMARK    5  A    between atoms: C12_13  and  C13_14 
REMARK    6  A    between atoms: C13_14  and  C14_15 
REMARK    7  A    between atoms: C14_15  and  O2_16 
ROOT
HETATM    1  C2  UNL     1      20.266   0.504  51.511  1.00  0.00     0.075 A 
HETATM    2  C3  UNL     1      21.573   0.469  51.935  1.00  0.00     0.053 A 
HETATM    3  C4  UNL     1      21.904  -0.220  53.083  1.00  0.00     0.020 A 
HETATM    4  C5  UNL     1      23.254  -0.178  53.405  1.00  0.00     0.052 A 
HETATM    5  N1  UNL     1      23.636  -0.840  54.529  1.00  0.00    -0.245 NA
HETATM    6  C15 UNL     1      22.684  -1.491  55.258  1.00  0.00     0.234 A 
HETATM    7  N2  UNL     1      21.377  -1.534  54.946  1.00  0.00    -0.241 NA
HETATM    8  C16 UNL     1      20.949  -0.887  53.832  1.00  0.00     0.071 A 
HETATM    9  C17 UNL     1      19.637  -0.849  53.402  1.00  0.00     0.042 A 
HETATM   10  C18 UNL     1      19.298  -0.154  52.245  1.00  0.00    -0.026 A 
HETATM   11  C19 UNL     1      17.851  -0.219  51.934  1.00  0.00     0.051 C 
ENDROOT
BRANCH   4  12
HETATM   12  C6  UNL     1      24.252   0.546  52.576  1.00  0.00     0.088 C 
BRANCH  12  13
HETATM   13  C7  UNL     1      25.604   0.004  52.843  1.00  0.00    -0.013 C 
BRANCH  13  14
HETATM   14  C8  UNL     1      26.641   0.618  53.375  1.00  0.00    -0.048 C 
HETATM   15  C9  UNL     1      27.305   0.330  54.677  1.00  0.00     0.040 C 
HETATM   16  C10 UNL     1      28.723   0.827  54.434  1.00  0.00     0.010 C 
HETATM   17  C11 UNL     1      28.594   1.993  53.476  1.00  0.00     0.048 C 
HETATM   18  C12 UNL     1      27.354   1.703  52.793  1.00  0.00    -0.009 C 
BRANCH  18  19
HETATM   19  C13 UNL     1      27.040   2.436  51.769  1.00  0.00    -0.113 C 
BRANCH  19  20
HETATM   20  C14 UNL     1      26.558   2.945  50.669  1.00  0.00     0.229 C 
BRANCH  20  21
HETATM   21  O2  UNL     1      27.235   3.990  50.100  1.00  0.00    -0.380 OA
HETATM   22  H15 UNL     1      28.091   3.781  49.585  1.00  0.00     0.211 HD
ENDBRANCH  20  21
ENDBRANCH  19  20
ENDBRANCH  18  19
ENDBRANCH  13  14
ENDBRANCH  12  13
ENDBRANCH   4  12
BRANCH   1  23
HETATM   23  O1  UNL     1      19.724   1.133  50.399  1.00  0.00    -0.355 OA
HETATM   24  C1  UNL     1      20.551   1.281  49.259  1.00  0.00     0.210 C 
ENDBRANCH   1  23
TORSDOF 7
ENDMDL
MODEL 7
REMARK VINA RESULT:      -7.8      2.247      3.209
REMARK  7 active torsions:
REMARK  status: ('A' for Active; 'I' for Inactive)
REMARK    1  A    between atoms: O1_2  and  C2_3 
REMARK    2  A    between atoms: C5_6  and  C6_7 
REMARK    3  A    between atoms: C6_7  and  C7_8 
REMARK    4  A    between atoms: C7_8  and  C8_9 
REMARK    5  A    between atoms: C12_13  and  C13_14 
REMARK    6  A    between atoms: C13_14  and  C14_15 
REMARK    7  A    between atoms: C14_15  and  O2_16 
ROOT
HETATM    1  C2  UNL     1      21.241   0.205  53.032  1.00  0.00     0.075 A 
HETATM    2  C3  UNL     1      22.483   0.777  52.889  1.00  0.00     0.053 A 
HETATM    3  C4  UNL     1      22.779   1.498  51.752  1.00  0.00     0.020 A 
HETATM    4  C5  UNL     1      24.066   2.022  51.727  1.00  0.00     0.052 A 
HETATM    5  N1  UNL     1      24.413   2.741  50.626  1.00  0.00    -0.245 NA
HETATM    6  C15 UNL     1      23.491   2.899  49.634  1.00  0.00     0.234 A 
HETATM    7  N2  UNL     1      22.245   2.394  49.657  1.00  0.00    -0.241 NA
HETATM    8  C16 UNL     1      21.854   1.669  50.736  1.00  0.00     0.071 A 
HETATM    9  C17 UNL     1      20.607   1.092  50.884  1.00  0.00     0.042 A 
HETATM   10  C18 UNL     1      20.303   0.363  52.029  1.00  0.00    -0.026 A 
HETATM   11  C19 UNL     1      18.926  -0.182  52.020  1.00  0.00     0.051 C 
ENDROOT
BRANCH   4  12
HETATM   12  C6  UNL     1      25.032   1.820  52.837  1.00  0.00     0.088 C 
BRANCH  12  13
HETATM   13  C7  UNL     1      26.244   1.142  52.320  1.00  0.00    -0.013 C 
BRANCH  13  14
HETATM   14  C8  UNL     1      27.434   1.056  52.879  1.00  0.00    -0.048 C 
HETATM   15  C9  UNL     1      28.356   2.169  53.240  1.00  0.00     0.040 C 
HETATM   16  C10 UNL     1      29.161   1.564  54.383  1.00  0.00     0.010 C 
HETATM   17  C11 UNL     1      29.256   0.083  54.083  1.00  0.00     0.048 C 
HETATM   18  C12 UNL     1      28.088  -0.147  53.262  1.00  0.00    -0.009 C 
BRANCH  18  19
HETATM   19  C13 UNL     1      27.781  -1.375  52.976  1.00  0.00    -0.113 C 
BRANCH  19  20
HETATM   20  C14 UNL     1      27.763  -2.647  52.686  1.00  0.00     0.229 C 
BRANCH  20  21
HETATM   21  O2  UNL     1      28.571  -3.478  53.415  1.00  0.00    -0.380 OA
HETATM   22  H15 UNL     1      28.266  -3.739  54.354  1.00  0.00     0.211 HD
ENDBRANCH  20  21
ENDBRANCH  19  20
ENDBRANCH  18  19
ENDBRANCH  13  14
ENDBRANCH  12  13
ENDBRANCH   4  12
BRANCH   1  23
HETATM   23  O1  UNL     1      20.743  -0.552  54.082  1.00  0.00    -0.355 OA
HETATM   24  C1  UNL     1      21.553  -1.603  54.577  1.00  0.00     0.210 C 
ENDBRANCH   1  23
TORSDOF 7
ENDMDL
MODEL 8
REMARK VINA RESULT:      -7.8      2.745      4.037
REMARK  7 active torsions:
REMARK  status: ('A' for Active; 'I' for Inactive)
REMARK    1  A    between atoms: O1_2  and  C2_3 
REMARK    2  A    between atoms: C5_6  and  C6_7 
REMARK    3  A    between atoms: C6_7  and  C7_8 
REMARK    4  A    between atoms: C7_8  and  C8_9 
REMARK    5  A    between atoms: C12_13  and  C13_14 
REMARK    6  A    between atoms: C13_14  and  C14_15 
REMARK    7  A    between atoms: C14_15  and  O2_16 
ROOT
HETATM    1  C2  UNL     1      21.388   1.661  52.729  1.00  0.00     0.075 A 
HETATM    2  C3  UNL     1      22.718   1.315  52.708  1.00  0.00     0.053 A 
HETATM    3  C4  UNL     1      23.614   2.080  51.992  1.00  0.00     0.020 A 
HETATM    4  C5  UNL     1      24.925   1.625  52.048  1.00  0.00     0.052 A 
HETATM    5  N1  UNL     1      25.852   2.341  51.358  1.00  0.00    -0.245 NA
HETATM    6  C15 UNL     1      25.442   3.443  50.667  1.00  0.00     0.234 A 
HETATM    7  N2  UNL     1      24.173   3.886  50.612  1.00  0.00    -0.241 NA
HETATM    8  C16 UNL     1      23.214   3.202  51.286  1.00  0.00     0.071 A 
HETATM    9  C17 UNL     1      21.876   3.546  51.311  1.00  0.00     0.042 A 
HETATM   10  C18 UNL     1      20.966   2.777  52.030  1.00  0.00    -0.026 A 
HETATM   11  C19 UNL     1      19.580   3.290  51.947  1.00  0.00     0.051 C 
ENDROOT
BRANCH   4  12
HETATM   12  C6  UNL     1      25.320   0.417  52.818  1.00  0.00     0.088 C 
BRANCH  12  13
HETATM   13  C7  UNL     1      26.538  -0.175  52.219  1.00  0.00    -0.013 C 
BRANCH  13  14
HETATM   14  C8  UNL     1      27.516  -0.820  52.822  1.00  0.00    -0.048 C 
HETATM   15  C9  UNL     1      27.640  -2.287  53.048  1.00  0.00     0.040 C 
HETATM   16  C10 UNL     1      29.149  -2.475  53.133  1.00  0.00     0.010 C 
HETATM   17  C11 UNL     1      29.691  -1.198  53.741  1.00  0.00     0.048 C 
HETATM   18  C12 UNL     1      28.679  -0.228  53.387  1.00  0.00    -0.009 C 
BRANCH  18  19
HETATM   19  C13 UNL     1      28.933   1.024  53.617  1.00  0.00    -0.113 C 
BRANCH  19  20
HETATM   20  C14 UNL     1      28.918   2.283  53.958  1.00  0.00     0.229 C 
BRANCH  20  21
HETATM   21  O2  UNL     1      27.723   2.948  53.885  1.00  0.00    -0.380 OA
HETATM   22  H15 UNL     1      27.207   3.102  54.752  1.00  0.00     0.211 HD
ENDBRANCH  20  21
ENDBRANCH  19  20
ENDBRANCH  18  19
ENDBRANCH  13  14
ENDBRANCH  12  13
ENDBRANCH   4  12
BRANCH   1  23
HETATM   23  O1  UNL     1      20.331   1.036  53.376  1.00  0.00    -0.355 OA
HETATM   24  C1  UNL     1      20.087  -0.326  53.072  1.00  0.00     0.210 C 
ENDBRANCH   1  23
TORSDOF 7
ENDMDL
MODEL 9
REMARK VINA RESULT:      -7.5      2.856      6.456
REMARK  7 active torsions:
REMARK  status: ('A' for Active; 'I' for Inactive)
REMARK    1  A    between atoms: O1_2  and  C2_3 
REMARK    2  A    between atoms: C5_6  and  C6_7 
REMARK    3  A    between atoms: C6_7  and  C7_8 
REMARK    4  A    between atoms: C7_8  and  C8_9 
REMARK    5  A    between atoms: C12_13  and  C13_14 
REMARK    6  A    between atoms: C13_14  and  C14_15 
REMARK    7  A    between atoms: C14_15  and  O2_16 
ROOT
HETATM    1  C2  UNL     1      26.794   1.197  52.791  1.00  0.00     0.075 A 
HETATM    2  C3  UNL     1      25.538   1.753  52.757  1.00  0.00     0.053 A 
HETATM    3  C4  UNL     1      24.437   0.980  53.059  1.00  0.00     0.020 A 
HETATM    4  C5  UNL     1      23.227   1.658  52.987  1.00  0.00     0.052 A 
HETATM    5  N1  UNL     1      22.106   0.942  53.273  1.00  0.00    -0.245 NA
HETATM    6  C15 UNL     1      22.241  -0.374  53.607  1.00  0.00     0.234 A 
HETATM    7  N2  UNL     1      23.412  -1.031  53.678  1.00  0.00    -0.241 NA
HETATM    8  C16 UNL     1      24.557  -0.356  53.400  1.00  0.00     0.071 A 
HETATM    9  C17 UNL     1      25.822  -0.911  53.433  1.00  0.00     0.042 A 
HETATM   10  C18 UNL     1      26.936  -0.136  53.128  1.00  0.00    -0.026 A 
HETATM   11  C19 UNL     1      28.208  -0.890  53.213  1.00  0.00     0.051 C 
ENDROOT
BRANCH   4  12
HETATM   12  C6  UNL     1      23.135   3.094  52.619  1.00  0.00     0.088 C 
BRANCH  12  13
HETATM   13  C7  UNL     1      22.252   3.247  51.439  1.00  0.00    -0.013 C 
BRANCH  13  14
HETATM   14  C8  UNL     1      22.372   2.692  50.250  1.00  0.00    -0.048 C 
HETATM   15  C9  UNL     1      21.644   1.508  49.716  1.00  0.00     0.040 C 
HETATM   16  C10 UNL     1      21.671   1.762  48.215  1.00  0.00     0.010 C 
HETATM   17  C11 UNL     1      22.966   2.496  47.943  1.00  0.00     0.048 C 
HETATM   18  C12 UNL     1      23.241   3.130  49.213  1.00  0.00    -0.009 C 
BRANCH  18  19
HETATM   19  C13 UNL     1      24.212   3.989  49.263  1.00  0.00    -0.113 C 
BRANCH  19  20
HETATM   20  C14 UNL     1      25.346   4.621  49.393  1.00  0.00     0.229 C 
BRANCH  20  21
HETATM   21  O2  UNL     1      26.107   4.343  50.498  1.00  0.00    -0.380 OA
HETATM   22  H15 UNL     1      26.860   3.661  50.399  1.00  0.00     0.211 HD
ENDBRANCH  20  21
ENDBRANCH  19  20
ENDBRANCH  18  19
ENDBRANCH  13  14
ENDBRANCH  12  13
ENDBRANCH   4  12
BRANCH   1  23
HETATM   23  O1  UNL     1      28.020   1.789  52.524  1.00  0.00    -0.355 OA
HETATM   24  C1  UNL     1      28.636   2.525  53.566  1.00  0.00     0.210 C 
ENDBRANCH   1  23
TORSDOF 7
ENDMDL
