MODEL 1
REMARK VINA RESULT:      -8.5      0.000      0.000
REMARK  2 active torsions:
REMARK  status: ('A' for Active; 'I' for Inactive)
REMARK       I    between atoms: N1_1  and  C1_2 
REMARK       I    between atoms: C1_2  and  N2_3 
REMARK       I    between atoms: C1_2  and  N4_10 
REMARK    1  A    between atoms: N2_3  and  C2_4 
REMARK    2  A    between atoms: N4_10  and  C7_11 
ROOT
HETATM    1  C7  UNL     1      23.222   1.618  51.781  1.00  0.00     0.042 A 
HETATM    2  C8  UNL     1      22.013   0.937  51.662  1.00  0.00     0.030 A 
HETATM    3  C9  UNL     1      21.769  -0.220  52.402  1.00  0.00     0.003 A 
HETATM    4  C10 UNL     1      22.725  -0.729  53.281  1.00  0.00     0.018 A 
HETATM    5  C11 UNL     1      23.929  -0.066  53.410  1.00  0.00     0.044 A 
HETATM    6  C12 UNL     1      24.143   1.087  52.658  1.00  0.00     0.036 A 
HETATM    7  C13 UNL     1      25.478   1.584  52.987  1.00  0.00     0.361 A 
HETATM    8  N5  UNL     1      26.451   1.461  51.919  1.00  0.00     0.112 N 
HETATM    9  C14 UNL     1      27.689   1.684  52.683  1.00  0.00     0.292 C 
HETATM   10  C15 UNL     1      27.340   1.310  54.124  1.00  0.00     0.158 C 
HETATM   11  N6  UNL     1      26.051   0.665  53.954  1.00  0.00    -0.312 N 
HETATM   12  C16 UNL     1      25.100  -0.355  54.229  1.00  0.00     0.256 A 
HETATM   13  O1  UNL     1      25.325  -1.273  55.032  1.00  0.00    -0.267 OA
HETATM   14  H14 UNL     1      26.481   0.444  51.641  1.00  0.00     0.319 HD
ENDROOT
BRANCH   1  15
HETATM   15  N4  UNL     1      23.501   2.799  51.042  1.00  0.00    -0.344 N 
HETATM   16  C1  UNL     1      23.603   4.059  51.700  1.00  0.00     0.423 C 
HETATM   17  N1  UNL     1      22.327   4.343  52.353  1.00  0.00     0.120 N 
HETATM   18  N2  UNL     1      23.935   5.153  50.850  1.00  0.00    -0.330 N 
HETATM   19  H1  UNL     1      21.613   3.596  52.120  1.00  0.00     0.317 HD
HETATM   20  H2  UNL     1      21.975   5.284  52.093  1.00  0.00     0.317 HD
HETATM   21  H4  UNL     1      23.303   6.003  50.758  1.00  0.00     0.165 HD
HETATM   22  H9  UNL     1      23.628   2.732  50.030  1.00  0.00     0.163 HD
BRANCH  18  23
HETATM   23  C2  UNL     1      25.120   5.158  50.088  1.00  0.00     0.126 A 
HETATM   24  C3  UNL     1      25.539   6.268  49.395  1.00  0.00     0.050 A 
HETATM   25  C4  UNL     1      26.687   6.303  48.644  1.00  0.00     0.005 A 
HETATM   26  C5  UNL     1      27.487   5.164  48.565  1.00  0.00     0.019 A 
HETATM   27  C6  UNL     1      27.065   4.060  49.258  1.00  0.00     0.119 A 
HETATM   28  N3  UNL     1      25.928   4.087  49.978  1.00  0.00    -0.244 NA
ENDBRANCH  18  23
ENDBRANCH   1  15
TORSDOF 2
ENDMDL
MODEL 2
REMARK VINA RESULT:      -8.5      3.037      4.806
REMARK  2 active torsions:
REMARK  status: ('A' for Active; 'I' for Inactive)
REMARK       I    between atoms: N1_1  and  C1_2 
REMARK       I    between atoms: C1_2  and  N2_3 
REMARK       I    between atoms: C1_2  and  N4_10 
REMARK    1  A    between atoms: N2_3  and  C2_4 
REMARK    2  A    between atoms: N4_10  and  C7_11 
ROOT
HETATM    1  C7  UNL     1      23.398   1.739  51.195  1.00  0.00     0.042 A 
HETATM    2  C8  UNL     1      22.988   2.167  49.935  1.00  0.00     0.030 A 
HETATM    3  C9  UNL     1      21.700   1.896  49.473  1.00  0.00     0.003 A 
HETATM    4  C10 UNL     1      20.786   1.191  50.256  1.00  0.00     0.018 A 
HETATM    5  C11 UNL     1      21.177   0.760  51.507  1.00  0.00     0.044 A 
HETATM    6  C12 UNL     1      22.469   1.046  51.942  1.00  0.00     0.036 A 
HETATM    7  C13 UNL     1      22.615   0.486  53.284  1.00  0.00     0.361 A 
HETATM    8  N5  UNL     1      23.510  -0.651  53.374  1.00  0.00     0.112 N 
HETATM    9  C14 UNL     1      23.135  -1.159  54.703  1.00  0.00     0.292 C 
HETATM   10  C15 UNL     1      21.713  -0.648  54.938  1.00  0.00     0.158 C 
HETATM   11  N6  UNL     1      21.358  -0.157  53.619  1.00  0.00    -0.312 N 
HETATM   12  C16 UNL     1      20.458   0.011  52.531  1.00  0.00     0.256 A 
HETATM   13  O1  UNL     1      19.301  -0.436  52.552  1.00  0.00    -0.267 OA
HETATM   14  H14 UNL     1      23.158  -1.378  52.695  1.00  0.00     0.319 HD
ENDROOT
BRANCH   1  15
HETATM   15  N4  UNL     1      24.702   1.999  51.695  1.00  0.00    -0.344 N 
HETATM   16  C1  UNL     1      24.881   2.611  52.971  1.00  0.00     0.423 C 
HETATM   17  N1  UNL     1      24.242   3.925  52.946  1.00  0.00     0.120 N 
HETATM   18  N2  UNL     1      26.237   2.770  53.373  1.00  0.00    -0.330 N 
HETATM   19  H1  UNL     1      23.873   4.143  51.978  1.00  0.00     0.317 HD
HETATM   20  H2  UNL     1      24.895   4.664  53.267  1.00  0.00     0.317 HD
HETATM   21  H4  UNL     1      26.647   3.725  53.600  1.00  0.00     0.165 HD
HETATM   22  H9  UNL     1      25.511   1.742  51.128  1.00  0.00     0.163 HD
BRANCH  18  23
HETATM   23  C2  UNL     1      27.104   1.665  53.488  1.00  0.00     0.126 A 
HETATM   24  C3  UNL     1      28.446   1.811  53.750  1.00  0.00     0.050 A 
HETATM   25  C4  UNL     1      29.314   0.755  53.866  1.00  0.00     0.005 A 
HETATM   26  C5  UNL     1      28.833  -0.545  53.714  1.00  0.00     0.019 A 
HETATM   27  C6  UNL     1      27.495  -0.685  53.453  1.00  0.00     0.119 A 
HETATM   28  N3  UNL     1      26.694   0.390  53.350  1.00  0.00    -0.244 NA
ENDBRANCH  18  23
ENDBRANCH   1  15
TORSDOF 2
ENDMDL
MODEL 3
REMARK VINA RESULT:      -8.3      3.037      5.339
REMARK  2 active torsions:
REMARK  status: ('A' for Active; 'I' for Inactive)
REMARK       I    between atoms: N1_1  and  C1_2 
REMARK       I    between atoms: C1_2  and  N2_3 
REMARK       I    between atoms: C1_2  and  N4_10 
REMARK    1  A    between atoms: N2_3  and  C2_4 
REMARK    2  A    between atoms: N4_10  and  C7_11 
ROOT
HETATM    1  C7  UNL     1      23.224   0.880  52.471  1.00  0.00     0.042 A 
HETATM    2  C8  UNL     1      22.639   0.315  53.602  1.00  0.00     0.030 A 
HETATM    3  C9  UNL     1      21.280  -0.002  53.620  1.00  0.00     0.003 A 
HETATM    4  C10 UNL     1      20.469   0.236  52.512  1.00  0.00     0.018 A 
HETATM    5  C11 UNL     1      21.033   0.796  51.383  1.00  0.00     0.044 A 
HETATM    6  C12 UNL     1      22.392   1.101  51.394  1.00  0.00     0.036 A 
HETATM    7  C13 UNL     1      22.724   1.670  50.089  1.00  0.00     0.361 A 
HETATM    8  N5  UNL     1      23.047   3.084  50.108  1.00  0.00     0.112 N 
HETATM    9  C14 UNL     1      22.953   3.380  48.669  1.00  0.00     0.292 C 
HETATM   10  C15 UNL     1      22.031   2.302  48.101  1.00  0.00     0.158 C 
HETATM   11  N6  UNL     1      21.499   1.704  49.311  1.00  0.00    -0.312 N 
HETATM   12  C16 UNL     1      20.448   1.159  50.099  1.00  0.00     0.256 A 
HETATM   13  O1  UNL     1      19.286   1.058  49.674  1.00  0.00    -0.267 OA
HETATM   14  H14 UNL     1      22.227   3.584  50.543  1.00  0.00     0.319 HD
ENDROOT
BRANCH   1  15
HETATM   15  N4  UNL     1      24.603   1.214  52.419  1.00  0.00    -0.344 N 
HETATM   16  C1  UNL     1      25.171   2.106  53.376  1.00  0.00     0.423 C 
HETATM   17  N1  UNL     1      24.490   3.394  53.265  1.00  0.00     0.120 N 
HETATM   18  N2  UNL     1      26.572   2.316  53.241  1.00  0.00    -0.330 N 
HETATM   19  H1  UNL     1      23.803   3.386  52.458  1.00  0.00     0.317 HD
HETATM   20  H2  UNL     1      25.172   4.170  53.161  1.00  0.00     0.317 HD
HETATM   21  H4  UNL     1      26.981   3.286  53.084  1.00  0.00     0.165 HD
HETATM   22  H9  UNL     1      25.186   0.804  51.686  1.00  0.00     0.163 HD
BRANCH  18  23
HETATM   23  C2  UNL     1      27.486   1.246  53.307  1.00  0.00     0.126 A 
HETATM   24  C3  UNL     1      28.813   1.434  53.613  1.00  0.00     0.050 A 
HETATM   25  C4  UNL     1      29.726   0.412  53.685  1.00  0.00     0.005 A 
HETATM   26  C5  UNL     1      29.309  -0.895  53.437  1.00  0.00     0.019 A 
HETATM   27  C6  UNL     1      27.985  -1.077  53.131  1.00  0.00     0.119 A 
HETATM   28  N3  UNL     1      27.137  -0.034  53.076  1.00  0.00    -0.244 NA
ENDBRANCH  18  23
ENDBRANCH   1  15
TORSDOF 2
ENDMDL
MODEL 4
REMARK VINA RESULT:      -8.3      7.020      9.608
REMARK  2 active torsions:
REMARK  status: ('A' for Active; 'I' for Inactive)
REMARK       I    between atoms: N1_1  and  C1_2 
REMARK       I    between atoms: C1_2  and  N2_3 
REMARK       I    between atoms: C1_2  and  N4_10 
REMARK    1  A    between atoms: N2_3  and  C2_4 
REMARK    2  A    between atoms: N4_10  and  C7_11 
ROOT
HETATM    1  C7  UNL     1      29.735   6.303  48.330  1.00  0.00     0.042 A 
HETATM    2  C8  UNL     1      28.912   5.180  48.359  1.00  0.00     0.030 A 
HETATM    3  C9  UNL     1      27.527   5.313  48.459  1.00  0.00     0.003 A 
HETATM    4  C10 UNL     1      26.926   6.569  48.533  1.00  0.00     0.018 A 
HETATM    5  C11 UNL     1      27.728   7.692  48.506  1.00  0.00     0.044 A 
HETATM    6  C12 UNL     1      29.108   7.529  48.405  1.00  0.00     0.036 A 
HETATM    7  C13 UNL     1      29.708   8.861  48.392  1.00  0.00     0.361 A 
HETATM    8  N5  UNL     1      30.466   9.196  49.582  1.00  0.00     0.112 N 
HETATM    9  C14 UNL     1      30.587  10.652  49.398  1.00  0.00     0.292 C 
HETATM   10  C15 UNL     1      29.415  11.038  48.496  1.00  0.00     0.158 C 
HETATM   11  N6  UNL     1      28.625   9.820  48.506  1.00  0.00    -0.312 N 
HETATM   12  C16 UNL     1      27.395   9.110  48.571  1.00  0.00     0.256 A 
HETATM   13  O1  UNL     1      26.300   9.686  48.664  1.00  0.00    -0.267 OA
HETATM   14  H14 UNL     1      29.819   9.079  50.406  1.00  0.00     0.319 HD
ENDROOT
BRANCH   1  15
HETATM   15  N4  UNL     1      31.149   6.203  48.228  1.00  0.00    -0.344 N 
HETATM   16  C1  UNL     1      31.884   5.374  49.125  1.00  0.00     0.423 C 
HETATM   17  N1  UNL     1      31.660   5.856  50.486  1.00  0.00     0.120 N 
HETATM   18  N2  UNL     1      33.286   5.325  48.882  1.00  0.00    -0.330 N 
HETATM   19  H1  UNL     1      31.080   6.742  50.478  1.00  0.00     0.317 HD
HETATM   20  H2  UNL     1      32.560   6.009  50.981  1.00  0.00     0.317 HD
HETATM   21  H4  UNL     1      33.994   5.612  49.622  1.00  0.00     0.165 HD
HETATM   22  H9  UNL     1      31.632   6.734  47.501  1.00  0.00     0.163 HD
BRANCH  18  23
HETATM   23  C2  UNL     1      33.802   4.895  47.643  1.00  0.00     0.126 A 
HETATM   24  C3  UNL     1      34.557   3.752  47.523  1.00  0.00     0.050 A 
HETATM   25  C4  UNL     1      35.074   3.308  46.332  1.00  0.00     0.005 A 
HETATM   26  C5  UNL     1      34.835   4.038  45.168  1.00  0.00     0.019 A 
HETATM   27  C6  UNL     1      34.082   5.177  45.294  1.00  0.00     0.119 A 
HETATM   28  N3  UNL     1      33.602   5.561  46.491  1.00  0.00    -0.244 NA
ENDBRANCH  18  23
ENDBRANCH   1  15
TORSDOF 2
ENDMDL
MODEL 5
REMARK VINA RESULT:      -7.9      2.823      6.445
REMARK  2 active torsions:
REMARK  status: ('A' for Active; 'I' for Inactive)
REMARK       I    between atoms: N1_1  and  C1_2 
REMARK       I    between atoms: C1_2  and  N2_3 
REMARK       I    between atoms: C1_2  and  N4_10 
REMARK    1  A    between atoms: N2_3  and  C2_4 
REMARK    2  A    between atoms: N4_10  and  C7_11 
ROOT
HETATM    1  C7  UNL     1      24.460  -0.555  52.986  1.00  0.00     0.042 A 
HETATM    2  C8  UNL     1      25.543  -1.357  53.336  1.00  0.00     0.030 A 
HETATM    3  C9  UNL     1      26.851  -0.939  53.086  1.00  0.00     0.003 A 
HETATM    4  C10 UNL     1      27.113   0.290  52.480  1.00  0.00     0.018 A 
HETATM    5  C11 UNL     1      26.050   1.096  52.127  1.00  0.00     0.044 A 
HETATM    6  C12 UNL     1      24.755   0.653  52.390  1.00  0.00     0.036 A 
HETATM    7  C13 UNL     1      23.834   1.689  51.926  1.00  0.00     0.361 A 
HETATM    8  N5  UNL     1      23.049   1.325  50.762  1.00  0.00     0.112 N 
HETATM    9  C14 UNL     1      22.555   2.656  50.370  1.00  0.00     0.292 C 
HETATM   10  C15 UNL     1      23.563   3.643  50.957  1.00  0.00     0.158 C 
HETATM   11  N6  UNL     1      24.638   2.757  51.363  1.00  0.00    -0.312 N 
HETATM   12  C16 UNL     1      26.011   2.405  51.488  1.00  0.00     0.256 A 
HETATM   13  O1  UNL     1      26.924   3.147  51.093  1.00  0.00    -0.267 OA
HETATM   14  H14 UNL     1      23.729   1.053  50.002  1.00  0.00     0.319 HD
ENDROOT
BRANCH   1  15
HETATM   15  N4  UNL     1      23.117  -0.950  53.227  1.00  0.00    -0.344 N 
HETATM   16  C1  UNL     1      22.454  -0.572  54.431  1.00  0.00     0.423 C 
HETATM   17  N1  UNL     1      23.196  -1.129  55.560  1.00  0.00     0.120 N 
HETATM   18  N2  UNL     1      21.097  -0.992  54.525  1.00  0.00    -0.330 N 
HETATM   19  H1  UNL     1      23.992  -1.740  55.220  1.00  0.00     0.317 HD
HETATM   20  H2  UNL     1      22.569  -1.659  56.195  1.00  0.00     0.317 HD
HETATM   21  H4  UNL     1      20.755  -1.613  55.318  1.00  0.00     0.165 HD
HETATM   22  H9  UNL     1      22.631  -1.511  52.524  1.00  0.00     0.163 HD
BRANCH  18  23
HETATM   23  C2  UNL     1      20.140  -0.603  53.566  1.00  0.00     0.126 A 
HETATM   24  C3  UNL     1      18.900  -1.191  53.491  1.00  0.00     0.050 A 
HETATM   25  C4  UNL     1      17.948  -0.835  52.568  1.00  0.00     0.005 A 
HETATM   26  C5  UNL     1      18.232   0.173  51.648  1.00  0.00     0.019 A 
HETATM   27  C6  UNL     1      19.471   0.755  51.727  1.00  0.00     0.119 A 
HETATM   28  N3  UNL     1      20.362   0.362  52.654  1.00  0.00    -0.244 NA
ENDBRANCH  18  23
ENDBRANCH   1  15
TORSDOF 2
ENDMDL
MODEL 6
REMARK VINA RESULT:      -7.9      1.942      4.033
REMARK  2 active torsions:
REMARK  status: ('A' for Active; 'I' for Inactive)
REMARK       I    between atoms: N1_1  and  C1_2 
REMARK       I    between atoms: C1_2  and  N2_3 
REMARK       I    between atoms: C1_2  and  N4_10 
REMARK    1  A    between atoms: N2_3  and  C2_4 
REMARK    2  A    between atoms: N4_10  and  C7_11 
ROOT
HETATM    1  C7  UNL     1      25.042   2.173  53.057  1.00  0.00     0.042 A 
HETATM    2  C8  UNL     1      26.079   1.701  53.858  1.00  0.00     0.030 A 
HETATM    3  C9  UNL     1      26.031   0.418  54.405  1.00  0.00     0.003 A 
HETATM    4  C10 UNL     1      24.948  -0.428  54.167  1.00  0.00     0.018 A 
HETATM    5  C11 UNL     1      23.912   0.025  53.376  1.00  0.00     0.044 A 
HETATM    6  C12 UNL     1      23.988   1.310  52.843  1.00  0.00     0.036 A 
HETATM    7  C13 UNL     1      22.779   1.529  52.051  1.00  0.00     0.361 A 
HETATM    8  N5  UNL     1      21.853   2.494  52.613  1.00  0.00     0.112 N 
HETATM    9  C14 UNL     1      20.659   2.189  51.808  1.00  0.00     0.292 C 
HETATM   10  C15 UNL     1      20.852   0.747  51.339  1.00  0.00     0.158 C 
HETATM   11  N6  UNL     1      21.977   0.324  52.152  1.00  0.00    -0.312 N 
HETATM   12  C16 UNL     1      22.671  -0.616  52.962  1.00  0.00     0.256 A 
HETATM   13  O1  UNL     1      22.214  -1.743  53.209  1.00  0.00    -0.267 OA
HETATM   14  H14 UNL     1      21.615   2.166  53.587  1.00  0.00     0.319 HD
ENDROOT
BRANCH   1  15
HETATM   15  N4  UNL     1      25.060   3.473  52.485  1.00  0.00    -0.344 N 
HETATM   16  C1  UNL     1      25.440   3.662  51.124  1.00  0.00     0.423 C 
HETATM   17  N1  UNL     1      26.810   3.182  50.957  1.00  0.00     0.120 N 
HETATM   18  N2  UNL     1      25.367   5.007  50.664  1.00  0.00    -0.330 N 
HETATM   19  H1  UNL     1      27.219   2.887  51.889  1.00  0.00     0.317 HD
HETATM   20  H2  UNL     1      27.405   3.901  50.504  1.00  0.00     0.317 HD
HETATM   21  H4  UNL     1      26.218   5.514  50.276  1.00  0.00     0.165 HD
HETATM   22  H9  UNL     1      24.796   4.273  53.064  1.00  0.00     0.163 HD
BRANCH  18  23
HETATM   23  C2  UNL     1      24.160   5.733  50.702  1.00  0.00     0.126 A 
HETATM   24  C3  UNL     1      24.101   7.072  50.396  1.00  0.00     0.050 A 
HETATM   25  C4  UNL     1      22.941   7.805  50.425  1.00  0.00     0.005 A 
HETATM   26  C5  UNL     1      21.747   7.180  50.781  1.00  0.00     0.019 A 
HETATM   27  C6  UNL     1      21.811   5.845  51.086  1.00  0.00     0.119 A 
HETATM   28  N3  UNL     1      22.980   5.180  51.039  1.00  0.00    -0.244 NA
ENDBRANCH  18  23
ENDBRANCH   1  15
TORSDOF 2
ENDMDL
MODEL 7
REMARK VINA RESULT:      -7.9      1.932      4.100
REMARK  2 active torsions:
REMARK  status: ('A' for Active; 'I' for Inactive)
REMARK       I    between atoms: N1_1  and  C1_2 
REMARK       I    between atoms: C1_2  and  N2_3 
REMARK       I    between atoms: C1_2  and  N4_10 
REMARK    1  A    between atoms: N2_3  and  C2_4 
REMARK    2  A    between atoms: N4_10  and  C7_11 
ROOT
HETATM    1  C7  UNL     1      24.483   0.288  53.696  1.00  0.00     0.042 A 
HETATM    2  C8  UNL     1      24.950  -0.465  54.770  1.00  0.00     0.030 A 
HETATM    3  C9  UNL     1      24.096  -1.322  55.466  1.00  0.00     0.003 A 
HETATM    4  C10 UNL     1      22.754  -1.450  55.108  1.00  0.00     0.018 A 
HETATM    5  C11 UNL     1      22.276  -0.710  54.045  1.00  0.00     0.044 A 
HETATM    6  C12 UNL     1      23.152   0.137  53.370  1.00  0.00     0.036 A 
HETATM    7  C13 UNL     1      22.397   0.787  52.300  1.00  0.00     0.361 A 
HETATM    8  N5  UNL     1      22.169   2.206  52.495  1.00  0.00     0.112 N 
HETATM    9  C14 UNL     1      21.118   2.429  51.490  1.00  0.00     0.292 C 
HETATM   10  C15 UNL     1      20.467   1.061  51.284  1.00  0.00     0.158 C 
HETATM   11  N6  UNL     1      21.032   0.301  52.383  1.00  0.00    -0.312 N 
HETATM   12  C16 UNL     1      20.946  -0.631  53.454  1.00  0.00     0.256 A 
HETATM   13  O1  UNL     1      19.889  -1.211  53.745  1.00  0.00    -0.267 OA
HETATM   14  H14 UNL     1      21.685   2.318  53.425  1.00  0.00     0.319 HD
ENDROOT
BRANCH   1  15
HETATM   15  N4  UNL     1      25.326   1.169  52.966  1.00  0.00    -0.344 N 
HETATM   16  C1  UNL     1      25.989   0.726  51.784  1.00  0.00     0.423 C 
HETATM   17  N1  UNL     1      26.863  -0.390  52.137  1.00  0.00     0.120 N 
HETATM   18  N2  UNL     1      26.763   1.722  51.124  1.00  0.00    -0.330 N 
HETATM   19  H1  UNL     1      26.859  -0.552  53.184  1.00  0.00     0.317 HD
HETATM   20  H2  UNL     1      27.829  -0.233  51.792  1.00  0.00     0.317 HD
HETATM   21  H4  UNL     1      27.806   1.600  50.954  1.00  0.00     0.165 HD
HETATM   22  H9  UNL     1      25.451   2.126  53.301  1.00  0.00     0.163 HD
BRANCH  18  23
HETATM   23  C2  UNL     1      26.181   2.921  50.665  1.00  0.00     0.126 A 
HETATM   24  C3  UNL     1      26.764   3.688  49.684  1.00  0.00     0.050 A 
HETATM   25  C4  UNL     1      26.222   4.859  49.217  1.00  0.00     0.005 A 
HETATM   26  C5  UNL     1      25.018   5.316  49.752  1.00  0.00     0.019 A 
HETATM   27  C6  UNL     1      24.442   4.547  50.730  1.00  0.00     0.119 A 
HETATM   28  N3  UNL     1      25.022   3.407  51.146  1.00  0.00    -0.244 NA
ENDBRANCH  18  23
ENDBRANCH   1  15
TORSDOF 2
ENDMDL
MODEL 8
REMARK VINA RESULT:      -7.8      2.674      6.833
REMARK  2 active torsions:
REMARK  status: ('A' for Active; 'I' for Inactive)
REMARK       I    between atoms: N1_1  and  C1_2 
REMARK       I    between atoms: C1_2  and  N2_3 
REMARK       I    between atoms: C1_2  and  N4_10 
REMARK    1  A    between atoms: N2_3  and  C2_4 
REMARK    2  A    between atoms: N4_10  and  C7_11 
ROOT
HETATM    1  C7  UNL     1      25.604   3.477  50.354  1.00  0.00     0.042 A 
HETATM    2  C8  UNL     1      26.793   3.535  49.632  1.00  0.00     0.030 A 
HETATM    3  C9  UNL     1      27.117   4.666  48.880  1.00  0.00     0.003 A 
HETATM    4  C10 UNL     1      26.263   5.768  48.829  1.00  0.00     0.018 A 
HETATM    5  C11 UNL     1      25.081   5.725  49.540  1.00  0.00     0.044 A 
HETATM    6  C12 UNL     1      24.785   4.584  50.282  1.00  0.00     0.036 A 
HETATM    7  C13 UNL     1      23.494   4.805  50.931  1.00  0.00     0.361 A 
HETATM    8  N5  UNL     1      22.409   3.990  50.417  1.00  0.00     0.112 N 
HETATM    9  C14 UNL     1      21.263   4.709  50.995  1.00  0.00     0.292 C 
HETATM   10  C15 UNL     1      21.768   6.130  51.242  1.00  0.00     0.158 C 
HETATM   11  N6  UNL     1      23.031   6.120  50.528  1.00  0.00    -0.312 N 
HETATM   12  C16 UNL     1      24.007   6.702  49.673  1.00  0.00     0.256 A 
HETATM   13  O1  UNL     1      23.871   7.835  49.187  1.00  0.00    -0.267 OA
HETATM   14  H14 UNL     1      22.349   4.170  49.380  1.00  0.00     0.319 HD
ENDROOT
BRANCH   1  15
HETATM   15  N4  UNL     1      25.245   2.342  51.129  1.00  0.00    -0.344 N 
HETATM   16  C1  UNL     1      25.434   2.339  52.543  1.00  0.00     0.423 C 
HETATM   17  N1  UNL     1      26.858   2.520  52.817  1.00  0.00     0.120 N 
HETATM   18  N2  UNL     1      24.988   1.160  53.204  1.00  0.00    -0.330 N 
HETATM   19  H1  UNL     1      27.415   2.529  51.915  1.00  0.00     0.317 HD
HETATM   20  H2  UNL     1      27.211   1.786  53.461  1.00  0.00     0.317 HD
HETATM   21  H4  UNL     1      25.646   0.559  53.784  1.00  0.00     0.165 HD
HETATM   22  H9  UNL     1      24.847   1.526  50.660  1.00  0.00     0.163 HD
BRANCH  18  23
HETATM   23  C2  UNL     1      23.648   0.733  53.118  1.00  0.00     0.126 A 
HETATM   24  C3  UNL     1      23.247  -0.509  53.551  1.00  0.00     0.050 A 
HETATM   25  C4  UNL     1      21.950  -0.953  53.481  1.00  0.00     0.005 A 
HETATM   26  C5  UNL     1      20.970  -0.119  52.944  1.00  0.00     0.019 A 
HETATM   27  C6  UNL     1      21.376   1.118  52.514  1.00  0.00     0.119 A 
HETATM   28  N3  UNL     1      22.663   1.496  52.610  1.00  0.00    -0.244 NA
ENDBRANCH  18  23
ENDBRANCH   1  15
TORSDOF 2
ENDMDL
MODEL 9
REMARK VINA RESULT:      -7.4      5.279      8.642
REMARK  2 active torsions:
REMARK  status: ('A' for Active; 'I' for Inactive)
REMARK       I    between atoms: N1_1  and  C1_2 
REMARK       I    between atoms: C1_2  and  N2_3 
REMARK       I    between atoms: C1_2  and  N4_10 
REMARK    1  A    between atoms: N2_3  and  C2_4 
REMARK    2  A    between atoms: N4_10  and  C7_11 
ROOT
HETATM    1  C7  UNL     1      28.292   7.685  47.749  1.00  0.00     0.042 A 
HETATM    2  C8  UNL     1      27.745   8.514  46.773  1.00  0.00     0.030 A 
HETATM    3  C9  UNL     1      28.475   8.851  45.632  1.00  0.00     0.003 A 
HETATM    4  C10 UNL     1      29.769   8.370  45.435  1.00  0.00     0.018 A 
HETATM    5  C11 UNL     1      30.325   7.547  46.393  1.00  0.00     0.044 A 
HETATM    6  C12 UNL     1      29.572   7.227  47.522  1.00  0.00     0.036 A 
HETATM    7  C13 UNL     1      30.388   6.349  48.359  1.00  0.00     0.361 A 
HETATM    8  N5  UNL     1      30.841   6.945  49.601  1.00  0.00     0.112 N 
HETATM    9  C14 UNL     1      31.884   5.977  49.976  1.00  0.00     0.292 C 
HETATM   10  C15 UNL     1      32.306   5.319  48.662  1.00  0.00     0.158 C 
HETATM   11  N6  UNL     1      31.662   6.177  47.685  1.00  0.00    -0.312 N 
HETATM   12  C16 UNL     1      31.632   6.907  46.465  1.00  0.00     0.256 A 
HETATM   13  O1  UNL     1      32.594   6.927  45.681  1.00  0.00    -0.267 OA
HETATM   14  H14 UNL     1      31.364   7.826  49.351  1.00  0.00     0.319 HD
ENDROOT
BRANCH   1  15
HETATM   15  N4  UNL     1      27.576   7.322  48.921  1.00  0.00    -0.344 N 
HETATM   16  C1  UNL     1      26.999   8.322  49.758  1.00  0.00     0.423 C 
HETATM   17  N1  UNL     1      28.071   9.185  50.250  1.00  0.00     0.120 N 
HETATM   18  N2  UNL     1      26.268   7.821  50.872  1.00  0.00    -0.330 N 
HETATM   19  H1  UNL     1      29.016   8.823  49.940  1.00  0.00     0.317 HD
HETATM   20  H2  UNL     1      28.032   9.278  51.283  1.00  0.00     0.317 HD
HETATM   21  H4  UNL     1      26.523   8.079  51.872  1.00  0.00     0.165 HD
HETATM   22  H9  UNL     1      27.480   6.332  49.157  1.00  0.00     0.163 HD
BRANCH  18  23
HETATM   23  C2  UNL     1      25.169   6.957  50.701  1.00  0.00     0.126 A 
HETATM   24  C3  UNL     1      23.892   7.317  51.061  1.00  0.00     0.050 A 
HETATM   25  C4  UNL     1      22.802   6.496  50.907  1.00  0.00     0.005 A 
HETATM   26  C5  UNL     1      22.975   5.226  50.359  1.00  0.00     0.019 A 
HETATM   27  C6  UNL     1      24.251   4.872  50.003  1.00  0.00     0.119 A 
HETATM   28  N3  UNL     1      25.279   5.721  50.179  1.00  0.00    -0.244 NA
ENDBRANCH  18  23
ENDBRANCH   1  15
TORSDOF 2
ENDMDL
