MODEL 1
REMARK VINA RESULT:      -8.6      0.000      0.000
REMARK  3 active torsions:
REMARK  status: ('A' for Active; 'I' for Inactive)
REMARK    1  A    between atoms: C6_6  and  O1_7 
REMARK    2  A    between atoms: C7_8  and  N1_9 
REMARK    3  A    between atoms: C20_24  and  O3_25 
ROOT
HETATM    1  N1  UNL     1      24.568   4.331  50.545  1.00  0.00    -0.286 N 
HETATM    2  C8  UNL     1      25.887   3.810  50.319  1.00  0.00     0.328 C 
HETATM    3  O2  UNL     1      26.108   2.615  50.623  1.00  0.00    -0.246 OA
HETATM    4  N2  UNL     1      27.141   4.324  49.792  1.00  0.00    -0.308 N 
HETATM    5  C9  UNL     1      27.351   5.533  48.987  1.00  0.00     0.047 A 
HETATM    6  C10 UNL     1      28.460   5.543  48.238  1.00  0.00     0.030 A 
HETATM    7  C11 UNL     1      28.643   6.654  47.444  1.00  0.00     0.002 A 
HETATM    8  C12 UNL     1      27.789   7.737  47.362  1.00  0.00     0.001 A 
HETATM    9  C13 UNL     1      26.619   7.805  48.105  1.00  0.00     0.014 A 
HETATM   10  C14 UNL     1      26.483   6.669  48.883  1.00  0.00    -0.000 A 
HETATM   11  C15 UNL     1      25.173   6.921  49.561  1.00  0.00    -0.015 C 
HETATM   12  C16 UNL     1      24.447   7.330  48.485  1.00  0.00     0.010 C 
HETATM   13  C17 UNL     1      23.076   6.764  48.570  1.00  0.00    -0.001 C 
HETATM   14  C18 UNL     1      22.897   5.985  49.678  1.00  0.00     0.002 C 
HETATM   15  C19 UNL     1      23.807   5.498  50.782  1.00  0.00     0.151 C 
HETATM   16  C20 UNL     1      24.722   6.735  51.013  1.00  0.00     0.179 C 
HETATM   17  H9  UNL     1      28.074   3.910  49.892  1.00  0.00     0.170 HD
ENDROOT
BRANCH   1  18
HETATM   18  C7  UNL     1      23.668   3.194  50.529  1.00  0.00     0.073 A 
HETATM   19  C6  UNL     1      23.544   2.645  51.788  1.00  0.00     0.098 A 
HETATM   20  C4  UNL     1      22.735   1.553  52.000  1.00  0.00    -0.026 A 
HETATM   21  C3  UNL     1      22.053   1.020  50.931  1.00  0.00     0.016 A 
HETATM   22  C5  UNL     1      22.557   0.910  53.345  1.00  0.00     0.051 C 
HETATM   23  C2  UNL     1      22.182   1.574  49.677  1.00  0.00    -0.059 A 
HETATM   24  C1  UNL     1      21.469   1.035  48.499  1.00  0.00     0.048 C 
HETATM   25  C21 UNL     1      22.990   2.668  49.455  1.00  0.00     0.039 A 
BRANCH  19  26
HETATM   26  O1  UNL     1      24.189   3.103  52.947  1.00  0.00    -0.358 OA
HETATM   27  H8  UNL     1      24.239   2.466  53.739  1.00  0.00     0.217 HD
ENDBRANCH  19  26
ENDBRANCH   1  18
BRANCH  16  28
HETATM   28  O3  UNL     1      23.981   7.791  51.458  1.00  0.00    -0.388 OA
HETATM   29  H19 UNL     1      22.994   7.611  51.482  1.00  0.00     0.210 HD
ENDBRANCH  16  28
TORSDOF 3
ENDMDL
MODEL 2
REMARK VINA RESULT:      -8.6      2.105      3.912
REMARK  3 active torsions:
REMARK  status: ('A' for Active; 'I' for Inactive)
REMARK    1  A    between atoms: C6_6  and  O1_7 
REMARK    2  A    between atoms: C7_8  and  N1_9 
REMARK    3  A    between atoms: C20_24  and  O3_25 
ROOT
HETATM    1  N1  UNL     1      22.898   2.925  51.792  1.00  0.00    -0.286 N 
HETATM    2  C8  UNL     1      23.727   3.952  52.359  1.00  0.00     0.328 C 
HETATM    3  O2  UNL     1      24.209   3.757  53.498  1.00  0.00    -0.246 OA
HETATM    4  N2  UNL     1      24.201   5.263  51.946  1.00  0.00    -0.308 N 
HETATM    5  C9  UNL     1      24.223   5.826  50.591  1.00  0.00     0.047 A 
HETATM    6  C10 UNL     1      25.110   6.806  50.387  1.00  0.00     0.030 A 
HETATM    7  C11 UNL     1      25.170   7.311  49.107  1.00  0.00     0.002 A 
HETATM    8  C12 UNL     1      24.402   6.894  48.038  1.00  0.00     0.001 A 
HETATM    9  C13 UNL     1      23.457   5.884  48.164  1.00  0.00     0.014 A 
HETATM   10  C14 UNL     1      23.437   5.413  49.466  1.00  0.00    -0.000 A 
HETATM   11  C15 UNL     1      22.405   4.333  49.381  1.00  0.00    -0.015 C 
HETATM   12  C16 UNL     1      22.825   3.720  48.240  1.00  0.00     0.010 C 
HETATM   13  C17 UNL     1      22.695   2.248  48.393  1.00  0.00    -0.001 C 
HETATM   14  C18 UNL     1      22.205   1.889  49.618  1.00  0.00     0.002 C 
HETATM   15  C19 UNL     1      21.857   2.648  50.877  1.00  0.00     0.151 C 
HETATM   16  C20 UNL     1      21.242   3.957  50.304  1.00  0.00     0.179 C 
HETATM   17  H9  UNL     1      24.607   5.993  52.540  1.00  0.00     0.170 HD
ENDROOT
BRANCH   1  18
HETATM   18  C7  UNL     1      23.293   1.682  52.425  1.00  0.00     0.073 A 
HETATM   19  C6  UNL     1      24.587   1.344  52.089  1.00  0.00     0.098 A 
HETATM   20  C4  UNL     1      25.164   0.197  52.582  1.00  0.00    -0.026 A 
HETATM   21  C3  UNL     1      24.424  -0.606  53.418  1.00  0.00     0.016 A 
HETATM   22  C5  UNL     1      26.566  -0.226  52.253  1.00  0.00     0.051 C 
HETATM   23  C2  UNL     1      23.132  -0.262  53.750  1.00  0.00    -0.059 A 
HETATM   24  C1  UNL     1      22.299  -1.094  54.644  1.00  0.00     0.048 C 
HETATM   25  C21 UNL     1      22.546   0.885  53.261  1.00  0.00     0.039 A 
BRANCH  19  26
HETATM   26  O1  UNL     1      25.433   2.084  51.248  1.00  0.00    -0.358 OA
HETATM   27  H8  UNL     1      25.078   2.966  50.885  1.00  0.00     0.217 HD
ENDBRANCH  19  26
ENDBRANCH   1  18
BRANCH  16  28
HETATM   28  O3  UNL     1      20.104   3.675  49.605  1.00  0.00    -0.388 OA
HETATM   29  H19 UNL     1      19.559   2.931  50.002  1.00  0.00     0.210 HD
ENDBRANCH  16  28
TORSDOF 3
ENDMDL
MODEL 3
REMARK VINA RESULT:      -8.2      2.741      6.800
REMARK  3 active torsions:
REMARK  status: ('A' for Active; 'I' for Inactive)
REMARK    1  A    between atoms: C6_6  and  O1_7 
REMARK    2  A    between atoms: C7_8  and  N1_9 
REMARK    3  A    between atoms: C20_24  and  O3_25 
ROOT
HETATM    1  N1  UNL     1      23.229   3.962  51.787  1.00  0.00    -0.286 N 
HETATM    2  C8  UNL     1      21.841   3.745  52.083  1.00  0.00     0.328 C 
HETATM    3  O2  UNL     1      21.014   4.601  51.693  1.00  0.00    -0.246 OA
HETATM    4  N2  UNL     1      21.062   2.724  52.765  1.00  0.00    -0.308 N 
HETATM    5  C9  UNL     1      21.472   1.356  53.105  1.00  0.00     0.047 A 
HETATM    6  C10 UNL     1      20.476   0.482  53.283  1.00  0.00     0.030 A 
HETATM    7  C11 UNL     1      20.851  -0.815  53.558  1.00  0.00     0.002 A 
HETATM    8  C12 UNL     1      22.149  -1.275  53.662  1.00  0.00     0.001 A 
HETATM    9  C13 UNL     1      23.240  -0.433  53.494  1.00  0.00     0.014 A 
HETATM   10  C14 UNL     1      22.810   0.854  53.221  1.00  0.00    -0.000 A 
HETATM   11  C15 UNL     1      24.108   1.577  53.042  1.00  0.00    -0.015 C 
HETATM   12  C16 UNL     1      24.744   0.682  52.236  1.00  0.00     0.010 C 
HETATM   13  C17 UNL     1      25.512   1.415  51.195  1.00  0.00    -0.001 C 
HETATM   14  C18 UNL     1      25.379   2.771  51.303  1.00  0.00     0.002 C 
HETATM   15  C19 UNL     1      24.557   3.683  52.182  1.00  0.00     0.151 C 
HETATM   16  C20 UNL     1      24.597   2.937  53.547  1.00  0.00     0.179 C 
HETATM   17  H9  UNL     1      20.097   2.800  53.104  1.00  0.00     0.170 HD
ENDROOT
BRANCH   1  18
HETATM   18  C7  UNL     1      23.270   4.817  50.617  1.00  0.00     0.073 A 
HETATM   19  C6  UNL     1      23.792   6.056  50.929  1.00  0.00     0.098 A 
HETATM   20  C4  UNL     1      23.922   7.026  49.962  1.00  0.00    -0.026 A 
HETATM   21  C3  UNL     1      23.522   6.736  48.679  1.00  0.00     0.016 A 
HETATM   22  C5  UNL     1      24.480   8.392  50.237  1.00  0.00     0.051 C 
HETATM   23  C2  UNL     1      23.002   5.497  48.374  1.00  0.00    -0.059 A 
HETATM   24  C1  UNL     1      22.559   5.140  47.010  1.00  0.00     0.048 C 
HETATM   25  C21 UNL     1      22.868   4.519  49.336  1.00  0.00     0.039 A 
BRANCH  19  26
HETATM   26  O1  UNL     1      24.231   6.462  52.198  1.00  0.00    -0.358 OA
HETATM   27  H8  UNL     1      25.195   6.776  52.283  1.00  0.00     0.217 HD
ENDBRANCH  19  26
ENDBRANCH   1  18
BRANCH  16  28
HETATM   28  O3  UNL     1      25.879   2.879  54.012  1.00  0.00    -0.388 OA
HETATM   29  H19 UNL     1      26.203   3.740  54.414  1.00  0.00     0.210 HD
ENDBRANCH  16  28
TORSDOF 3
ENDMDL
MODEL 4
REMARK VINA RESULT:      -7.9      2.917      6.864
REMARK  3 active torsions:
REMARK  status: ('A' for Active; 'I' for Inactive)
REMARK    1  A    between atoms: C6_6  and  O1_7 
REMARK    2  A    between atoms: C7_8  and  N1_9 
REMARK    3  A    between atoms: C20_24  and  O3_25 
ROOT
HETATM    1  N1  UNL     1      22.852   3.716  51.459  1.00  0.00    -0.286 N 
HETATM    2  C8  UNL     1      21.481   3.423  51.769  1.00  0.00     0.328 C 
HETATM    3  O2  UNL     1      20.594   4.138  51.251  1.00  0.00    -0.246 OA
HETATM    4  N2  UNL     1      20.777   2.444  52.583  1.00  0.00    -0.308 N 
HETATM    5  C9  UNL     1      21.295   1.181  53.121  1.00  0.00     0.047 A 
HETATM    6  C10 UNL     1      20.373   0.256  53.412  1.00  0.00     0.030 A 
HETATM    7  C11 UNL     1      20.851  -0.950  53.874  1.00  0.00     0.002 A 
HETATM    8  C12 UNL     1      22.181  -1.274  54.058  1.00  0.00     0.001 A 
HETATM    9  C13 UNL     1      23.200  -0.372  53.781  1.00  0.00     0.014 A 
HETATM   10  C14 UNL     1      22.667   0.820  53.321  1.00  0.00    -0.000 A 
HETATM   11  C15 UNL     1      23.903   1.621  53.054  1.00  0.00    -0.015 C 
HETATM   12  C16 UNL     1      24.632   0.680  52.391  1.00  0.00     0.010 C 
HETATM   13  C17 UNL     1      25.357   1.321  51.265  1.00  0.00    -0.001 C 
HETATM   14  C18 UNL     1      25.107   2.662  51.174  1.00  0.00     0.002 C 
HETATM   15  C19 UNL     1      24.190   3.614  51.904  1.00  0.00     0.151 C 
HETATM   16  C20 UNL     1      24.262   3.076  53.363  1.00  0.00     0.179 C 
HETATM   17  H9  UNL     1      19.802   2.483  52.897  1.00  0.00     0.170 HD
ENDROOT
BRANCH   1  18
HETATM   18  C7  UNL     1      22.848   4.397  50.179  1.00  0.00     0.073 A 
HETATM   19  C6  UNL     1      22.497   3.533  49.161  1.00  0.00     0.098 A 
HETATM   20  C4  UNL     1      22.431   3.973  47.860  1.00  0.00    -0.026 A 
HETATM   21  C3  UNL     1      22.720   5.291  47.594  1.00  0.00     0.016 A 
HETATM   22  C5  UNL     1      22.057   3.084  46.709  1.00  0.00     0.051 C 
HETATM   23  C2  UNL     1      23.068   6.148  48.615  1.00  0.00    -0.059 A 
HETATM   24  C1  UNL     1      23.388   7.571  48.376  1.00  0.00     0.048 C 
HETATM   25  C21 UNL     1      23.138   5.716  49.921  1.00  0.00     0.039 A 
BRANCH  19  26
HETATM   26  O1  UNL     1      22.183   2.174  49.314  1.00  0.00    -0.358 OA
HETATM   27  H8  UNL     1      21.993   1.639  48.470  1.00  0.00     0.217 HD
ENDBRANCH  19  26
ENDBRANCH   1  18
BRANCH  16  28
HETATM   28  O3  UNL     1      25.534   3.198  53.845  1.00  0.00    -0.388 OA
HETATM   29  H19 UNL     1      25.934   4.108  53.705  1.00  0.00     0.210 HD
ENDBRANCH  16  28
TORSDOF 3
ENDMDL
MODEL 5
REMARK VINA RESULT:      -7.7      5.210      8.687
REMARK  3 active torsions:
REMARK  status: ('A' for Active; 'I' for Inactive)
REMARK    1  A    between atoms: C6_6  and  O1_7 
REMARK    2  A    between atoms: C7_8  and  N1_9 
REMARK    3  A    between atoms: C20_24  and  O3_25 
ROOT
HETATM    1  N1  UNL     1      31.754   7.271  47.943  1.00  0.00    -0.286 N 
HETATM    2  C8  UNL     1      32.234   6.259  48.841  1.00  0.00     0.328 C 
HETATM    3  O2  UNL     1      31.683   6.156  49.961  1.00  0.00    -0.246 OA
HETATM    4  N2  UNL     1      33.267   5.236  48.811  1.00  0.00    -0.308 N 
HETATM    5  C9  UNL     1      33.966   4.697  47.639  1.00  0.00     0.047 A 
HETATM    6  C10 UNL     1      34.497   3.478  47.792  1.00  0.00     0.030 A 
HETATM    7  C11 UNL     1      35.116   2.944  46.684  1.00  0.00     0.002 A 
HETATM    8  C12 UNL     1      35.231   3.556  45.450  1.00  0.00     0.001 A 
HETATM    9  C13 UNL     1      34.710   4.819  45.208  1.00  0.00     0.014 A 
HETATM   10  C14 UNL     1      34.100   5.309  46.350  1.00  0.00    -0.000 A 
HETATM   11  C15 UNL     1      33.586   6.632  45.875  1.00  0.00    -0.015 C 
HETATM   12  C16 UNL     1      33.033   6.239  44.695  1.00  0.00     0.010 C 
HETATM   13  C17 UNL     1      31.750   6.959  44.486  1.00  0.00    -0.001 C 
HETATM   14  C18 UNL     1      31.452   7.808  45.514  1.00  0.00     0.002 C 
HETATM   15  C19 UNL     1      32.086   8.107  46.852  1.00  0.00     0.151 C 
HETATM   16  C20 UNL     1      33.603   8.023  46.515  1.00  0.00     0.179 C 
HETATM   17  H9  UNL     1      33.657   4.722  49.608  1.00  0.00     0.170 HD
ENDROOT
BRANCH   1  18
HETATM   18  C7  UNL     1      30.381   7.540  48.323  1.00  0.00     0.073 A 
HETATM   19  C6  UNL     1      29.612   6.397  48.239  1.00  0.00     0.098 A 
HETATM   20  C4  UNL     1      28.274   6.427  48.556  1.00  0.00    -0.026 A 
HETATM   21  C3  UNL     1      27.718   7.619  48.958  1.00  0.00     0.016 A 
HETATM   22  C5  UNL     1      27.385   5.220  48.486  1.00  0.00     0.051 C 
HETATM   23  C2  UNL     1      28.492   8.756  49.039  1.00  0.00    -0.059 A 
HETATM   24  C1  UNL     1      27.938  10.058  49.466  1.00  0.00     0.048 C 
HETATM   25  C21 UNL     1      29.833   8.735  48.724  1.00  0.00     0.039 A 
BRANCH  19  26
HETATM   26  O1  UNL     1      30.070   5.131  47.843  1.00  0.00    -0.358 OA
HETATM   27  H8  UNL     1      29.386   4.485  47.456  1.00  0.00     0.217 HD
ENDBRANCH  19  26
ENDBRANCH   1  18
BRANCH  16  28
HETATM   28  O3  UNL     1      33.938   8.995  45.617  1.00  0.00    -0.388 OA
HETATM   29  H19 UNL     1      34.745   9.530  45.883  1.00  0.00     0.210 HD
ENDBRANCH  16  28
TORSDOF 3
ENDMDL
MODEL 6
REMARK VINA RESULT:      -7.7      6.690      9.574
REMARK  3 active torsions:
REMARK  status: ('A' for Active; 'I' for Inactive)
REMARK    1  A    between atoms: C6_6  and  O1_7 
REMARK    2  A    between atoms: C7_8  and  N1_9 
REMARK    3  A    between atoms: C20_24  and  O3_25 
ROOT
HETATM    1  N1  UNL     1      32.717   6.957  47.144  1.00  0.00    -0.286 N 
HETATM    2  C8  UNL     1      33.250   8.278  46.959  1.00  0.00     0.328 C 
HETATM    3  O2  UNL     1      34.238   8.414  46.202  1.00  0.00    -0.246 OA
HETATM    4  N2  UNL     1      32.935   9.611  47.445  1.00  0.00    -0.308 N 
HETATM    5  C9  UNL     1      31.690  10.070  48.073  1.00  0.00     0.047 A 
HETATM    6  C10 UNL     1      31.455  11.385  47.996  1.00  0.00     0.030 A 
HETATM    7  C11 UNL     1      30.267  11.820  48.542  1.00  0.00     0.002 A 
HETATM    8  C12 UNL     1      29.319  11.022  49.150  1.00  0.00     0.001 A 
HETATM    9  C13 UNL     1      29.486   9.650  49.273  1.00  0.00     0.014 A 
HETATM   10  C14 UNL     1      30.690   9.265  48.710  1.00  0.00    -0.000 A 
HETATM   11  C15 UNL     1      30.659   7.782  48.910  1.00  0.00    -0.015 C 
HETATM   12  C16 UNL     1      29.387   7.534  48.494  1.00  0.00     0.010 C 
HETATM   13  C17 UNL     1      29.361   6.274  47.707  1.00  0.00    -0.001 C 
HETATM   14  C18 UNL     1      30.597   5.701  47.594  1.00  0.00     0.002 C 
HETATM   15  C19 UNL     1      31.990   6.110  48.010  1.00  0.00     0.151 C 
HETATM   16  C20 UNL     1      31.728   6.794  49.383  1.00  0.00     0.179 C 
HETATM   17  H9  UNL     1      33.534  10.443  47.412  1.00  0.00     0.170 HD
ENDROOT
BRANCH   1  18
HETATM   18  C7  UNL     1      33.089   6.196  45.967  1.00  0.00     0.073 A 
HETATM   19  C6  UNL     1      33.977   5.190  46.289  1.00  0.00     0.098 A 
HETATM   20  C4  UNL     1      34.462   4.344  45.319  1.00  0.00    -0.026 A 
HETATM   21  C3  UNL     1      34.042   4.522  44.021  1.00  0.00     0.016 A 
HETATM   22  C5  UNL     1      35.429   3.232  45.604  1.00  0.00     0.051 C 
HETATM   23  C2  UNL     1      33.156   5.528  43.706  1.00  0.00    -0.059 A 
HETATM   24  C1  UNL     1      32.678   5.756  42.327  1.00  0.00     0.048 C 
HETATM   25  C21 UNL     1      32.665   6.379  44.672  1.00  0.00     0.039 A 
BRANCH  19  26
HETATM   26  O1  UNL     1      34.472   4.916  47.574  1.00  0.00    -0.358 OA
HETATM   27  H8  UNL     1      34.246   5.577  48.313  1.00  0.00     0.217 HD
ENDBRANCH  19  26
ENDBRANCH   1  18
BRANCH  16  28
HETATM   28  O3  UNL     1      31.228   5.886  50.272  1.00  0.00    -0.388 OA
HETATM   29  H19 UNL     1      31.308   4.933  49.966  1.00  0.00     0.210 HD
ENDBRANCH  16  28
TORSDOF 3
ENDMDL
MODEL 7
REMARK VINA RESULT:      -7.6      5.165      8.553
REMARK  3 active torsions:
REMARK  status: ('A' for Active; 'I' for Inactive)
REMARK    1  A    between atoms: C6_6  and  O1_7 
REMARK    2  A    between atoms: C7_8  and  N1_9 
REMARK    3  A    between atoms: C20_24  and  O3_25 
ROOT
HETATM    1  N1  UNL     1      31.460   6.995  47.963  1.00  0.00    -0.286 N 
HETATM    2  C8  UNL     1      31.950   5.927  48.787  1.00  0.00     0.328 C 
HETATM    3  O2  UNL     1      31.354   5.692  49.863  1.00  0.00    -0.246 OA
HETATM    4  N2  UNL     1      33.035   4.961  48.715  1.00  0.00    -0.308 N 
HETATM    5  C9  UNL     1      33.814   4.569  47.535  1.00  0.00     0.047 A 
HETATM    6  C10 UNL     1      34.400   3.368  47.602  1.00  0.00     0.030 A 
HETATM    7  C11 UNL     1      35.096   2.972  46.481  1.00  0.00     0.002 A 
HETATM    8  C12 UNL     1      35.236   3.702  45.317  1.00  0.00     0.001 A 
HETATM    9  C13 UNL     1      34.662   4.956  45.166  1.00  0.00     0.014 A 
HETATM   10  C14 UNL     1      33.975   5.307  46.316  1.00  0.00    -0.000 A 
HETATM   11  C15 UNL     1      33.415   6.642  45.940  1.00  0.00    -0.015 C 
HETATM   12  C16 UNL     1      32.939   6.337  44.702  1.00  0.00     0.010 C 
HETATM   13  C17 UNL     1      31.631   7.012  44.496  1.00  0.00    -0.001 C 
HETATM   14  C18 UNL     1      31.242   7.745  45.582  1.00  0.00     0.002 C 
HETATM   15  C19 UNL     1      31.797   7.945  46.972  1.00  0.00     0.151 C 
HETATM   16  C20 UNL     1      33.331   7.966  46.706  1.00  0.00     0.179 C 
HETATM   17  H9  UNL     1      33.414   4.393  49.480  1.00  0.00     0.170 HD
ENDROOT
BRANCH   1  18
HETATM   18  C7  UNL     1      30.059   7.161  48.296  1.00  0.00     0.073 A 
HETATM   19  C6  UNL     1      29.807   8.439  48.753  1.00  0.00     0.098 A 
HETATM   20  C4  UNL     1      28.537   8.813  49.126  1.00  0.00    -0.026 A 
HETATM   21  C3  UNL     1      27.523   7.888  49.033  1.00  0.00     0.016 A 
HETATM   22  C5  UNL     1      28.199  10.185  49.631  1.00  0.00     0.051 C 
HETATM   23  C2  UNL     1      27.781   6.615  48.576  1.00  0.00    -0.059 A 
HETATM   24  C1  UNL     1      26.725   5.588  48.460  1.00  0.00     0.048 C 
HETATM   25  C21 UNL     1      29.050   6.231  48.200  1.00  0.00     0.039 A 
BRANCH  19  26
HETATM   26  O1  UNL     1      30.759   9.461  48.888  1.00  0.00    -0.358 OA
HETATM   27  H8  UNL     1      31.563   9.438  48.265  1.00  0.00     0.217 HD
ENDBRANCH  19  26
ENDBRANCH   1  18
BRANCH  16  28
HETATM   28  O3  UNL     1      33.656   9.033  45.920  1.00  0.00    -0.388 OA
HETATM   29  H19 UNL     1      34.135   8.782  45.074  1.00  0.00     0.210 HD
ENDBRANCH  16  28
TORSDOF 3
ENDMDL
MODEL 8
REMARK VINA RESULT:      -7.5      4.414      6.356
REMARK  3 active torsions:
REMARK  status: ('A' for Active; 'I' for Inactive)
REMARK    1  A    between atoms: C6_6  and  O1_7 
REMARK    2  A    between atoms: C7_8  and  N1_9 
REMARK    3  A    between atoms: C20_24  and  O3_25 
ROOT
HETATM    1  N1  UNL     1      28.368   7.817  48.527  1.00  0.00    -0.286 N 
HETATM    2  C8  UNL     1      28.744   6.452  48.292  1.00  0.00     0.328 C 
HETATM    3  O2  UNL     1      27.848   5.578  48.338  1.00  0.00    -0.246 OA
HETATM    4  N2  UNL     1      29.976   5.741  47.990  1.00  0.00    -0.308 N 
HETATM    5  C9  UNL     1      31.239   6.300  47.493  1.00  0.00     0.047 A 
HETATM    6  C10 UNL     1      32.039   5.440  46.853  1.00  0.00     0.030 A 
HETATM    7  C11 UNL     1      33.206   5.965  46.343  1.00  0.00     0.002 A 
HETATM    8  C12 UNL     1      33.608   7.283  46.439  1.00  0.00     0.001 A 
HETATM    9  C13 UNL     1      32.838   8.238  47.087  1.00  0.00     0.014 A 
HETATM   10  C14 UNL     1      31.680   7.661  47.580  1.00  0.00    -0.000 A 
HETATM   11  C15 UNL     1      30.992   8.839  48.195  1.00  0.00    -0.015 C 
HETATM   12  C16 UNL     1      31.155   9.737  47.184  1.00  0.00     0.010 C 
HETATM   13  C17 UNL     1      29.916  10.544  47.036  1.00  0.00    -0.001 C 
HETATM   14  C18 UNL     1      28.944  10.180  47.926  1.00  0.00     0.002 C 
HETATM   15  C19 UNL     1      28.816   9.086  48.959  1.00  0.00     0.151 C 
HETATM   16  C20 UNL     1      30.262   9.012  49.530  1.00  0.00     0.179 C 
HETATM   17  H9  UNL     1      30.148   4.733  48.066  1.00  0.00     0.170 HD
ENDROOT
BRANCH   1  18
HETATM   18  C7  UNL     1      26.962   7.920  48.189  1.00  0.00     0.073 A 
HETATM   19  C6  UNL     1      26.182   7.962  49.327  1.00  0.00     0.098 A 
HETATM   20  C4  UNL     1      24.813   8.060  49.235  1.00  0.00    -0.026 A 
HETATM   21  C3  UNL     1      24.238   8.115  47.987  1.00  0.00     0.016 A 
HETATM   22  C5  UNL     1      23.910   8.109  50.434  1.00  0.00     0.051 C 
HETATM   23  C2  UNL     1      25.022   8.073  46.856  1.00  0.00    -0.059 A 
HETATM   24  C1  UNL     1      24.448   8.130  45.495  1.00  0.00     0.048 C 
HETATM   25  C21 UNL     1      26.394   7.976  46.938  1.00  0.00     0.039 A 
BRANCH  19  26
HETATM   26  O1  UNL     1      26.657   7.913  50.646  1.00  0.00    -0.358 OA
HETATM   27  H8  UNL     1      27.009   7.020  50.984  1.00  0.00     0.217 HD
ENDBRANCH  19  26
ENDBRANCH   1  18
BRANCH  16  28
HETATM   28  O3  UNL     1      30.586  10.189  50.141  1.00  0.00    -0.388 OA
HETATM   29  H19 UNL     1      29.855  10.877  50.107  1.00  0.00     0.210 HD
ENDBRANCH  16  28
TORSDOF 3
ENDMDL
MODEL 9
REMARK VINA RESULT:      -7.5      2.081      2.743
REMARK  3 active torsions:
REMARK  status: ('A' for Active; 'I' for Inactive)
REMARK    1  A    between atoms: C6_6  and  O1_7 
REMARK    2  A    between atoms: C7_8  and  N1_9 
REMARK    3  A    between atoms: C20_24  and  O3_25 
ROOT
HETATM    1  N1  UNL     1      25.431   6.219  49.582  1.00  0.00    -0.286 N 
HETATM    2  C8  UNL     1      26.405   5.167  49.509  1.00  0.00     0.328 C 
HETATM    3  O2  UNL     1      26.037   4.002  49.786  1.00  0.00    -0.246 OA
HETATM    4  N2  UNL     1      27.816   5.067  49.173  1.00  0.00    -0.308 N 
HETATM    5  C9  UNL     1      28.642   6.045  48.456  1.00  0.00     0.047 A 
HETATM    6  C10 UNL     1      29.734   5.553  47.860  1.00  0.00     0.030 A 
HETATM    7  C11 UNL     1      30.492   6.455  47.146  1.00  0.00     0.002 A 
HETATM    8  C12 UNL     1      30.219   7.801  46.999  1.00  0.00     0.001 A 
HETATM    9  C13 UNL     1      29.108   8.391  47.586  1.00  0.00     0.014 A 
HETATM   10  C14 UNL     1      28.383   7.445  48.289  1.00  0.00    -0.000 A 
HETATM   11  C15 UNL     1      27.237   8.260  48.800  1.00  0.00    -0.015 C 
HETATM   12  C16 UNL     1      26.918   8.927  47.657  1.00  0.00     0.010 C 
HETATM   13  C17 UNL     1      25.440   9.024  47.537  1.00  0.00    -0.001 C 
HETATM   14  C18 UNL     1      24.789   8.422  48.578  1.00  0.00     0.002 C 
HETATM   15  C19 UNL     1      25.233   7.606  49.768  1.00  0.00     0.151 C 
HETATM   16  C20 UNL     1      26.557   8.318  50.171  1.00  0.00     0.179 C 
HETATM   17  H9  UNL     1      28.450   4.287  49.376  1.00  0.00     0.170 HD
ENDROOT
BRANCH   1  18
HETATM   18  C7  UNL     1      24.136   5.594  49.399  1.00  0.00     0.073 A 
HETATM   19  C6  UNL     1      23.557   5.289  50.615  1.00  0.00     0.098 A 
HETATM   20  C4  UNL     1      22.322   4.688  50.673  1.00  0.00    -0.026 A 
HETATM   21  C3  UNL     1      21.674   4.397  49.495  1.00  0.00     0.016 A 
HETATM   22  C5  UNL     1      21.640   4.332  51.962  1.00  0.00     0.051 C 
HETATM   23  C2  UNL     1      22.257   4.704  48.285  1.00  0.00    -0.059 A 
HETATM   24  C1  UNL     1      21.599   4.409  46.995  1.00  0.00     0.048 C 
HETATM   25  C21 UNL     1      23.495   5.306  48.218  1.00  0.00     0.039 A 
BRANCH  19  26
HETATM   26  O1  UNL     1      24.123   5.540  51.874  1.00  0.00    -0.358 OA
HETATM   27  H8  UNL     1      23.804   4.968  52.654  1.00  0.00     0.217 HD
ENDBRANCH  19  26
ENDBRANCH   1  18
BRANCH  16  28
HETATM   28  O3  UNL     1      26.300   9.601  50.560  1.00  0.00    -0.388 OA
HETATM   29  H19 UNL     1      25.329   9.782  50.743  1.00  0.00     0.210 HD
ENDBRANCH  16  28
TORSDOF 3
ENDMDL
