MODEL 1
REMARK VINA RESULT:      -7.8      0.000      0.000
REMARK  6 active torsions:
REMARK  status: ('A' for Active; 'I' for Inactive)
REMARK    1  A    between atoms: C2_2  and  C3_3 
REMARK    2  A    between atoms: C3_3  and  C4_4 
REMARK    3  A    between atoms: C3_3  and  O3_27 
REMARK    4  A    between atoms: C4_4  and  C5_5 
REMARK    5  A    between atoms: C6_6  and  C7_7 
REMARK    6  A    between atoms: C16_17  and  C17_18 
ROOT
HETATM    1  C7  UNL     1      23.859   0.710  52.879  1.00  0.00    -0.035 A 
HETATM    2  C8  UNL     1      23.535  -0.596  52.936  1.00  0.00     0.009 A 
HETATM    3  C9  UNL     1      22.102  -0.781  53.150  1.00  0.00    -0.003 A 
HETATM    4  C10 UNL     1      21.494   0.400  53.220  1.00  0.00    -0.013 A 
HETATM    5  C11 UNL     1      21.756   1.860  53.154  1.00  0.00     0.085 A 
HETATM    6  C12 UNL     1      21.058   2.381  51.885  1.00  0.00     0.015 C 
HETATM    7  C13 UNL     1      21.410   2.967  50.734  1.00  0.00     0.006 C 
HETATM    8  C14 UNL     1      21.737   1.929  49.665  1.00  0.00     0.043 C 
HETATM    9  C15 UNL     1      20.598   1.838  48.773  1.00  0.00     0.184 C 
HETATM   10  O1  UNL     1      19.464   1.202  49.232  1.00  0.00    -0.351 OA
HETATM   11  C16 UNL     1      18.560   1.081  50.279  1.00  0.00     0.090 C 
HETATM   12  C18 UNL     1      18.715   1.251  51.607  1.00  0.00     0.122 C 
HETATM   13  N1  UNL     1      19.769   1.923  52.371  1.00  0.00    -0.366 N 
HETATM   14  C19 UNL     1      23.077   2.311  49.304  1.00  0.00     0.113 C 
HETATM   15  C20 UNL     1      23.808   2.903  50.474  1.00  0.00     0.218 C 
HETATM   16  O2  UNL     1      24.799   3.579  50.100  1.00  0.00    -0.274 OA
HETATM   17  N2  UNL     1      23.620   2.860  51.882  1.00  0.00    -0.351 N 
HETATM   18  C21 UNL     1      23.244   2.028  53.001  1.00  0.00     0.131 A 
HETATM   19  H20 UNL     1      19.744   2.164  53.381  1.00  0.00     0.165 HD
HETATM   20  H23 UNL     1      23.840   3.837  52.271  1.00  0.00     0.163 HD
ENDROOT
BRANCH   1  21
HETATM   21  C6  UNL     1      25.269   0.628  52.661  1.00  0.00     0.009 C 
HETATM   22  C5  UNL     1      26.065   0.305  53.644  1.00  0.00     0.003 C 
BRANCH  22  23
HETATM   23  C4  UNL     1      27.450   0.105  53.910  1.00  0.00     0.032 C 
BRANCH  23  24
HETATM   24  C3  UNL     1      28.715  -0.017  54.059  1.00  0.00     0.045 C 
BRANCH  24  25
HETATM   25  C2  UNL     1      29.876  -0.898  53.871  1.00  0.00     0.060 C 
HETATM   26  C1  UNL     1      29.392  -2.192  53.254  1.00  0.00     0.012 C 
ENDBRANCH  24  25
BRANCH  24  27
HETATM   27  O3  UNL     1      28.837   1.238  54.607  1.00  0.00    -0.360 OA
HETATM   28  C22 UNL     1      28.922   2.418  53.840  1.00  0.00     0.209 C 
ENDBRANCH  24  27
ENDBRANCH  23  24
ENDBRANCH  22  23
ENDBRANCH   1  21
BRANCH  11  29
HETATM   29  C17 UNL     1      17.163   0.714  50.061  1.00  0.00     0.288 C 
HETATM   30  F1  UNL     1      17.051  -0.573  49.590  1.00  0.00    -0.248 F 
ENDBRANCH  11  29
TORSDOF 6
ENDMDL
MODEL 2
REMARK VINA RESULT:      -7.8      3.238      4.298
REMARK  6 active torsions:
REMARK  status: ('A' for Active; 'I' for Inactive)
REMARK    1  A    between atoms: C2_2  and  C3_3 
REMARK    2  A    between atoms: C3_3  and  C4_4 
REMARK    3  A    between atoms: C3_3  and  O3_27 
REMARK    4  A    between atoms: C4_4  and  C5_5 
REMARK    5  A    between atoms: C6_6  and  C7_7 
REMARK    6  A    between atoms: C16_17  and  C17_18 
ROOT
HETATM    1  C7  UNL     1      23.305   2.259  52.253  1.00  0.00    -0.035 A 
HETATM    2  C8  UNL     1      22.045   1.895  51.947  1.00  0.00     0.009 A 
HETATM    3  C9  UNL     1      21.137   3.039  51.984  1.00  0.00    -0.003 A 
HETATM    4  C10 UNL     1      21.805   4.144  52.301  1.00  0.00    -0.013 A 
HETATM    5  C11 UNL     1      23.166   4.638  52.632  1.00  0.00     0.085 A 
HETATM    6  C12 UNL     1      23.594   5.568  51.483  1.00  0.00     0.015 C 
HETATM    7  C13 UNL     1      24.557   5.612  50.554  1.00  0.00     0.006 C 
HETATM    8  C14 UNL     1      24.133   4.874  49.287  1.00  0.00     0.043 C 
HETATM    9  C15 UNL     1      23.738   5.867  48.308  1.00  0.00     0.184 C 
HETATM   10  O1  UNL     1      22.535   6.516  48.492  1.00  0.00    -0.351 OA
HETATM   11  C16 UNL     1      21.719   7.186  49.392  1.00  0.00     0.090 C 
HETATM   12  C18 UNL     1      21.586   7.064  50.729  1.00  0.00     0.122 C 
HETATM   13  N1  UNL     1      22.457   6.437  51.725  1.00  0.00    -0.366 N 
HETATM   14  C19 UNL     1      25.200   3.916  49.151  1.00  0.00     0.113 C 
HETATM   15  C20 UNL     1      25.740   3.510  50.491  1.00  0.00     0.218 C 
HETATM   16  O2  UNL     1      26.884   3.000  50.388  1.00  0.00    -0.274 OA
HETATM   17  N2  UNL     1      25.242   3.576  51.820  1.00  0.00    -0.351 N 
HETATM   18  C21 UNL     1      24.071   3.434  52.654  1.00  0.00     0.131 A 
HETATM   19  H20 UNL     1      22.380   6.523  52.757  1.00  0.00     0.165 HD
HETATM   20  H23 UNL     1      26.061   3.845  52.463  1.00  0.00     0.163 HD
ENDROOT
BRANCH   1  21
HETATM   21  C6  UNL     1      23.981   1.005  52.142  1.00  0.00     0.009 C 
HETATM   22  C5  UNL     1      25.024   0.756  52.888  1.00  0.00     0.003 C 
BRANCH  22  23
HETATM   23  C4  UNL     1      25.975  -0.277  53.129  1.00  0.00     0.032 C 
BRANCH  23  24
HETATM   24  C3  UNL     1      26.851  -1.202  53.239  1.00  0.00     0.045 C 
BRANCH  24  25
HETATM   25  C2  UNL     1      27.460  -2.376  52.596  1.00  0.00     0.060 C 
HETATM   26  C1  UNL     1      28.891  -2.487  53.074  1.00  0.00     0.012 C 
ENDBRANCH  24  25
BRANCH  24  27
HETATM   27  O3  UNL     1      27.261  -0.757  54.474  1.00  0.00    -0.360 OA
HETATM   28  C22 UNL     1      28.058   0.390  54.663  1.00  0.00     0.209 C 
ENDBRANCH  24  27
ENDBRANCH  23  24
ENDBRANCH  22  23
ENDBRANCH   1  21
BRANCH  11  29
HETATM   29  C17 UNL     1      20.790   8.231  48.970  1.00  0.00     0.288 C 
HETATM   30  F1  UNL     1      20.442   9.046  50.021  1.00  0.00    -0.248 F 
ENDBRANCH  11  29
TORSDOF 6
ENDMDL
MODEL 3
REMARK VINA RESULT:      -7.8      2.450      2.726
REMARK  6 active torsions:
REMARK  status: ('A' for Active; 'I' for Inactive)
REMARK    1  A    between atoms: C2_2  and  C3_3 
REMARK    2  A    between atoms: C3_3  and  C4_4 
REMARK    3  A    between atoms: C3_3  and  O3_27 
REMARK    4  A    between atoms: C4_4  and  C5_5 
REMARK    5  A    between atoms: C6_6  and  C7_7 
REMARK    6  A    between atoms: C16_17  and  C17_18 
ROOT
HETATM    1  C7  UNL     1      24.160   1.449  52.579  1.00  0.00    -0.035 A 
HETATM    2  C8  UNL     1      23.171   0.554  52.386  1.00  0.00     0.009 A 
HETATM    3  C9  UNL     1      21.862   1.201  52.370  1.00  0.00    -0.003 A 
HETATM    4  C10 UNL     1      21.998   2.513  52.539  1.00  0.00    -0.013 A 
HETATM    5  C11 UNL     1      23.021   3.571  52.738  1.00  0.00     0.085 A 
HETATM    6  C12 UNL     1      22.993   4.460  51.482  1.00  0.00     0.015 C 
HETATM    7  C13 UNL     1      23.831   4.803  50.496  1.00  0.00     0.006 C 
HETATM    8  C14 UNL     1      23.745   3.819  49.333  1.00  0.00     0.043 C 
HETATM    9  C15 UNL     1      22.949   4.435  48.290  1.00  0.00     0.184 C 
HETATM   10  O1  UNL     1      21.586   4.528  48.485  1.00  0.00    -0.351 OA
HETATM   11  C16 UNL     1      20.575   4.885  49.366  1.00  0.00     0.090 C 
HETATM   12  C18 UNL     1      20.527   4.869  50.713  1.00  0.00     0.122 C 
HETATM   13  N1  UNL     1      21.597   4.786  51.710  1.00  0.00    -0.366 N 
HETATM   14  C19 UNL     1      25.116   3.395  49.224  1.00  0.00     0.113 C 
HETATM   15  C20 UNL     1      25.798   3.408  50.561  1.00  0.00     0.218 C 
HETATM   16  O2  UNL     1      27.049   3.423  50.436  1.00  0.00    -0.274 OA
HETATM   17  N2  UNL     1      25.339   3.406  51.905  1.00  0.00    -0.351 N 
HETATM   18  C21 UNL     1      24.354   2.875  52.819  1.00  0.00     0.131 A 
HETATM   19  H20 UNL     1      21.506   4.946  52.732  1.00  0.00     0.165 HD
HETATM   20  H23 UNL     1      25.974   4.066  52.469  1.00  0.00     0.163 HD
ENDROOT
BRANCH   1  21
HETATM   21  C6  UNL     1      25.305   0.596  52.546  1.00  0.00     0.009 C 
HETATM   22  C5  UNL     1      26.280   0.778  53.396  1.00  0.00     0.003 C 
BRANCH  22  23
HETATM   23  C4  UNL     1      27.548   0.228  53.739  1.00  0.00     0.032 C 
BRANCH  23  24
HETATM   24  C3  UNL     1      28.727  -0.166  54.042  1.00  0.00     0.045 C 
BRANCH  24  25
HETATM   25  C2  UNL     1      29.769  -1.172  53.792  1.00  0.00     0.060 C 
HETATM   26  C1  UNL     1      29.111  -2.394  53.189  1.00  0.00     0.012 C 
ENDBRANCH  24  25
BRANCH  24  27
HETATM   27  O3  UNL     1      28.908   0.858  54.942  1.00  0.00    -0.360 OA
HETATM   28  C22 UNL     1      29.544   2.075  54.619  1.00  0.00     0.209 C 
ENDBRANCH  24  27
ENDBRANCH  23  24
ENDBRANCH  22  23
ENDBRANCH   1  21
BRANCH  11  29
HETATM   29  C17 UNL     1      19.282   5.384  48.904  1.00  0.00     0.288 C 
HETATM   30  F1  UNL     1      18.397   5.521  49.946  1.00  0.00    -0.248 F 
ENDBRANCH  11  29
TORSDOF 6
ENDMDL
MODEL 4
REMARK VINA RESULT:      -7.5      3.787      5.390
REMARK  6 active torsions:
REMARK  status: ('A' for Active; 'I' for Inactive)
REMARK    1  A    between atoms: C2_2  and  C3_3 
REMARK    2  A    between atoms: C3_3  and  C4_4 
REMARK    3  A    between atoms: C3_3  and  O3_27 
REMARK    4  A    between atoms: C4_4  and  C5_5 
REMARK    5  A    between atoms: C6_6  and  C7_7 
REMARK    6  A    between atoms: C16_17  and  C17_18 
ROOT
HETATM    1  C7  UNL     1      25.808   3.286  50.507  1.00  0.00    -0.035 A 
HETATM    2  C8  UNL     1      26.551   2.215  50.845  1.00  0.00     0.009 A 
HETATM    3  C9  UNL     1      26.048   1.581  52.062  1.00  0.00    -0.003 A 
HETATM    4  C10 UNL     1      24.976   2.230  52.506  1.00  0.00    -0.013 A 
HETATM    5  C11 UNL     1      24.092   3.383  52.201  1.00  0.00     0.085 A 
HETATM    6  C12 UNL     1      22.710   2.805  51.848  1.00  0.00     0.015 C 
HETATM    7  C13 UNL     1      21.888   2.783  50.792  1.00  0.00     0.006 C 
HETATM    8  C14 UNL     1      22.192   1.596  49.882  1.00  0.00     0.043 C 
HETATM    9  C15 UNL     1      21.193   0.577  50.137  1.00  0.00     0.184 C 
HETATM   10  O1  UNL     1      21.280  -0.135  51.316  1.00  0.00    -0.351 OA
HETATM   11  C16 UNL     1      21.447  -0.059  52.692  1.00  0.00     0.090 C 
HETATM   12  C18 UNL     1      22.115   0.829  53.456  1.00  0.00     0.122 C 
HETATM   13  N1  UNL     1      22.610   2.173  53.152  1.00  0.00    -0.366 N 
HETATM   14  C19 UNL     1      22.435   2.260  48.628  1.00  0.00     0.113 C 
HETATM   15  C20 UNL     1      23.032   3.620  48.839  1.00  0.00     0.218 C 
HETATM   16  O2  UNL     1      22.891   4.345  47.822  1.00  0.00    -0.274 OA
HETATM   17  N2  UNL     1      23.708   4.247  49.920  1.00  0.00    -0.351 N 
HETATM   18  C21 UNL     1      24.667   4.060  50.985  1.00  0.00     0.131 A 
HETATM   19  H20 UNL     1      22.969   2.870  53.833  1.00  0.00     0.165 HD
HETATM   20  H23 UNL     1      23.369   5.266  49.972  1.00  0.00     0.163 HD
ENDROOT
BRANCH   1  21
HETATM   21  C6  UNL     1      26.475   3.712  49.317  1.00  0.00     0.009 C 
HETATM   22  C5  UNL     1      27.291   4.731  49.354  1.00  0.00     0.003 C 
BRANCH  22  23
HETATM   23  C4  UNL     1      28.136   5.487  48.493  1.00  0.00     0.032 C 
BRANCH  23  24
HETATM   24  C3  UNL     1      28.977   6.145  47.788  1.00  0.00     0.045 C 
BRANCH  24  25
HETATM   25  C2  UNL     1      29.173   7.313  46.917  1.00  0.00     0.060 C 
HETATM   26  C1  UNL     1      27.854   8.046  46.804  1.00  0.00     0.012 C 
ENDBRANCH  24  25
BRANCH  24  27
HETATM   27  O3  UNL     1      30.004   5.283  48.088  1.00  0.00    -0.360 OA
HETATM   28  C22 UNL     1      31.248   5.703  48.604  1.00  0.00     0.209 C 
ENDBRANCH  24  27
ENDBRANCH  23  24
ENDBRANCH  22  23
ENDBRANCH   1  21
BRANCH  11  29
HETATM   29  C17 UNL     1      20.859  -1.039  53.601  1.00  0.00     0.288 C 
HETATM   30  F1  UNL     1      21.389  -0.932  54.865  1.00  0.00    -0.248 F 
ENDBRANCH  11  29
TORSDOF 6
ENDMDL
MODEL 5
REMARK VINA RESULT:      -7.5      2.070      2.633
REMARK  6 active torsions:
REMARK  status: ('A' for Active; 'I' for Inactive)
REMARK    1  A    between atoms: C2_2  and  C3_3 
REMARK    2  A    between atoms: C3_3  and  C4_4 
REMARK    3  A    between atoms: C3_3  and  O3_27 
REMARK    4  A    between atoms: C4_4  and  C5_5 
REMARK    5  A    between atoms: C6_6  and  C7_7 
REMARK    6  A    between atoms: C16_17  and  C17_18 
ROOT
HETATM    1  C7  UNL     1      23.694   2.681  52.821  1.00  0.00    -0.035 A 
HETATM    2  C8  UNL     1      23.086   1.487  52.961  1.00  0.00     0.009 A 
HETATM    3  C9  UNL     1      21.654   1.583  52.689  1.00  0.00    -0.003 A 
HETATM    4  C10 UNL     1      21.333   2.831  52.361  1.00  0.00    -0.013 A 
HETATM    5  C11 UNL     1      21.920   4.181  52.167  1.00  0.00     0.085 A 
HETATM    6  C12 UNL     1      21.785   4.515  50.670  1.00  0.00     0.015 C 
HETATM    7  C13 UNL     1      22.598   4.771  49.638  1.00  0.00     0.006 C 
HETATM    8  C14 UNL     1      23.001   3.486  48.923  1.00  0.00     0.043 C 
HETATM    9  C15 UNL     1      22.206   3.383  47.715  1.00  0.00     0.184 C 
HETATM   10  O1  UNL     1      20.873   3.050  47.844  1.00  0.00    -0.351 OA
HETATM   11  C16 UNL     1      19.687   3.306  48.516  1.00  0.00     0.090 C 
HETATM   12  C18 UNL     1      19.455   3.736  49.772  1.00  0.00     0.122 C 
HETATM   13  N1  UNL     1      20.341   4.384  50.742  1.00  0.00    -0.366 N 
HETATM   14  C19 UNL     1      24.437   3.564  48.996  1.00  0.00     0.113 C 
HETATM   15  C20 UNL     1      24.880   4.274  50.242  1.00  0.00     0.218 C 
HETATM   16  O2  UNL     1      26.063   4.686  50.137  1.00  0.00    -0.274 OA
HETATM   17  N2  UNL     1      24.260   4.570  51.485  1.00  0.00    -0.351 N 
HETATM   18  C21 UNL     1      23.380   4.074  52.518  1.00  0.00     0.131 A 
HETATM   19  H20 UNL     1      20.058   4.841  51.631  1.00  0.00     0.165 HD
HETATM   20  H23 UNL     1      24.560   5.562  51.772  1.00  0.00     0.163 HD
ENDROOT
BRANCH   1  21
HETATM   21  C6  UNL     1      25.046   2.332  53.122  1.00  0.00     0.009 C 
HETATM   22  C5  UNL     1      25.397   1.077  53.189  1.00  0.00     0.003 C 
BRANCH  22  23
HETATM   23  C4  UNL     1      26.547   0.275  53.441  1.00  0.00     0.032 C 
BRANCH  23  24
HETATM   24  C3  UNL     1      27.639  -0.354  53.666  1.00  0.00     0.045 C 
BRANCH  24  25
HETATM   25  C2  UNL     1      29.073  -0.222  53.959  1.00  0.00     0.060 C 
HETATM   26  C1  UNL     1      29.343   1.211  54.363  1.00  0.00     0.012 C 
ENDBRANCH  24  25
BRANCH  24  27
HETATM   27  O3  UNL     1      27.032  -1.582  53.546  1.00  0.00    -0.360 OA
HETATM   28  C22 UNL     1      26.909  -2.273  52.323  1.00  0.00     0.209 C 
ENDBRANCH  24  27
ENDBRANCH  23  24
ENDBRANCH  22  23
ENDBRANCH   1  21
BRANCH  11  29
HETATM   29  C17 UNL     1      18.381   3.125  47.884  1.00  0.00     0.288 C 
HETATM   30  F1  UNL     1      17.360   3.430  48.752  1.00  0.00    -0.248 F 
ENDBRANCH  11  29
TORSDOF 6
ENDMDL
MODEL 6
REMARK VINA RESULT:      -7.0      2.614      3.973
REMARK  6 active torsions:
REMARK  status: ('A' for Active; 'I' for Inactive)
REMARK    1  A    between atoms: C2_2  and  C3_3 
REMARK    2  A    between atoms: C3_3  and  C4_4 
REMARK    3  A    between atoms: C3_3  and  O3_27 
REMARK    4  A    between atoms: C4_4  and  C5_5 
REMARK    5  A    between atoms: C6_6  and  C7_7 
REMARK    6  A    between atoms: C16_17  and  C17_18 
ROOT
HETATM    1  C7  UNL     1      23.374   1.850  50.792  1.00  0.00    -0.035 A 
HETATM    2  C8  UNL     1      24.029   2.893  50.246  1.00  0.00     0.009 A 
HETATM    3  C9  UNL     1      23.475   3.246  48.941  1.00  0.00    -0.003 A 
HETATM    4  C10 UNL     1      22.457   2.444  48.644  1.00  0.00    -0.013 A 
HETATM    5  C11 UNL     1      21.668   1.304  49.175  1.00  0.00     0.085 A 
HETATM    6  C12 UNL     1      20.245   1.830  49.437  1.00  0.00     0.015 C 
HETATM    7  C13 UNL     1      19.426   1.986  50.484  1.00  0.00     0.006 C 
HETATM    8  C14 UNL     1      19.637   3.343  51.150  1.00  0.00     0.043 C 
HETATM    9  C15 UNL     1      18.560   4.215  50.725  1.00  0.00     0.184 C 
HETATM   10  O1  UNL     1      18.587   4.697  49.433  1.00  0.00    -0.351 OA
HETATM   11  C16 UNL     1      18.757   4.377  48.093  1.00  0.00     0.090 C 
HETATM   12  C18 UNL     1      19.491   3.416  47.498  1.00  0.00     0.122 C 
HETATM   13  N1  UNL     1      20.092   2.195  48.040  1.00  0.00    -0.366 N 
HETATM   14  C19 UNL     1      19.935   2.948  52.502  1.00  0.00     0.113 C 
HETATM   15  C20 UNL     1      20.637   1.622  52.539  1.00  0.00     0.218 C 
HETATM   16  O2  UNL     1      20.556   1.093  53.677  1.00  0.00    -0.274 OA
HETATM   17  N2  UNL     1      21.359   0.858  51.583  1.00  0.00    -0.351 N 
HETATM   18  C21 UNL     1      22.297   0.914  50.487  1.00  0.00     0.131 A 
HETATM   19  H20 UNL     1      20.504   1.412  47.495  1.00  0.00     0.165 HD
HETATM   20  H23 UNL     1      21.101  -0.176  51.729  1.00  0.00     0.163 HD
ENDROOT
BRANCH   1  21
HETATM   21  C6  UNL     1      24.076   1.709  52.029  1.00  0.00     0.009 C 
HETATM   22  C5  UNL     1      25.119   0.928  52.102  1.00  0.00     0.003 C 
BRANCH  22  23
HETATM   23  C4  UNL     1      26.088   0.484  53.047  1.00  0.00     0.032 C 
BRANCH  23  24
HETATM   24  C3  UNL     1      26.888   0.010  53.926  1.00  0.00     0.045 C 
BRANCH  24  25
HETATM   25  C2  UNL     1      28.174   0.190  54.615  1.00  0.00     0.060 C 
HETATM   26  C1  UNL     1      29.208  -0.664  53.914  1.00  0.00     0.012 C 
ENDBRANCH  24  25
BRANCH  24  27
HETATM   27  O3  UNL     1      26.055  -1.048  54.207  1.00  0.00    -0.360 OA
HETATM   28  C22 UNL     1      24.988  -0.975  55.126  1.00  0.00     0.209 C 
ENDBRANCH  24  27
ENDBRANCH  23  24
ENDBRANCH  22  23
ENDBRANCH   1  21
BRANCH  11  29
HETATM   29  C17 UNL     1      18.090   5.120  47.026  1.00  0.00     0.288 C 
HETATM   30  F1  UNL     1      17.550   6.293  47.496  1.00  0.00    -0.248 F 
ENDBRANCH  11  29
TORSDOF 6
ENDMDL
MODEL 7
REMARK VINA RESULT:      -6.9     10.612     12.359
REMARK  6 active torsions:
REMARK  status: ('A' for Active; 'I' for Inactive)
REMARK    1  A    between atoms: C2_2  and  C3_3 
REMARK    2  A    between atoms: C3_3  and  C4_4 
REMARK    3  A    between atoms: C3_3  and  O3_27 
REMARK    4  A    between atoms: C4_4  and  C5_5 
REMARK    5  A    between atoms: C6_6  and  C7_7 
REMARK    6  A    between atoms: C16_17  and  C17_18 
ROOT
HETATM    1  C7  UNL     1      30.552   7.334  47.825  1.00  0.00    -0.035 A 
HETATM    2  C8  UNL     1      29.325   7.066  47.338  1.00  0.00     0.009 A 
HETATM    3  C9  UNL     1      28.318   7.955  47.911  1.00  0.00    -0.003 A 
HETATM    4  C10 UNL     1      28.888   8.806  48.758  1.00  0.00    -0.013 A 
HETATM    5  C11 UNL     1      30.203   9.184  49.335  1.00  0.00     0.085 A 
HETATM    6  C12 UNL     1      30.528  10.597  48.818  1.00  0.00     0.015 C 
HETATM    7  C13 UNL     1      31.469  11.182  48.066  1.00  0.00     0.006 C 
HETATM    8  C14 UNL     1      31.095  11.141  46.587  1.00  0.00     0.043 C 
HETATM    9  C15 UNL     1      30.597  12.453  46.222  1.00  0.00     0.184 C 
HETATM   10  O1  UNL     1      29.342  12.816  46.665  1.00  0.00    -0.351 OA
HETATM   11  C16 UNL     1      28.482  12.874  47.753  1.00  0.00     0.090 C 
HETATM   12  C18 UNL     1      28.381  12.090  48.845  1.00  0.00     0.122 C 
HETATM   13  N1  UNL     1      29.320  11.127  49.424  1.00  0.00    -0.366 N 
HETATM   14  C19 UNL     1      32.241  10.476  46.027  1.00  0.00     0.113 C 
HETATM   15  C20 UNL     1      32.836   9.502  47.002  1.00  0.00     0.218 C 
HETATM   16  O2  UNL     1      34.020   9.213  46.695  1.00  0.00    -0.274 OA
HETATM   17  N2  UNL     1      32.354   8.853  48.170  1.00  0.00    -0.351 N 
HETATM   18  C21 UNL     1      31.214   8.213  48.783  1.00  0.00     0.131 A 
HETATM   19  H20 UNL     1      29.251  10.679  50.358  1.00  0.00     0.165 HD
HETATM   20  H23 UNL     1      33.155   8.834  48.887  1.00  0.00     0.163 HD
ENDROOT
BRANCH   1  21
HETATM   21  C6  UNL     1      31.337   6.367  47.125  1.00  0.00     0.009 C 
HETATM   22  C5  UNL     1      31.348   5.123  47.522  1.00  0.00     0.003 C 
BRANCH  22  23
HETATM   23  C4  UNL     1      31.932   3.871  47.179  1.00  0.00     0.032 C 
BRANCH  23  24
HETATM   24  C3  UNL     1      32.552   2.798  46.861  1.00  0.00     0.045 C 
BRANCH  24  25
HETATM   25  C2  UNL     1      32.633   1.343  47.057  1.00  0.00     0.060 C 
HETATM   26  C1  UNL     1      31.451   0.706  46.360  1.00  0.00     0.012 C 
ENDBRANCH  24  25
BRANCH  24  27
HETATM   27  O3  UNL     1      33.415   3.466  46.025  1.00  0.00    -0.360 OA
HETATM   28  C22 UNL     1      34.819   3.370  46.117  1.00  0.00     0.209 C 
ENDBRANCH  24  27
ENDBRANCH  23  24
ENDBRANCH  22  23
ENDBRANCH   1  21
BRANCH  11  29
HETATM   29  C17 UNL     1      27.456  13.907  47.878  1.00  0.00     0.288 C 
HETATM   30  F1  UNL     1      27.883  15.103  47.354  1.00  0.00    -0.248 F 
ENDBRANCH  11  29
TORSDOF 6
ENDMDL
MODEL 8
REMARK VINA RESULT:      -6.8      2.536      3.201
REMARK  6 active torsions:
REMARK  status: ('A' for Active; 'I' for Inactive)
REMARK    1  A    between atoms: C2_2  and  C3_3 
REMARK    2  A    between atoms: C3_3  and  C4_4 
REMARK    3  A    between atoms: C3_3  and  O3_27 
REMARK    4  A    between atoms: C4_4  and  C5_5 
REMARK    5  A    between atoms: C6_6  and  C7_7 
REMARK    6  A    between atoms: C16_17  and  C17_18 
ROOT
HETATM    1  C7  UNL     1      22.148   2.157  51.920  1.00  0.00    -0.035 A 
HETATM    2  C8  UNL     1      22.005   0.895  51.471  1.00  0.00     0.009 A 
HETATM    3  C9  UNL     1      20.785   0.746  50.681  1.00  0.00    -0.003 A 
HETATM    4  C10 UNL     1      20.143   1.908  50.607  1.00  0.00    -0.013 A 
HETATM    5  C11 UNL     1      20.228   3.325  51.044  1.00  0.00     0.085 A 
HETATM    6  C12 UNL     1      20.428   4.172  49.774  1.00  0.00     0.015 C 
HETATM    7  C13 UNL     1      21.356   4.995  49.271  1.00  0.00     0.006 C 
HETATM    8  C14 UNL     1      22.392   4.224  48.458  1.00  0.00     0.043 C 
HETATM    9  C15 UNL     1      22.082   4.413  47.055  1.00  0.00     0.184 C 
HETATM   10  O1  UNL     1      20.988   3.750  46.538  1.00  0.00    -0.351 OA
HETATM   11  C16 UNL     1      19.648   3.435  46.715  1.00  0.00     0.090 C 
HETATM   12  C18 UNL     1      18.917   3.275  47.837  1.00  0.00     0.122 C 
HETATM   13  N1  UNL     1      19.178   3.685  49.218  1.00  0.00    -0.366 N 
HETATM   14  C19 UNL     1      23.610   4.605  49.123  1.00  0.00     0.113 C 
HETATM   15  C20 UNL     1      23.377   4.858  50.584  1.00  0.00     0.218 C 
HETATM   16  O2  UNL     1      24.303   5.547  51.082  1.00  0.00    -0.274 OA
HETATM   17  N2  UNL     1      22.354   4.492  51.500  1.00  0.00    -0.351 N 
HETATM   18  C21 UNL     1      21.454   3.440  51.910  1.00  0.00     0.131 A 
HETATM   19  H20 UNL     1      18.500   3.679  50.005  1.00  0.00     0.165 HD
HETATM   20  H23 UNL     1      22.174   5.335  52.143  1.00  0.00     0.163 HD
ENDROOT
BRANCH   1  21
HETATM   21  C6  UNL     1      23.382   2.050  52.634  1.00  0.00     0.009 C 
HETATM   22  C5  UNL     1      24.352   1.318  52.156  1.00  0.00     0.003 C 
BRANCH  22  23
HETATM   23  C4  UNL     1      25.682   0.921  52.475  1.00  0.00     0.032 C 
BRANCH  23  24
HETATM   24  C3  UNL     1      26.876   0.506  52.671  1.00  0.00     0.045 C 
BRANCH  24  25
HETATM   25  C2  UNL     1      27.723  -0.668  52.926  1.00  0.00     0.060 C 
HETATM   26  C1  UNL     1      26.929  -1.908  52.573  1.00  0.00     0.012 C 
ENDBRANCH  24  25
BRANCH  24  27
HETATM   27  O3  UNL     1      27.403   1.772  52.566  1.00  0.00    -0.360 OA
HETATM   28  C22 UNL     1      28.376   2.285  53.448  1.00  0.00     0.209 C 
ENDBRANCH  24  27
ENDBRANCH  23  24
ENDBRANCH  22  23
ENDBRANCH   1  21
BRANCH  11  29
HETATM   29  C17 UNL     1      18.746   3.210  45.588  1.00  0.00     0.288 C 
HETATM   30  F1  UNL     1      19.425   3.229  44.393  1.00  0.00    -0.248 F 
ENDBRANCH  11  29
TORSDOF 6
ENDMDL
MODEL 9
REMARK VINA RESULT:      -6.8      8.502     11.351
REMARK  6 active torsions:
REMARK  status: ('A' for Active; 'I' for Inactive)
REMARK    1  A    between atoms: C2_2  and  C3_3 
REMARK    2  A    between atoms: C3_3  and  C4_4 
REMARK    3  A    between atoms: C3_3  and  O3_27 
REMARK    4  A    between atoms: C4_4  and  C5_5 
REMARK    5  A    between atoms: C6_6  and  C7_7 
REMARK    6  A    between atoms: C16_17  and  C17_18 
ROOT
HETATM    1  C7  UNL     1      28.012   6.516  47.875  1.00  0.00    -0.035 A 
HETATM    2  C8  UNL     1      29.108   5.849  48.289  1.00  0.00     0.009 A 
HETATM    3  C9  UNL     1      30.300   6.283  47.566  1.00  0.00    -0.003 A 
HETATM    4  C10 UNL     1      29.985   7.236  46.694  1.00  0.00    -0.013 A 
HETATM    5  C11 UNL     1      28.837   8.031  46.188  1.00  0.00     0.085 A 
HETATM    6  C12 UNL     1      29.089   9.492  46.604  1.00  0.00     0.015 C 
HETATM    7  C13 UNL     1      28.498  10.416  47.372  1.00  0.00     0.006 C 
HETATM    8  C14 UNL     1      28.982  10.323  48.816  1.00  0.00     0.043 C 
HETATM    9  C15 UNL     1      29.947  11.384  49.028  1.00  0.00     0.184 C 
HETATM   10  O1  UNL     1      31.197  11.246  48.460  1.00  0.00    -0.351 OA
HETATM   11  C16 UNL     1      31.905  10.932  47.310  1.00  0.00     0.090 C 
HETATM   12  C18 UNL     1      31.611  10.107  46.285  1.00  0.00     0.122 C 
HETATM   13  N1  UNL     1      30.337   9.518  45.864  1.00  0.00    -0.366 N 
HETATM   14  C19 UNL     1      27.737  10.146  49.518  1.00  0.00     0.113 C 
HETATM   15  C20 UNL     1      26.740   9.402  48.678  1.00  0.00     0.218 C 
HETATM   16  O2  UNL     1      25.568   9.576  49.098  1.00  0.00    -0.274 OA
HETATM   17  N2  UNL     1      26.840   8.561  47.537  1.00  0.00    -0.351 N 
HETATM   18  C21 UNL     1      27.610   7.521  46.897  1.00  0.00     0.131 A 
HETATM   19  H20 UNL     1      30.148   9.025  44.970  1.00  0.00     0.165 HD
HETATM   20  H23 UNL     1      26.015   8.793  46.887  1.00  0.00     0.163 HD
ENDROOT
BRANCH   1  21
HETATM   21  C6  UNL     1      27.011   5.936  48.713  1.00  0.00     0.009 C 
HETATM   22  C5  UNL     1      27.093   4.678  49.055  1.00  0.00     0.003 C 
BRANCH  22  23
HETATM   23  C4  UNL     1      26.389   3.705  49.820  1.00  0.00     0.032 C 
BRANCH  23  24
HETATM   24  C3  UNL     1      25.783   2.888  50.596  1.00  0.00     0.045 C 
BRANCH  24  25
HETATM   25  C2  UNL     1      24.476   2.426  51.084  1.00  0.00     0.060 C 
HETATM   26  C1  UNL     1      23.448   2.691  50.005  1.00  0.00     0.012 C 
ENDBRANCH  24  25
BRANCH  24  27
HETATM   27  O3  UNL     1      26.961   2.334  51.040  1.00  0.00    -0.360 OA
HETATM   28  C22 UNL     1      27.249   2.105  52.401  1.00  0.00     0.209 C 
ENDBRANCH  24  27
ENDBRANCH  23  24
ENDBRANCH  22  23
ENDBRANCH   1  21
BRANCH  11  29
HETATM   29  C17 UNL     1      33.212  11.516  47.018  1.00  0.00     0.288 C 
HETATM   30  F1  UNL     1      33.765  10.965  45.886  1.00  0.00    -0.248 F 
ENDBRANCH  11  29
TORSDOF 6
ENDMDL
