MODEL 1
REMARK VINA RESULT:      -9.0      0.000      0.000
REMARK  4 active torsions:
REMARK  status: ('A' for Active; 'I' for Inactive)
REMARK    1  A    between atoms: C1_2  and  C2_3 
REMARK    2  A    between atoms: C1_2  and  C13_18 
REMARK    3  A    between atoms: C6_8  and  N1_9 
REMARK    4  A    between atoms: N1_9  and  C7_10 
ROOT
HETATM    1  C2  UNL     1      25.307   3.147  50.415  1.00  0.00    -0.004 A 
HETATM    2  C3  UNL     1      24.016   2.855  50.656  1.00  0.00     0.013 A 
HETATM    3  C4  UNL     1      23.395   1.842  51.545  1.00  0.00     0.027 A 
HETATM    4  C5  UNL     1      24.049   0.949  52.257  1.00  0.00     0.061 A 
HETATM    5 CL1  UNL     1      23.000  -0.098  53.201  1.00  0.00    -0.082 Cl
HETATM    6  C6  UNL     1      25.453   0.620  52.449  1.00  0.00     0.067 A 
HETATM    7  C11 UNL     1      26.348   1.380  51.843  1.00  0.00     0.010 A 
HETATM    8  C12 UNL     1      26.516   2.542  50.962  1.00  0.00     0.072 A 
ENDROOT
BRANCH   1   9
HETATM    9  C1  UNL     1      25.376   4.228  49.459  1.00  0.00     0.188 C 
HETATM   10  O1  UNL     1      24.250   4.515  48.941  1.00  0.00    -0.287 OA
BRANCH   9  11
HETATM   11  C13 UNL     1      26.421   5.071  48.939  1.00  0.00     0.015 A 
HETATM   12  C14 UNL     1      27.732   4.758  48.679  1.00  0.00     0.015 A 
HETATM   13  C15 UNL     1      28.704   5.573  48.179  1.00  0.00     0.001 A 
HETATM   14  C16 UNL     1      28.348   6.864  47.897  1.00  0.00     0.000 A 
HETATM   15  C17 UNL     1      27.076   7.280  48.118  1.00  0.00     0.001 A 
HETATM   16  C18 UNL     1      26.158   6.395  48.623  1.00  0.00     0.015 A 
ENDBRANCH   9  11
ENDBRANCH   1   9
BRANCH   6  17
HETATM   17  N1  UNL     1      25.860  -0.473  53.256  1.00  0.00    -0.187 N 
HETATM   18  H3  UNL     1      25.064  -0.899  53.784  1.00  0.00     0.184 HD
BRANCH  17  19
HETATM   19  C7  UNL     1      27.200  -0.950  53.347  1.00  0.00     0.726 A 
HETATM   20  N2  UNL     1      27.446  -2.197  52.915  1.00  0.00    -0.075 NA
HETATM   21  C8  UNL     1      28.737  -2.631  53.012  1.00  0.00     0.138 A 
HETATM   22  C9  UNL     1      29.708  -1.782  53.541  1.00  0.00     0.040 A 
HETATM   23  C10 UNL     1      29.418  -0.502  53.976  1.00  0.00     0.138 A 
HETATM   24  N3  UNL     1      28.114  -0.121  53.856  1.00  0.00    -0.075 NA
ENDBRANCH  17  19
ENDBRANCH   6  17
TORSDOF 4
ENDMDL
MODEL 2
REMARK VINA RESULT:      -8.8      3.180      3.982
REMARK  4 active torsions:
REMARK  status: ('A' for Active; 'I' for Inactive)
REMARK    1  A    between atoms: C1_2  and  C2_3 
REMARK    2  A    between atoms: C1_2  and  C13_18 
REMARK    3  A    between atoms: C6_8  and  N1_9 
REMARK    4  A    between atoms: N1_9  and  C7_10 
ROOT
HETATM    1  C2  UNL     1      22.829   0.897  51.533  1.00  0.00    -0.004 A 
HETATM    2  C3  UNL     1      22.045   0.120  52.301  1.00  0.00     0.013 A 
HETATM    3  C4  UNL     1      22.320  -0.584  53.578  1.00  0.00     0.027 A 
HETATM    4  C5  UNL     1      23.483  -0.621  54.193  1.00  0.00     0.061 A 
HETATM    5 CL1  UNL     1      23.456  -1.546  55.687  1.00  0.00    -0.082 Cl
HETATM    6  C6  UNL     1      24.802  -0.069  53.924  1.00  0.00     0.067 A 
HETATM    7  C11 UNL     1      24.937   0.704  52.862  1.00  0.00     0.010 A 
HETATM    8  C12 UNL     1      24.221   1.291  51.724  1.00  0.00     0.072 A 
ENDROOT
BRANCH   1   9
HETATM    9  C1  UNL     1      22.074   1.341  50.384  1.00  0.00     0.188 C 
HETATM   10  O1  UNL     1      21.041   0.635  50.157  1.00  0.00    -0.287 OA
BRANCH   9  11
HETATM   11  C13 UNL     1      22.207   2.402  49.419  1.00  0.00     0.015 A 
HETATM   12  C14 UNL     1      22.561   3.712  49.621  1.00  0.00     0.015 A 
HETATM   13  C15 UNL     1      22.687   4.699  48.688  1.00  0.00     0.001 A 
HETATM   14  C16 UNL     1      22.431   4.360  47.387  1.00  0.00     0.000 A 
HETATM   15  C17 UNL     1      22.071   3.090  47.076  1.00  0.00     0.001 A 
HETATM   16  C18 UNL     1      21.968   2.157  48.076  1.00  0.00     0.015 A 
ENDBRANCH   9  11
ENDBRANCH   1   9
BRANCH   6  17
HETATM   17  N1  UNL     1      25.911  -0.342  54.766  1.00  0.00    -0.187 N 
HETATM   18  H3  UNL     1      25.621  -0.683  55.712  1.00  0.00     0.184 HD
BRANCH  17  19
HETATM   19  C7  UNL     1      27.273  -0.175  54.381  1.00  0.00     0.726 A 
HETATM   20  N2  UNL     1      27.857   1.001  54.658  1.00  0.00    -0.075 NA
HETATM   21  C8  UNL     1      29.162   1.136  54.280  1.00  0.00     0.138 A 
HETATM   22  C9  UNL     1      29.805   0.076  53.642  1.00  0.00     0.040 A 
HETATM   23  C10 UNL     1      29.170  -1.123  53.372  1.00  0.00     0.138 A 
HETATM   24  N3  UNL     1      27.868  -1.202  53.772  1.00  0.00    -0.075 NA
ENDBRANCH  17  19
ENDBRANCH   6  17
TORSDOF 4
ENDMDL
MODEL 3
REMARK VINA RESULT:      -8.5      4.247      7.416
REMARK  4 active torsions:
REMARK  status: ('A' for Active; 'I' for Inactive)
REMARK    1  A    between atoms: C1_2  and  C2_3 
REMARK    2  A    between atoms: C1_2  and  C13_18 
REMARK    3  A    between atoms: C6_8  and  N1_9 
REMARK    4  A    between atoms: N1_9  and  C7_10 
ROOT
HETATM    1  C2  UNL     1      24.597   0.060  53.125  1.00  0.00    -0.004 A 
HETATM    2  C3  UNL     1      23.481  -0.637  53.404  1.00  0.00     0.013 A 
HETATM    3  C4  UNL     1      22.102  -0.527  52.866  1.00  0.00     0.027 A 
HETATM    4  C5  UNL     1      21.691   0.379  52.004  1.00  0.00     0.061 A 
HETATM    5 CL1  UNL     1      19.993   0.219  51.577  1.00  0.00    -0.082 Cl
HETATM    6  C6  UNL     1      22.318   1.495  51.312  1.00  0.00     0.067 A 
HETATM    7  C11 UNL     1      23.612   1.681  51.497  1.00  0.00     0.010 A 
HETATM    8  C12 UNL     1      24.797   1.164  52.192  1.00  0.00     0.072 A 
ENDROOT
BRANCH   1   9
HETATM    9  C1  UNL     1      25.684  -0.447  53.931  1.00  0.00     0.188 C 
HETATM   10  O1  UNL     1      25.293  -1.082  54.962  1.00  0.00    -0.287 OA
BRANCH   9  11
HETATM   11  C13 UNL     1      27.121  -0.408  53.854  1.00  0.00     0.015 A 
HETATM   12  C14 UNL     1      27.986   0.536  54.349  1.00  0.00     0.015 A 
HETATM   13  C15 UNL     1      29.347   0.548  54.270  1.00  0.00     0.001 A 
HETATM   14  C16 UNL     1      29.941  -0.499  53.621  1.00  0.00     0.000 A 
HETATM   15  C17 UNL     1      29.178  -1.489  53.091  1.00  0.00     0.001 A 
HETATM   16  C18 UNL     1      27.814  -1.425  53.216  1.00  0.00     0.015 A 
ENDBRANCH   9  11
ENDBRANCH   1   9
BRANCH   6  17
HETATM   17  N1  UNL     1      21.577   2.359  50.464  1.00  0.00    -0.187 N 
HETATM   18  H3  UNL     1      20.827   1.855  49.936  1.00  0.00     0.184 HD
BRANCH  17  19
HETATM   19  C7  UNL     1      21.815   3.758  50.337  1.00  0.00     0.726 A 
HETATM   20  N2  UNL     1      21.397   4.552  51.335  1.00  0.00    -0.075 NA
HETATM   21  C8  UNL     1      21.637   5.888  51.191  1.00  0.00     0.138 A 
HETATM   22  C9  UNL     1      22.286   6.350  50.046  1.00  0.00     0.040 A 
HETATM   23  C10 UNL     1      22.703   5.501  49.037  1.00  0.00     0.138 A 
HETATM   24  N3  UNL     1      22.437   4.177  49.234  1.00  0.00    -0.075 NA
ENDBRANCH  17  19
ENDBRANCH   6  17
TORSDOF 4
ENDMDL
MODEL 4
REMARK VINA RESULT:      -8.5      3.867      7.259
REMARK  4 active torsions:
REMARK  status: ('A' for Active; 'I' for Inactive)
REMARK    1  A    between atoms: C1_2  and  C2_3 
REMARK    2  A    between atoms: C1_2  and  C13_18 
REMARK    3  A    between atoms: C6_8  and  N1_9 
REMARK    4  A    between atoms: N1_9  and  C7_10 
ROOT
HETATM    1  C2  UNL     1      26.358   2.270  52.691  1.00  0.00    -0.004 A 
HETATM    2  C3  UNL     1      26.614   2.510  51.393  1.00  0.00     0.013 A 
HETATM    3  C4  UNL     1      25.766   3.088  50.321  1.00  0.00     0.027 A 
HETATM    4  C5  UNL     1      24.504   3.437  50.454  1.00  0.00     0.061 A 
HETATM    5 CL1  UNL     1      23.799   4.091  48.982  1.00  0.00    -0.082 Cl
HETATM    6  C6  UNL     1      23.542   3.408  51.545  1.00  0.00     0.067 A 
HETATM    7  C11 UNL     1      23.967   2.997  52.726  1.00  0.00     0.010 A 
HETATM    8  C12 UNL     1      25.141   2.508  53.459  1.00  0.00     0.072 A 
ENDROOT
BRANCH   1   9
HETATM    9  C1  UNL     1      27.531   1.691  53.304  1.00  0.00     0.188 C 
HETATM   10  O1  UNL     1      28.187   2.517  54.015  1.00  0.00    -0.287 OA
BRANCH   9  11
HETATM   11  C13 UNL     1      28.150   0.391  53.308  1.00  0.00     0.015 A 
HETATM   12  C14 UNL     1      29.420   0.041  53.691  1.00  0.00     0.015 A 
HETATM   13  C15 UNL     1      29.982  -1.201  53.693  1.00  0.00     0.001 A 
HETATM   14  C16 UNL     1      29.201  -2.237  53.261  1.00  0.00     0.000 A 
HETATM   15  C17 UNL     1      27.927  -2.003  52.857  1.00  0.00     0.001 A 
HETATM   16  C18 UNL     1      27.438  -0.722  52.888  1.00  0.00     0.015 A 
ENDBRANCH   9  11
ENDBRANCH   1   9
BRANCH   6  17
HETATM   17  N1  UNL     1      22.191   3.804  51.361  1.00  0.00    -0.187 N 
HETATM   18  H3  UNL     1      22.086   4.842  51.289  1.00  0.00     0.184 HD
BRANCH  17  19
HETATM   19  C7  UNL     1      21.092   2.900  51.280  1.00  0.00     0.726 A 
HETATM   20  N2  UNL     1      21.316   1.699  50.725  1.00  0.00    -0.075 NA
HETATM   21  C8  UNL     1      20.248   0.851  50.660  1.00  0.00     0.138 A 
HETATM   22  C9  UNL     1      19.013   1.263  51.158  1.00  0.00     0.040 A 
HETATM   23  C10 UNL     1      18.819   2.511  51.723  1.00  0.00     0.138 A 
HETATM   24  N3  UNL     1      19.920   3.316  51.763  1.00  0.00    -0.075 NA
ENDBRANCH  17  19
ENDBRANCH   6  17
TORSDOF 4
ENDMDL
MODEL 5
REMARK VINA RESULT:      -8.4      4.946      7.565
REMARK  4 active torsions:
REMARK  status: ('A' for Active; 'I' for Inactive)
REMARK    1  A    between atoms: C1_2  and  C2_3 
REMARK    2  A    between atoms: C1_2  and  C13_18 
REMARK    3  A    between atoms: C6_8  and  N1_9 
REMARK    4  A    between atoms: N1_9  and  C7_10 
ROOT
HETATM    1  C2  UNL     1      24.768   0.531  53.440  1.00  0.00    -0.004 A 
HETATM    2  C3  UNL     1      24.308  -0.366  54.331  1.00  0.00     0.013 A 
HETATM    3  C4  UNL     1      22.970  -0.991  54.485  1.00  0.00     0.027 A 
HETATM    4  C5  UNL     1      21.910  -0.709  53.758  1.00  0.00     0.061 A 
HETATM    5 CL1  UNL     1      20.487  -1.637  54.207  1.00  0.00    -0.082 Cl
HETATM    6  C6  UNL     1      21.634   0.201  52.657  1.00  0.00     0.067 A 
HETATM    7  C11 UNL     1      22.642   0.910  52.181  1.00  0.00     0.010 A 
HETATM    8  C12 UNL     1      24.077   1.179  52.330  1.00  0.00     0.072 A 
ENDROOT
BRANCH   1   9
HETATM    9  C1  UNL     1      26.154   0.815  53.730  1.00  0.00     0.188 C 
HETATM   10  O1  UNL     1      26.342   1.982  54.199  1.00  0.00    -0.287 OA
BRANCH   9  11
HETATM   11  C13 UNL     1      27.394   0.091  53.614  1.00  0.00     0.015 A 
HETATM   12  C14 UNL     1      27.604  -1.197  53.192  1.00  0.00     0.015 A 
HETATM   13  C15 UNL     1      28.791  -1.860  53.084  1.00  0.00     0.001 A 
HETATM   14  C16 UNL     1      29.920  -1.174  53.436  1.00  0.00     0.000 A 
HETATM   15  C17 UNL     1      29.827   0.109  53.869  1.00  0.00     0.001 A 
HETATM   16  C18 UNL     1      28.593   0.702  53.948  1.00  0.00     0.015 A 
ENDBRANCH   9  11
ENDBRANCH   1   9
BRANCH   6  17
HETATM   17  N1  UNL     1      20.334   0.331  52.103  1.00  0.00    -0.187 N 
HETATM   18  H3  UNL     1      19.761  -0.536  52.220  1.00  0.00     0.184 HD
BRANCH  17  19
HETATM   19  C7  UNL     1      19.849   1.506  51.459  1.00  0.00     0.726 A 
HETATM   20  N2  UNL     1      19.631   2.588  52.222  1.00  0.00    -0.075 NA
HETATM   21  C8  UNL     1      19.167   3.701  51.582  1.00  0.00     0.138 A 
HETATM   22  C9  UNL     1      18.948   3.660  50.206  1.00  0.00     0.040 A 
HETATM   23  C10 UNL     1      19.184   2.526  49.450  1.00  0.00     0.138 A 
HETATM   24  N3  UNL     1      19.646   1.444  50.141  1.00  0.00    -0.075 NA
ENDBRANCH  17  19
ENDBRANCH   6  17
TORSDOF 4
ENDMDL
MODEL 6
REMARK VINA RESULT:      -8.4      3.810      7.442
REMARK  4 active torsions:
REMARK  status: ('A' for Active; 'I' for Inactive)
REMARK    1  A    between atoms: C1_2  and  C2_3 
REMARK    2  A    between atoms: C1_2  and  C13_18 
REMARK    3  A    between atoms: C6_8  and  N1_9 
REMARK    4  A    between atoms: N1_9  and  C7_10 
ROOT
HETATM    1  C2  UNL     1      25.720   2.156  51.779  1.00  0.00    -0.004 A 
HETATM    2  C3  UNL     1      24.649   2.749  52.335  1.00  0.00     0.013 A 
HETATM    3  C4  UNL     1      23.913   3.982  51.960  1.00  0.00     0.027 A 
HETATM    4  C5  UNL     1      24.242   4.799  50.982  1.00  0.00     0.061 A 
HETATM    5 CL1  UNL     1      23.149   6.165  50.813  1.00  0.00    -0.082 Cl
HETATM    6  C6  UNL     1      25.311   4.839  49.996  1.00  0.00     0.067 A 
HETATM    7  C11 UNL     1      26.163   3.830  49.977  1.00  0.00     0.010 A 
HETATM    8  C12 UNL     1      26.504   2.553  50.614  1.00  0.00     0.072 A 
ENDROOT
BRANCH   1   9
HETATM    9  C1  UNL     1      26.047   0.969  52.534  1.00  0.00     0.188 C 
HETATM   10  O1  UNL     1      25.026   0.369  52.998  1.00  0.00    -0.287 OA
BRANCH   9  11
HETATM   11  C13 UNL     1      27.263   0.288  52.897  1.00  0.00     0.015 A 
HETATM   12  C14 UNL     1      27.547  -1.054  52.851  1.00  0.00     0.015 A 
HETATM   13  C15 UNL     1      28.711  -1.677  53.194  1.00  0.00     0.001 A 
HETATM   14  C16 UNL     1      29.731  -0.883  53.642  1.00  0.00     0.000 A 
HETATM   15  C17 UNL     1      29.558   0.460  53.728  1.00  0.00     0.001 A 
HETATM   16  C18 UNL     1      28.354   1.006  53.361  1.00  0.00     0.015 A 
ENDBRANCH   9  11
ENDBRANCH   1   9
BRANCH   6  17
HETATM   17  N1  UNL     1      25.444   5.916  49.082  1.00  0.00    -0.187 N 
HETATM   18  H3  UNL     1      24.760   5.857  48.292  1.00  0.00     0.184 HD
BRANCH  17  19
HETATM   19  C7  UNL     1      26.397   6.968  49.212  1.00  0.00     0.726 A 
HETATM   20  N2  UNL     1      26.127   7.944  50.093  1.00  0.00    -0.075 NA
HETATM   21  C8  UNL     1      27.055   8.939  50.200  1.00  0.00     0.138 A 
HETATM   22  C9  UNL     1      28.204   8.895  49.411  1.00  0.00     0.040 A 
HETATM   23  C10 UNL     1      28.447   7.872  48.512  1.00  0.00     0.138 A 
HETATM   24  N3  UNL     1      27.488   6.905  48.446  1.00  0.00    -0.075 NA
ENDBRANCH  17  19
ENDBRANCH   6  17
TORSDOF 4
ENDMDL
MODEL 7
REMARK VINA RESULT:      -8.2      3.970      7.745
REMARK  4 active torsions:
REMARK  status: ('A' for Active; 'I' for Inactive)
REMARK    1  A    between atoms: C1_2  and  C2_3 
REMARK    2  A    between atoms: C1_2  and  C13_18 
REMARK    3  A    between atoms: C6_8  and  N1_9 
REMARK    4  A    between atoms: N1_9  and  C7_10 
ROOT
HETATM    1  C2  UNL     1      26.261   2.261  52.658  1.00  0.00    -0.004 A 
HETATM    2  C3  UNL     1      26.565   2.386  51.354  1.00  0.00     0.013 A 
HETATM    3  C4  UNL     1      25.760   2.874  50.207  1.00  0.00     0.027 A 
HETATM    4  C5  UNL     1      24.497   3.240  50.262  1.00  0.00     0.061 A 
HETATM    5 CL1  UNL     1      23.852   3.767  48.716  1.00  0.00    -0.082 Cl
HETATM    6  C6  UNL     1      23.497   3.311  51.316  1.00  0.00     0.067 A 
HETATM    7  C11 UNL     1      23.877   3.002  52.543  1.00  0.00     0.010 A 
HETATM    8  C12 UNL     1      25.019   2.572  53.358  1.00  0.00     0.072 A 
ENDROOT
BRANCH   1   9
HETATM    9  C1  UNL     1      27.406   1.732  53.362  1.00  0.00     0.188 C 
HETATM   10  O1  UNL     1      27.920   2.558  54.181  1.00  0.00    -0.287 OA
BRANCH   9  11
HETATM   11  C13 UNL     1      28.119   0.481  53.363  1.00  0.00     0.015 A 
HETATM   12  C14 UNL     1      29.425   0.233  53.704  1.00  0.00     0.015 A 
HETATM   13  C15 UNL     1      30.078  -0.964  53.704  1.00  0.00     0.001 A 
HETATM   14  C16 UNL     1      29.361  -2.063  53.318  1.00  0.00     0.000 A 
HETATM   15  C17 UNL     1      28.060  -1.931  52.958  1.00  0.00     0.001 A 
HETATM   16  C18 UNL     1      27.477  -0.689  52.987  1.00  0.00     0.015 A 
ENDBRANCH   9  11
ENDBRANCH   1   9
BRANCH   6  17
HETATM   17  N1  UNL     1      22.157   3.697  51.050  1.00  0.00    -0.187 N 
HETATM   18  H3  UNL     1      21.490   2.893  51.106  1.00  0.00     0.184 HD
BRANCH  17  19
HETATM   19  C7  UNL     1      21.751   5.027  50.739  1.00  0.00     0.726 A 
HETATM   20  N2  UNL     1      20.600   5.183  50.066  1.00  0.00    -0.075 NA
HETATM   21  C8  UNL     1      20.232   6.466  49.781  1.00  0.00     0.138 A 
HETATM   22  C9  UNL     1      21.046   7.522  50.190  1.00  0.00     0.040 A 
HETATM   23  C10 UNL     1      22.227   7.322  50.882  1.00  0.00     0.138 A 
HETATM   24  N3  UNL     1      22.546   6.021  51.140  1.00  0.00    -0.075 NA
ENDBRANCH  17  19
ENDBRANCH   6  17
TORSDOF 4
ENDMDL
MODEL 8
REMARK VINA RESULT:      -8.1      3.865      7.007
REMARK  4 active torsions:
REMARK  status: ('A' for Active; 'I' for Inactive)
REMARK    1  A    between atoms: C1_2  and  C2_3 
REMARK    2  A    between atoms: C1_2  and  C13_18 
REMARK    3  A    between atoms: C6_8  and  N1_9 
REMARK    4  A    between atoms: N1_9  and  C7_10 
ROOT
HETATM    1  C2  UNL     1      22.090   0.608  52.898  1.00  0.00    -0.004 A 
HETATM    2  C3  UNL     1      21.904   1.559  51.965  1.00  0.00     0.013 A 
HETATM    3  C4  UNL     1      22.871   2.285  51.105  1.00  0.00     0.027 A 
HETATM    4  C5  UNL     1      24.180   2.156  51.153  1.00  0.00     0.061 A 
HETATM    5 CL1  UNL     1      25.026   3.166  49.990  1.00  0.00    -0.082 Cl
HETATM    6  C6  UNL     1      25.103   1.365  51.952  1.00  0.00     0.067 A 
HETATM    7  C11 UNL     1      24.587   0.514  52.820  1.00  0.00     0.010 A 
HETATM    8  C12 UNL     1      23.328  -0.011  53.361  1.00  0.00     0.072 A 
ENDROOT
BRANCH   1   9
HETATM    9  C1  UNL     1      20.810   0.230  53.450  1.00  0.00     0.188 C 
HETATM   10  O1  UNL     1      20.782   0.257  54.721  1.00  0.00    -0.287 OA
BRANCH   9  11
HETATM   11  C13 UNL     1      19.540  -0.176  52.906  1.00  0.00     0.015 A 
HETATM   12  C14 UNL     1      18.909   0.261  51.769  1.00  0.00     0.015 A 
HETATM   13  C15 UNL     1      17.706  -0.144  51.269  1.00  0.00     0.001 A 
HETATM   14  C16 UNL     1      17.032  -1.103  51.975  1.00  0.00     0.000 A 
HETATM   15  C17 UNL     1      17.565  -1.605  53.117  1.00  0.00     0.001 A 
HETATM   16  C18 UNL     1      18.782  -1.142  53.550  1.00  0.00     0.015 A 
ENDBRANCH   9  11
ENDBRANCH   1   9
BRANCH   6  17
HETATM   17  N1  UNL     1      26.509   1.493  51.813  1.00  0.00    -0.187 N 
HETATM   18  H3  UNL     1      26.778   2.090  50.998  1.00  0.00     0.184 HD
BRANCH  17  19
HETATM   19  C7  UNL     1      27.462   0.882  52.681  1.00  0.00     0.726 A 
HETATM   20  N2  UNL     1      27.599  -0.451  52.611  1.00  0.00    -0.075 NA
HETATM   21  C8  UNL     1      28.517  -1.013  53.451  1.00  0.00     0.138 A 
HETATM   22  C9  UNL     1      29.246  -0.197  54.315  1.00  0.00     0.040 A 
HETATM   23  C10 UNL     1      29.077   1.176  54.359  1.00  0.00     0.138 A 
HETATM   24  N3  UNL     1      28.148   1.682  53.499  1.00  0.00    -0.075 NA
ENDBRANCH  17  19
ENDBRANCH   6  17
TORSDOF 4
ENDMDL
MODEL 9
REMARK VINA RESULT:      -8.1      4.316      7.592
REMARK  4 active torsions:
REMARK  status: ('A' for Active; 'I' for Inactive)
REMARK    1  A    between atoms: C1_2  and  C2_3 
REMARK    2  A    between atoms: C1_2  and  C13_18 
REMARK    3  A    between atoms: C6_8  and  N1_9 
REMARK    4  A    between atoms: N1_9  and  C7_10 
ROOT
HETATM    1  C2  UNL     1      25.541   3.882  50.158  1.00  0.00    -0.004 A 
HETATM    2  C3  UNL     1      24.905   5.052  50.342  1.00  0.00     0.013 A 
HETATM    3  C4  UNL     1      25.198   6.414  49.828  1.00  0.00     0.027 A 
HETATM    4  C5  UNL     1      26.242   6.744  49.099  1.00  0.00     0.061 A 
HETATM    5 CL1  UNL     1      26.280   8.445  48.660  1.00  0.00    -0.082 Cl
HETATM    6  C6  UNL     1      27.388   6.024  48.564  1.00  0.00     0.067 A 
HETATM    7  C11 UNL     1      27.443   4.721  48.770  1.00  0.00     0.010 A 
HETATM    8  C12 UNL     1      26.742   3.587  49.384  1.00  0.00     0.072 A 
ENDROOT
BRANCH   1   9
HETATM    9  C1  UNL     1      24.844   2.846  50.884  1.00  0.00     0.188 C 
HETATM   10  O1  UNL     1      23.578   2.965  50.840  1.00  0.00    -0.287 OA
BRANCH   9  11
HETATM   11  C13 UNL     1      25.235   1.696  51.658  1.00  0.00     0.015 A 
HETATM   12  C14 UNL     1      26.455   1.071  51.717  1.00  0.00     0.015 A 
HETATM   13  C15 UNL     1      26.805  -0.015  52.464  1.00  0.00     0.001 A 
HETATM   14  C16 UNL     1      25.833  -0.563  53.256  1.00  0.00     0.000 A 
HETATM   15  C17 UNL     1      24.588  -0.024  53.272  1.00  0.00     0.001 A 
HETATM   16  C18 UNL     1      24.319   1.070  52.490  1.00  0.00     0.015 A 
ENDBRANCH   9  11
ENDBRANCH   1   9
BRANCH   6  17
HETATM   17  N1  UNL     1      28.417   6.687  47.845  1.00  0.00    -0.187 N 
HETATM   18  H3  UNL     1      28.173   6.827  46.837  1.00  0.00     0.184 HD
BRANCH  17  19
HETATM   19  C7  UNL     1      29.648   7.118  48.418  1.00  0.00     0.726 A 
HETATM   20  N2  UNL     1      29.776   8.424  48.703  1.00  0.00    -0.075 NA
HETATM   21  C8  UNL     1      30.964   8.813  49.251  1.00  0.00     0.138 A 
HETATM   22  C9  UNL     1      31.959   7.863  49.481  1.00  0.00     0.040 A 
HETATM   23  C10 UNL     1      31.791   6.524  49.174  1.00  0.00     0.138 A 
HETATM   24  N3  UNL     1      30.585   6.192  48.629  1.00  0.00    -0.075 NA
ENDBRANCH  17  19
ENDBRANCH   6  17
TORSDOF 4
ENDMDL
