MODEL 1
REMARK VINA RESULT:      -9.3      0.000      0.000
REMARK  2 active torsions:
REMARK  status: ('A' for Active; 'I' for Inactive)
REMARK    1  A    between atoms: C4_6  and  N3_7 
REMARK    2  A    between atoms: N3_7  and  C5_8 
ROOT
HETATM    1  N1  UNL     1      27.307  -0.598  54.326  1.00  0.00    -0.191 NA
HETATM    2  C1  UNL     1      26.767   0.095  53.569  1.00  0.00     0.102 C 
HETATM    3  C2  UNL     1      26.070   0.965  52.636  1.00  0.00     0.073 A 
HETATM    4  C3  UNL     1      26.937   1.724  51.910  1.00  0.00     0.142 A 
HETATM    5  N2  UNL     1      26.422   2.560  51.019  1.00  0.00    -0.241 NA
HETATM    6  C4  UNL     1      25.103   2.648  50.851  1.00  0.00     0.138 A 
HETATM    7  C10 UNL     1      24.224   1.886  51.582  1.00  0.00     0.023 A 
HETATM    8  C11 UNL     1      24.674   1.002  52.510  1.00  0.00    -0.000 A 
HETATM    9  C12 UNL     1      24.122   0.199  53.367  1.00  0.00     0.015 C 
HETATM   10  C13 UNL     1      22.985  -0.406  53.952  1.00  0.00     0.018 C 
HETATM   11  C14 UNL     1      21.707  -0.613  53.955  1.00  0.00     0.084 C 
HETATM   12  N4  UNL     1      21.354   0.134  52.812  1.00  0.00    -0.382 N 
HETATM   13  C15 UNL     1      21.025   0.824  51.754  1.00  0.00     0.154 C 
HETATM   14  C16 UNL     1      21.343   0.574  50.319  1.00  0.00     0.316 C 
HETATM   15  N5  UNL     1      20.738   1.899  50.254  1.00  0.00     0.142 N 
HETATM   16  C17 UNL     1      19.803   1.410  51.263  1.00  0.00     0.286 C 
HETATM   17  C18 UNL     1      19.564   2.693  52.009  1.00  0.00     0.210 C 
HETATM   18  O1  UNL     1      20.884   3.089  52.215  1.00  0.00    -0.345 OA
HETATM   19  C19 UNL     1      21.571   2.169  51.423  1.00  0.00     0.311 C 
HETATM   20  C20 UNL     1      22.993   2.261  51.284  1.00  0.00     0.063 C 
HETATM   21  H8  UNL     1      20.929  -0.723  52.338  1.00  0.00     0.160 HD
ENDROOT
BRANCH   6  22
HETATM   22  N3  UNL     1      24.760   3.620  49.842  1.00  0.00    -0.339 N 
HETATM   23  H2  UNL     1      24.277   3.766  48.930  1.00  0.00     0.167 HD
BRANCH  22  24
HETATM   24  C5  UNL     1      25.151   4.977  49.963  1.00  0.00     0.053 C 
HETATM   25  C6  UNL     1      24.514   5.817  50.764  1.00  0.00     0.051 C 
HETATM   26  S1  UNL     1      24.671   7.363  50.427  1.00  0.00    -0.097 SA
HETATM   27  C7  UNL     1      25.980   7.720  49.492  1.00  0.00     0.069 C 
HETATM   28  C8  UNL     1      26.729   6.612  48.894  1.00  0.00     0.019 C 
HETATM   29 BR1  UNL     1      28.251   6.965  47.807  1.00  0.00    -0.051 Br
HETATM   30  C9  UNL     1      26.307   5.371  49.140  1.00  0.00     0.050 C 
ENDBRANCH  22  24
ENDBRANCH   6  22
TORSDOF 2
ENDMDL
MODEL 2
REMARK VINA RESULT:      -9.2      3.859      6.489
REMARK  2 active torsions:
REMARK  status: ('A' for Active; 'I' for Inactive)
REMARK    1  A    between atoms: C4_6  and  N3_7 
REMARK    2  A    between atoms: N3_7  and  C5_8 
ROOT
HETATM    1  N1  UNL     1      27.088  -1.439  53.311  1.00  0.00    -0.191 NA
HETATM    2  C1  UNL     1      26.065  -0.892  53.281  1.00  0.00     0.102 C 
HETATM    3  C2  UNL     1      24.790  -0.196  53.220  1.00  0.00     0.073 A 
HETATM    4  C3  UNL     1      23.821  -0.858  53.911  1.00  0.00     0.142 A 
HETATM    5  N2  UNL     1      22.609  -0.322  53.933  1.00  0.00    -0.241 NA
HETATM    6  C4  UNL     1      22.359   0.822  53.295  1.00  0.00     0.138 A 
HETATM    7  C10 UNL     1      23.332   1.492  52.594  1.00  0.00     0.023 A 
HETATM    8  C11 UNL     1      24.600   1.009  52.529  1.00  0.00    -0.000 A 
HETATM    9  C12 UNL     1      25.696   1.365  51.933  1.00  0.00     0.015 C 
HETATM   10  C13 UNL     1      26.442   2.262  51.132  1.00  0.00     0.018 C 
HETATM   11  C14 UNL     1      26.535   3.395  50.514  1.00  0.00     0.084 C 
HETATM   12  N4  UNL     1      25.275   3.937  50.844  1.00  0.00    -0.382 N 
HETATM   13  C15 UNL     1      24.111   4.441  51.150  1.00  0.00     0.154 C 
HETATM   14  C16 UNL     1      23.586   4.889  52.472  1.00  0.00     0.316 C 
HETATM   15  N5  UNL     1      22.390   4.973  51.642  1.00  0.00     0.142 N 
HETATM   16  C17 UNL     1      23.275   5.476  50.595  1.00  0.00     0.286 C 
HETATM   17  C18 UNL     1      22.567   4.915  49.394  1.00  0.00     0.210 C 
HETATM   18  O1  UNL     1      22.427   3.592  49.805  1.00  0.00    -0.345 OA
HETATM   19  C19 UNL     1      22.834   3.677  51.137  1.00  0.00     0.311 C 
HETATM   20  C20 UNL     1      22.776   2.521  51.981  1.00  0.00     0.063 C 
HETATM   21  H8  UNL     1      25.723   4.788  51.309  1.00  0.00     0.160 HD
ENDROOT
BRANCH   6  22
HETATM   22  N3  UNL     1      20.981   1.220  53.442  1.00  0.00    -0.339 N 
HETATM   23  H2  UNL     1      20.326   1.846  53.957  1.00  0.00     0.167 HD
BRANCH  22  24
HETATM   24  C5  UNL     1      19.957   0.637  52.654  1.00  0.00     0.053 C 
HETATM   25  C6  UNL     1      19.579   1.165  51.500  1.00  0.00     0.051 C 
HETATM   26  S1  UNL     1      18.123   0.771  50.992  1.00  0.00    -0.097 SA
HETATM   27  C7  UNL     1      17.520  -0.602  51.673  1.00  0.00     0.069 C 
HETATM   28  C8  UNL     1      18.246  -1.196  52.799  1.00  0.00     0.019 C 
HETATM   29 BR1  UNL     1      17.597  -2.784  53.624  1.00  0.00    -0.051 Br
HETATM   30  C9  UNL     1      19.359  -0.588  53.212  1.00  0.00     0.050 C 
ENDBRANCH  22  24
ENDBRANCH   6  22
TORSDOF 2
ENDMDL
MODEL 3
REMARK VINA RESULT:      -8.5      3.265      6.150
REMARK  2 active torsions:
REMARK  status: ('A' for Active; 'I' for Inactive)
REMARK    1  A    between atoms: C4_6  and  N3_7 
REMARK    2  A    between atoms: N3_7  and  C5_8 
ROOT
HETATM    1  N1  UNL     1      27.301   8.512  47.774  1.00  0.00    -0.191 NA
HETATM    2  C1  UNL     1      27.038   7.477  48.225  1.00  0.00     0.102 C 
HETATM    3  C2  UNL     1      26.683   6.184  48.788  1.00  0.00     0.073 A 
HETATM    4  C3  UNL     1      27.666   5.262  48.592  1.00  0.00     0.142 A 
HETATM    5  N2  UNL     1      27.462   4.040  49.062  1.00  0.00    -0.241 NA
HETATM    6  C4  UNL     1      26.332   3.735  49.700  1.00  0.00     0.138 A 
HETATM    7  C10 UNL     1      25.336   4.661  49.899  1.00  0.00     0.023 A 
HETATM    8  C11 UNL     1      25.472   5.936  49.451  1.00  0.00    -0.000 A 
HETATM    9  C12 UNL     1      24.725   6.997  49.437  1.00  0.00     0.015 C 
HETATM   10  C13 UNL     1      23.536   7.686  49.776  1.00  0.00     0.018 C 
HETATM   11  C14 UNL     1      22.411   7.724  50.415  1.00  0.00     0.084 C 
HETATM   12  N4  UNL     1      22.469   6.468  51.053  1.00  0.00    -0.382 N 
HETATM   13  C15 UNL     1      22.521   5.306  51.645  1.00  0.00     0.154 C 
HETATM   14  C16 UNL     1      23.434   4.828  52.723  1.00  0.00     0.316 C 
HETATM   15  N5  UNL     1      22.745   3.596  52.361  1.00  0.00     0.142 N 
HETATM   16  C17 UNL     1      21.547   4.423  52.236  1.00  0.00     0.286 C 
HETATM   17  C18 UNL     1      20.856   3.678  51.128  1.00  0.00     0.210 C 
HETATM   18  O1  UNL     1      21.909   3.587  50.220  1.00  0.00    -0.345 OA
HETATM   19  C19 UNL     1      22.975   4.049  50.991  1.00  0.00     0.311 C 
HETATM   20  C20 UNL     1      24.302   4.054  50.452  1.00  0.00     0.063 C 
HETATM   21  H8  UNL     1      22.395   6.915  52.019  1.00  0.00     0.160 HD
ENDROOT
BRANCH   6  22
HETATM   22  N3  UNL     1      26.315   2.356  50.119  1.00  0.00    -0.339 N 
HETATM   23  H2  UNL     1      26.244   1.368  49.794  1.00  0.00     0.167 HD
BRANCH  22  24
HETATM   24  C5  UNL     1      26.427   1.999  51.487  1.00  0.00     0.053 C 
HETATM   25  C6  UNL     1      27.446   2.400  52.230  1.00  0.00     0.051 C 
HETATM   26  S1  UNL     1      27.750   1.534  53.530  1.00  0.00    -0.097 SA
HETATM   27  C7  UNL     1      26.480   0.616  54.040  1.00  0.00     0.069 C 
HETATM   28  C8  UNL     1      25.306   0.509  53.169  1.00  0.00     0.019 C 
HETATM   29 BR1  UNL     1      23.810  -0.536  53.708  1.00  0.00    -0.051 Br
HETATM   30  C9  UNL     1      25.332   1.162  52.007  1.00  0.00     0.050 C 
ENDBRANCH  22  24
ENDBRANCH   6  22
TORSDOF 2
ENDMDL
MODEL 4
REMARK VINA RESULT:      -8.4      4.614      7.249
REMARK  2 active torsions:
REMARK  status: ('A' for Active; 'I' for Inactive)
REMARK    1  A    between atoms: C4_6  and  N3_7 
REMARK    2  A    between atoms: N3_7  and  C5_8 
ROOT
HETATM    1  N1  UNL     1      22.325  -1.687  55.499  1.00  0.00    -0.191 NA
HETATM    2  C1  UNL     1      21.655  -1.266  54.650  1.00  0.00     0.102 C 
HETATM    3  C2  UNL     1      20.837  -0.738  53.571  1.00  0.00     0.073 A 
HETATM    4  C3  UNL     1      19.537  -1.129  53.686  1.00  0.00     0.142 A 
HETATM    5  N2  UNL     1      18.686  -0.709  52.760  1.00  0.00    -0.241 NA
HETATM    6  C4  UNL     1      19.100   0.064  51.756  1.00  0.00     0.138 A 
HETATM    7  C10 UNL     1      20.410   0.459  51.634  1.00  0.00     0.023 A 
HETATM    8  C11 UNL     1      21.341   0.075  52.545  1.00  0.00    -0.000 A 
HETATM    9  C12 UNL     1      22.621   0.233  52.683  1.00  0.00     0.015 C 
HETATM   10  C13 UNL     1      23.859   0.780  52.270  1.00  0.00     0.018 C 
HETATM   11  C14 UNL     1      24.526   1.574  51.496  1.00  0.00     0.084 C 
HETATM   12  N4  UNL     1      23.458   2.119  50.754  1.00  0.00    -0.382 N 
HETATM   13  C15 UNL     1      22.470   2.626  50.068  1.00  0.00     0.154 C 
HETATM   14  C16 UNL     1      21.370   3.531  50.510  1.00  0.00     0.316 C 
HETATM   15  N5  UNL     1      20.943   3.197  49.157  1.00  0.00     0.142 N 
HETATM   16  C17 UNL     1      22.355   3.295  48.796  1.00  0.00     0.286 C 
HETATM   17  C18 UNL     1      22.398   2.254  47.713  1.00  0.00     0.210 C 
HETATM   18  O1  UNL     1      21.776   1.201  48.380  1.00  0.00    -0.345 OA
HETATM   19  C19 UNL     1      21.325   1.839  49.535  1.00  0.00     0.311 C 
HETATM   20  C20 UNL     1      20.546   1.117  50.497  1.00  0.00     0.063 C 
HETATM   21  H8  UNL     1      23.706   3.112  51.059  1.00  0.00     0.160 HD
ENDROOT
BRANCH   6  22
HETATM   22  N3  UNL     1      18.018   0.396  50.863  1.00  0.00    -0.339 N 
HETATM   23  H2  UNL     1      17.585   0.192  49.936  1.00  0.00     0.167 HD
BRANCH  22  24
HETATM   24  C5  UNL     1      17.049   1.372  51.208  1.00  0.00     0.053 C 
HETATM   25  C6  UNL     1      17.214   2.652  50.913  1.00  0.00     0.051 C 
HETATM   26  S1  UNL     1      16.379   3.686  51.787  1.00  0.00    -0.097 SA
HETATM   27  C7  UNL     1      15.074   3.027  52.548  1.00  0.00     0.069 C 
HETATM   28  C8  UNL     1      14.927   1.569  52.536  1.00  0.00     0.019 C 
HETATM   29 BR1  UNL     1      13.439   0.752  53.397  1.00  0.00    -0.051 Br
HETATM   30  C9  UNL     1      15.861   0.854  51.908  1.00  0.00     0.050 C 
ENDBRANCH  22  24
ENDBRANCH   6  22
TORSDOF 2
ENDMDL
MODEL 5
REMARK VINA RESULT:      -7.9      3.955      6.797
REMARK  2 active torsions:
REMARK  status: ('A' for Active; 'I' for Inactive)
REMARK    1  A    between atoms: C4_6  and  N3_7 
REMARK    2  A    between atoms: N3_7  and  C5_8 
ROOT
HETATM    1  N1  UNL     1      22.298  -2.001  55.328  1.00  0.00    -0.191 NA
HETATM    2  C1  UNL     1      21.909  -1.230  54.554  1.00  0.00     0.102 C 
HETATM    3  C2  UNL     1      21.444  -0.263  53.573  1.00  0.00     0.073 A 
HETATM    4  C3  UNL     1      20.116  -0.412  53.308  1.00  0.00     0.142 A 
HETATM    5  N2  UNL     1      19.570   0.415  52.428  1.00  0.00    -0.241 NA
HETATM    6  C4  UNL     1      20.304   1.352  51.827  1.00  0.00     0.138 A 
HETATM    7  C10 UNL     1      21.644   1.505  52.088  1.00  0.00     0.023 A 
HETATM    8  C11 UNL     1      22.275   0.699  52.982  1.00  0.00    -0.000 A 
HETATM    9  C12 UNL     1      23.495   0.560  53.401  1.00  0.00     0.015 C 
HETATM   10  C13 UNL     1      24.854   0.953  53.429  1.00  0.00     0.018 C 
HETATM   11  C14 UNL     1      25.780   1.793  53.096  1.00  0.00     0.084 C 
HETATM   12  N4  UNL     1      24.996   2.726  52.386  1.00  0.00    -0.382 N 
HETATM   13  C15 UNL     1      24.272   3.592  51.731  1.00  0.00     0.154 C 
HETATM   14  C16 UNL     1      23.220   4.524  52.230  1.00  0.00     0.316 C 
HETATM   15  N5  UNL     1      23.089   4.687  50.787  1.00  0.00     0.142 N 
HETATM   16  C17 UNL     1      24.548   4.611  50.749  1.00  0.00     0.286 C 
HETATM   17  C18 UNL     1      24.718   3.943  49.414  1.00  0.00     0.210 C 
HETATM   18  O1  UNL     1      23.829   2.882  49.572  1.00  0.00    -0.345 OA
HETATM   19  C19 UNL     1      23.198   3.231  50.766  1.00  0.00     0.311 C 
HETATM   20  C20 UNL     1      22.129   2.425  51.275  1.00  0.00     0.063 C 
HETATM   21  H8  UNL     1      25.286   3.520  53.039  1.00  0.00     0.160 HD
ENDROOT
BRANCH   6  22
HETATM   22  N3  UNL     1      19.517   2.132  50.905  1.00  0.00    -0.339 N 
HETATM   23  H2  UNL     1      19.553   2.855  50.155  1.00  0.00     0.167 HD
BRANCH  22  24
HETATM   24  C5  UNL     1      18.106   2.004  50.848  1.00  0.00     0.053 C 
HETATM   25  C6  UNL     1      17.304   2.833  51.498  1.00  0.00     0.051 C 
HETATM   26  S1  UNL     1      15.838   2.296  51.801  1.00  0.00    -0.097 SA
HETATM   27  C7  UNL     1      15.364   1.046  50.838  1.00  0.00     0.069 C 
HETATM   28  C8  UNL     1      16.367   0.418  49.974  1.00  0.00     0.019 C 
HETATM   29 BR1  UNL     1      15.876  -1.030  48.839  1.00  0.00    -0.051 Br
HETATM   30  C9  UNL     1      17.612   0.894  50.016  1.00  0.00     0.050 C 
ENDBRANCH  22  24
ENDBRANCH   6  22
TORSDOF 2
ENDMDL
MODEL 6
REMARK VINA RESULT:      -7.7      4.617      7.754
REMARK  2 active torsions:
REMARK  status: ('A' for Active; 'I' for Inactive)
REMARK    1  A    between atoms: C4_6  and  N3_7 
REMARK    2  A    between atoms: N3_7  and  C5_8 
ROOT
HETATM    1  N1  UNL     1      24.077   3.311  50.920  1.00  0.00    -0.191 NA
HETATM    2  C1  UNL     1      24.852   3.936  50.325  1.00  0.00     0.102 C 
HETATM    3  C2  UNL     1      25.813   4.741  49.590  1.00  0.00     0.073 A 
HETATM    4  C3  UNL     1      26.952   4.044  49.320  1.00  0.00     0.142 A 
HETATM    5  N2  UNL     1      27.910   4.671  48.651  1.00  0.00    -0.241 NA
HETATM    6  C4  UNL     1      27.753   5.937  48.263  1.00  0.00     0.138 A 
HETATM    7  C10 UNL     1      26.607   6.644  48.534  1.00  0.00     0.023 A 
HETATM    8  C11 UNL     1      25.579   6.071  49.211  1.00  0.00    -0.000 A 
HETATM    9  C12 UNL     1      24.425   6.468  49.652  1.00  0.00     0.015 C 
HETATM   10  C13 UNL     1      23.415   7.451  49.785  1.00  0.00     0.018 C 
HETATM   11  C14 UNL     1      22.941   8.614  49.473  1.00  0.00     0.084 C 
HETATM   12  N4  UNL     1      23.941   9.034  48.573  1.00  0.00    -0.382 N 
HETATM   13  C15 UNL     1      24.866   9.423  47.738  1.00  0.00     0.154 C 
HETATM   14  C16 UNL     1      25.212   8.895  46.387  1.00  0.00     0.316 C 
HETATM   15  N5  UNL     1      26.305   9.831  46.619  1.00  0.00     0.142 N 
HETATM   16  C17 UNL     1      25.297  10.699  47.224  1.00  0.00     0.286 C 
HETATM   17  C18 UNL     1      26.149  11.363  48.269  1.00  0.00     0.210 C 
HETATM   18  O1  UNL     1      26.733  10.235  48.842  1.00  0.00    -0.345 OA
HETATM   19  C19 UNL     1      26.326   9.238  47.955  1.00  0.00     0.311 C 
HETATM   20  C20 UNL     1      26.778   7.891  48.133  1.00  0.00     0.063 C 
HETATM   21  H8  UNL     1      23.233   9.150  47.783  1.00  0.00     0.160 HD
ENDROOT
BRANCH   6  22
HETATM   22  N3  UNL     1      28.914   6.423  47.559  1.00  0.00    -0.339 N 
HETATM   23  H2  UNL     1      29.252   6.861  46.675  1.00  0.00     0.167 HD
BRANCH  22  24
HETATM   24  C5  UNL     1      30.206   6.367  48.140  1.00  0.00     0.053 C 
HETATM   25  C6  UNL     1      30.659   7.332  48.924  1.00  0.00     0.051 C 
HETATM   26  S1  UNL     1      32.240   7.435  49.068  1.00  0.00    -0.097 SA
HETATM   27  C7  UNL     1      33.045   6.055  48.666  1.00  0.00     0.069 C 
HETATM   28  C8  UNL     1      32.291   4.972  48.029  1.00  0.00     0.019 C 
HETATM   29 BR1  UNL     1      33.169   3.354  47.544  1.00  0.00    -0.051 Br
HETATM   30  C9  UNL     1      30.990   5.165  47.808  1.00  0.00     0.050 C 
ENDBRANCH  22  24
ENDBRANCH   6  22
TORSDOF 2
ENDMDL
MODEL 7
REMARK VINA RESULT:      -7.7      6.622     10.257
REMARK  2 active torsions:
REMARK  status: ('A' for Active; 'I' for Inactive)
REMARK    1  A    between atoms: C4_6  and  N3_7 
REMARK    2  A    between atoms: N3_7  and  C5_8 
ROOT
HETATM    1  N1  UNL     1      24.636   5.769  48.670  1.00  0.00    -0.191 NA
HETATM    2  C1  UNL     1      25.781   5.942  48.597  1.00  0.00     0.102 C 
HETATM    3  C2  UNL     1      27.212   6.183  48.516  1.00  0.00     0.073 A 
HETATM    4  C3  UNL     1      27.923   5.023  48.583  1.00  0.00     0.142 A 
HETATM    5  N2  UNL     1      29.244   5.109  48.517  1.00  0.00    -0.241 NA
HETATM    6  C4  UNL     1      29.844   6.294  48.394  1.00  0.00     0.138 A 
HETATM    7  C10 UNL     1      29.132   7.467  48.328  1.00  0.00     0.023 A 
HETATM    8  C11 UNL     1      27.775   7.461  48.383  1.00  0.00    -0.000 A 
HETATM    9  C12 UNL     1      26.845   8.366  48.395  1.00  0.00     0.015 C 
HETATM   10  C13 UNL     1      26.420   9.714  48.324  1.00  0.00     0.018 C 
HETATM   11  C14 UNL     1      26.693  10.962  48.116  1.00  0.00     0.084 C 
HETATM   12  N4  UNL     1      28.067  10.847  47.818  1.00  0.00    -0.382 N 
HETATM   13  C15 UNL     1      29.338  10.742  47.540  1.00  0.00     0.154 C 
HETATM   14  C16 UNL     1      30.006  10.112  46.365  1.00  0.00     0.316 C 
HETATM   15  N5  UNL     1      31.147  10.404  47.223  1.00  0.00     0.142 N 
HETATM   16  C17 UNL     1      30.457  11.651  47.545  1.00  0.00     0.286 C 
HETATM   17  C18 UNL     1      30.918  11.820  48.966  1.00  0.00     0.210 C 
HETATM   18  O1  UNL     1      30.623  10.550  49.457  1.00  0.00    -0.345 OA
HETATM   19  C19 UNL     1      30.292   9.874  48.282  1.00  0.00     0.311 C 
HETATM   20  C20 UNL     1      29.984   8.476  48.321  1.00  0.00     0.063 C 
HETATM   21  H8  UNL     1      27.933  11.291  46.856  1.00  0.00     0.160 HD
ENDROOT
BRANCH   6  22
HETATM   22  N3  UNL     1      31.279   6.159  48.349  1.00  0.00    -0.339 N 
HETATM   23  H2  UNL     1      32.174   6.433  48.807  1.00  0.00     0.167 HD
BRANCH  22  24
HETATM   24  C5  UNL     1      31.916   5.379  47.352  1.00  0.00     0.053 C 
HETATM   25  C6  UNL     1      32.353   4.154  47.599  1.00  0.00     0.051 C 
HETATM   26  S1  UNL     1      33.487   3.604  46.627  1.00  0.00    -0.097 SA
HETATM   27  C7  UNL     1      33.577   4.392  45.183  1.00  0.00     0.069 C 
HETATM   28  C8  UNL     1      32.792   5.618  45.011  1.00  0.00     0.019 C 
HETATM   29 BR1  UNL     1      32.857   6.569  43.363  1.00  0.00    -0.051 Br
HETATM   30  C9  UNL     1      32.046   6.029  46.037  1.00  0.00     0.050 C 
ENDBRANCH  22  24
ENDBRANCH   6  22
TORSDOF 2
ENDMDL
MODEL 8
REMARK VINA RESULT:      -7.6      6.195      9.915
REMARK  2 active torsions:
REMARK  status: ('A' for Active; 'I' for Inactive)
REMARK    1  A    between atoms: C4_6  and  N3_7 
REMARK    2  A    between atoms: N3_7  and  C5_8 
ROOT
HETATM    1  N1  UNL     1      26.965   3.672  49.709  1.00  0.00    -0.191 NA
HETATM    2  C1  UNL     1      27.077   4.685  49.156  1.00  0.00     0.102 C 
HETATM    3  C2  UNL     1      27.236   5.945  48.447  1.00  0.00     0.073 A 
HETATM    4  C3  UNL     1      26.074   6.655  48.415  1.00  0.00     0.142 A 
HETATM    5  N2  UNL     1      26.089   7.827  47.797  1.00  0.00    -0.241 NA
HETATM    6  C4  UNL     1      27.206   8.283  47.228  1.00  0.00     0.138 A 
HETATM    7  C10 UNL     1      28.380   7.570  47.256  1.00  0.00     0.023 A 
HETATM    8  C11 UNL     1      28.446   6.362  47.875  1.00  0.00    -0.000 A 
HETATM    9  C12 UNL     1      29.357   5.451  48.031  1.00  0.00     0.015 C 
HETATM   10  C13 UNL     1      30.678   4.972  47.868  1.00  0.00     0.018 C 
HETATM   11  C14 UNL     1      31.904   5.177  47.507  1.00  0.00     0.084 C 
HETATM   12  N4  UNL     1      31.802   6.528  47.117  1.00  0.00    -0.382 N 
HETATM   13  C15 UNL     1      31.711   7.780  46.756  1.00  0.00     0.154 C 
HETATM   14  C16 UNL     1      31.460   8.992  47.586  1.00  0.00     0.316 C 
HETATM   15  N5  UNL     1      31.377   9.543  46.239  1.00  0.00     0.142 N 
HETATM   16  C17 UNL     1      32.492   8.654  45.918  1.00  0.00     0.286 C 
HETATM   17  C18 UNL     1      32.154   8.355  44.484  1.00  0.00     0.210 C 
HETATM   18  O1  UNL     1      30.816   7.998  44.632  1.00  0.00    -0.345 OA
HETATM   19  C19 UNL     1      30.586   8.346  45.963  1.00  0.00     0.311 C 
HETATM   20  C20 UNL     1      29.277   8.207  46.526  1.00  0.00     0.063 C 
HETATM   21  H8  UNL     1      32.546   6.826  47.823  1.00  0.00     0.160 HD
ENDROOT
BRANCH   6  22
HETATM   22  N3  UNL     1      26.999   9.568  46.608  1.00  0.00    -0.339 N 
HETATM   23  H2  UNL     1      26.809  10.058  45.707  1.00  0.00     0.167 HD
BRANCH  22  24
HETATM   24  C5  UNL     1      27.029  10.766  47.364  1.00  0.00     0.053 C 
HETATM   25  C6  UNL     1      25.940  11.494  47.560  1.00  0.00     0.051 C 
HETATM   26  S1  UNL     1      26.177  13.023  47.932  1.00  0.00    -0.097 SA
HETATM   27  C7  UNL     1      27.680  13.348  48.523  1.00  0.00     0.069 C 
HETATM   28  C8  UNL     1      28.697  12.295  48.453  1.00  0.00     0.019 C 
HETATM   29 BR1  UNL     1      30.450  12.615  49.122  1.00  0.00    -0.051 Br
HETATM   30  C9  UNL     1      28.348  11.128  47.911  1.00  0.00     0.050 C 
ENDBRANCH  22  24
ENDBRANCH   6  22
TORSDOF 2
ENDMDL
MODEL 9
REMARK VINA RESULT:      -7.5      2.987      5.339
REMARK  2 active torsions:
REMARK  status: ('A' for Active; 'I' for Inactive)
REMARK    1  A    between atoms: C4_6  and  N3_7 
REMARK    2  A    between atoms: N3_7  and  C5_8 
ROOT
HETATM    1  N1  UNL     1      21.326   4.109  44.432  1.00  0.00    -0.191 NA
HETATM    2  C1  UNL     1      21.771   4.556  45.405  1.00  0.00     0.102 C 
HETATM    3  C2  UNL     1      22.337   5.093  46.632  1.00  0.00     0.073 A 
HETATM    4  C3  UNL     1      22.718   6.393  46.485  1.00  0.00     0.142 A 
HETATM    5  N2  UNL     1      23.249   6.999  47.537  1.00  0.00    -0.241 NA
HETATM    6  C4  UNL     1      23.403   6.349  48.691  1.00  0.00     0.138 A 
HETATM    7  C10 UNL     1      23.022   5.037  48.844  1.00  0.00     0.023 A 
HETATM    8  C11 UNL     1      22.466   4.350  47.814  1.00  0.00    -0.000 A 
HETATM    9  C12 UNL     1      22.058   3.132  47.627  1.00  0.00     0.015 C 
HETATM   10  C13 UNL     1      21.801   1.820  48.093  1.00  0.00     0.018 C 
HETATM   11  C14 UNL     1      21.733   0.976  49.071  1.00  0.00     0.084 C 
HETATM   12  N4  UNL     1      22.080   1.834  50.136  1.00  0.00    -0.382 N 
HETATM   13  C15 UNL     1      22.399   2.627  51.122  1.00  0.00     0.154 C 
HETATM   14  C16 UNL     1      21.648   3.779  51.698  1.00  0.00     0.316 C 
HETATM   15  N5  UNL     1      22.925   3.891  52.392  1.00  0.00     0.142 N 
HETATM   16  C17 UNL     1      22.901   2.432  52.460  1.00  0.00     0.286 C 
HETATM   17  C18 UNL     1      24.377   2.164  52.373  1.00  0.00     0.210 C 
HETATM   18  O1  UNL     1      24.689   2.944  51.262  1.00  0.00    -0.345 OA
HETATM   19  C19 UNL     1      23.492   3.635  51.071  1.00  0.00     0.311 C 
HETATM   20  C20 UNL     1      23.393   4.629  50.044  1.00  0.00     0.063 C 
HETATM   21  H8  UNL     1      21.158   1.641  50.639  1.00  0.00     0.160 HD
ENDROOT
BRANCH   6  22
HETATM   22  N3  UNL     1      24.004   7.189  49.697  1.00  0.00    -0.339 N 
HETATM   23  H2  UNL     1      23.866   7.630  50.631  1.00  0.00     0.167 HD
BRANCH  22  24
HETATM   24  C5  UNL     1      25.303   7.730  49.526  1.00  0.00     0.053 C 
HETATM   25  C6  UNL     1      25.552   9.017  49.711  1.00  0.00     0.051 C 
HETATM   26  S1  UNL     1      26.851   9.590  48.993  1.00  0.00    -0.097 SA
HETATM   27  C7  UNL     1      27.954   8.440  48.576  1.00  0.00     0.069 C 
HETATM   28  C8  UNL     1      27.568   7.032  48.695  1.00  0.00     0.019 C 
HETATM   29 BR1  UNL     1      28.802   5.660  48.229  1.00  0.00    -0.051 Br
HETATM   30  C9  UNL     1      26.339   6.759  49.135  1.00  0.00     0.050 C 
ENDBRANCH  22  24
ENDBRANCH   6  22
TORSDOF 2
ENDMDL
