MODEL 1
REMARK VINA RESULT:      -8.8      0.000      0.000
REMARK  5 active torsions:
REMARK  status: ('A' for Active; 'I' for Inactive)
REMARK    1  A    between atoms: C2_2  and  C3_3 
REMARK    2  A    between atoms: C2_2  and  C21_23 
REMARK    3  A    between atoms: C4_4  and  C5_5 
REMARK    4  A    between atoms: C5_5  and  N1_6 
REMARK    5  A    between atoms: C21_23  and  O1_24 
ROOT
HETATM    1  N1  UNL     1      24.388   1.572  52.156  1.00  0.00    -0.290 N 
HETATM    2  C6  UNL     1      24.706   2.526  51.151  1.00  0.00     0.031 A 
HETATM    3  C7  UNL     1      23.898   2.835  50.147  1.00  0.00    -0.054 A 
HETATM    4  C8  UNL     1      24.177   3.821  49.072  1.00  0.00     0.036 C 
HETATM    5  C9  UNL     1      25.551   4.407  49.113  1.00  0.00     0.005 C 
HETATM    6  C10 UNL     1      26.480   3.424  49.767  1.00  0.00     0.006 C 
HETATM    7  C11 UNL     1      25.999   3.244  51.212  1.00  0.00     0.059 C 
HETATM    8  C12 UNL     1      22.538   2.265  49.899  1.00  0.00     0.064 A 
HETATM    9  C13 UNL     1      22.148   1.195  50.843  1.00  0.00     0.117 A 
HETATM   10  C14 UNL     1      20.931   1.562  51.712  1.00  0.00     0.068 C 
HETATM   11  C15 UNL     1      20.986   0.396  52.680  1.00  0.00    -0.028 A 
HETATM   12  C16 UNL     1      20.072  -0.342  53.401  1.00  0.00     0.009 A 
HETATM   13  C17 UNL     1      20.521  -1.398  54.191  1.00  0.00     0.001 A 
HETATM   14  C18 UNL     1      21.857  -1.754  54.295  1.00  0.00     0.002 A 
HETATM   15  C19 UNL     1      22.783  -1.000  53.559  1.00  0.00     0.031 A 
HETATM   16  C20 UNL     1      22.353   0.071  52.758  1.00  0.00     0.058 A 
HETATM   17  N2  UNL     1      23.105   0.999  51.948  1.00  0.00    -0.284 N 
ENDROOT
BRANCH   1  18
HETATM   18  C5  UNL     1      25.203   1.187  53.254  1.00  0.00     0.176 C 
BRANCH  18  19
HETATM   19  C4  UNL     1      26.257   0.208  52.991  1.00  0.00    -0.009 C 
HETATM   20  C3  UNL     1      27.292  -0.326  53.620  1.00  0.00    -0.023 C 
BRANCH  20  21
HETATM   21  C2  UNL     1      28.453  -1.216  53.721  1.00  0.00     0.027 C 
HETATM   22  C1  UNL     1      29.722  -0.519  53.281  1.00  0.00     0.016 C 
BRANCH  21  23
HETATM   23  C21 UNL     1      28.280  -2.394  52.765  1.00  0.00     0.172 C 
BRANCH  23  24
HETATM   24  O1  UNL     1      28.693  -3.535  53.470  1.00  0.00    -0.400 OA
HETATM   25  H28 UNL     1      29.651  -3.683  53.416  1.00  0.00     0.209 HD
ENDBRANCH  23  24
ENDBRANCH  21  23
ENDBRANCH  20  21
ENDBRANCH  18  19
ENDBRANCH   1  18
TORSDOF 5
ENDMDL
MODEL 2
REMARK VINA RESULT:      -8.6      1.230      1.574
REMARK  5 active torsions:
REMARK  status: ('A' for Active; 'I' for Inactive)
REMARK    1  A    between atoms: C2_2  and  C3_3 
REMARK    2  A    between atoms: C2_2  and  C21_23 
REMARK    3  A    between atoms: C4_4  and  C5_5 
REMARK    4  A    between atoms: C5_5  and  N1_6 
REMARK    5  A    between atoms: C21_23  and  O1_24 
ROOT
HETATM    1  N1  UNL     1      23.709   2.384  52.057  1.00  0.00    -0.290 N 
HETATM    2  C6  UNL     1      23.698   3.210  50.900  1.00  0.00     0.031 A 
HETATM    3  C7  UNL     1      22.912   3.002  49.853  1.00  0.00    -0.054 A 
HETATM    4  C8  UNL     1      22.858   3.829  48.621  1.00  0.00     0.036 C 
HETATM    5  C9  UNL     1      23.881   4.917  48.562  1.00  0.00     0.005 C 
HETATM    6  C10 UNL     1      25.070   4.511  49.385  1.00  0.00     0.006 C 
HETATM    7  C11 UNL     1      24.593   4.388  50.836  1.00  0.00     0.059 C 
HETATM    8  C12 UNL     1      21.911   1.900  49.704  1.00  0.00     0.064 A 
HETATM    9  C13 UNL     1      21.906   0.932  50.822  1.00  0.00     0.117 A 
HETATM   10  C14 UNL     1      20.582   0.912  51.607  1.00  0.00     0.068 C 
HETATM   11  C15 UNL     1      21.021   0.039  52.768  1.00  0.00    -0.028 A 
HETATM   12  C16 UNL     1      20.422  -0.878  53.604  1.00  0.00     0.009 A 
HETATM   13  C17 UNL     1      21.192  -1.522  54.571  1.00  0.00     0.001 A 
HETATM   14  C18 UNL     1      22.548  -1.288  54.742  1.00  0.00     0.002 A 
HETATM   15  C19 UNL     1      23.152  -0.354  53.888  1.00  0.00     0.031 A 
HETATM   16  C20 UNL     1      22.395   0.309  52.907  1.00  0.00     0.058 A 
HETATM   17  N2  UNL     1      22.777   1.318  51.948  1.00  0.00    -0.284 N 
ENDROOT
BRANCH   1  18
HETATM   18  C5  UNL     1      24.524   2.542  53.209  1.00  0.00     0.176 C 
BRANCH  18  19
HETATM   19  C4  UNL     1      25.830   1.884  53.197  1.00  0.00    -0.009 C 
HETATM   20  C3  UNL     1      26.353   0.727  52.825  1.00  0.00    -0.023 C 
BRANCH  20  21
HETATM   21  C2  UNL     1      27.457  -0.224  52.653  1.00  0.00     0.027 C 
HETATM   22  C1  UNL     1      26.971  -1.654  52.738  1.00  0.00     0.016 C 
BRANCH  21  23
HETATM   23  C21 UNL     1      28.454  -0.062  53.798  1.00  0.00     0.172 C 
BRANCH  23  24
HETATM   24  O1  UNL     1      27.776  -0.446  54.966  1.00  0.00    -0.400 OA
HETATM   25  H28 UNL     1      27.618  -1.403  55.010  1.00  0.00     0.209 HD
ENDBRANCH  23  24
ENDBRANCH  21  23
ENDBRANCH  20  21
ENDBRANCH  18  19
ENDBRANCH   1  18
TORSDOF 5
ENDMDL
MODEL 3
REMARK VINA RESULT:      -8.6      2.741      6.331
REMARK  5 active torsions:
REMARK  status: ('A' for Active; 'I' for Inactive)
REMARK    1  A    between atoms: C2_2  and  C3_3 
REMARK    2  A    between atoms: C2_2  and  C21_23 
REMARK    3  A    between atoms: C4_4  and  C5_5 
REMARK    4  A    between atoms: C5_5  and  N1_6 
REMARK    5  A    between atoms: C21_23  and  O1_24 
ROOT
HETATM    1  N1  UNL     1      23.897   1.995  52.928  1.00  0.00    -0.290 N 
HETATM    2  C6  UNL     1      22.618   1.376  52.887  1.00  0.00     0.031 A 
HETATM    3  C7  UNL     1      22.418   0.083  53.099  1.00  0.00    -0.054 A 
HETATM    4  C8  UNL     1      21.109  -0.616  53.070  1.00  0.00     0.036 C 
HETATM    5  C9  UNL     1      19.959   0.242  52.651  1.00  0.00     0.005 C 
HETATM    6  C10 UNL     1      20.471   1.342  51.764  1.00  0.00     0.006 C 
HETATM    7  C11 UNL     1      21.418   2.199  52.612  1.00  0.00     0.059 C 
HETATM    8  C12 UNL     1      23.468  -0.932  53.423  1.00  0.00     0.064 A 
HETATM    9  C13 UNL     1      24.849  -0.403  53.403  1.00  0.00     0.117 A 
HETATM   10  C14 UNL     1      25.544  -0.459  54.775  1.00  0.00     0.068 C 
HETATM   11  C15 UNL     1      26.775   0.362  54.438  1.00  0.00    -0.028 A 
HETATM   12  C16 UNL     1      28.092   0.390  54.841  1.00  0.00     0.009 A 
HETATM   13  C17 UNL     1      28.964   1.306  54.256  1.00  0.00     0.001 A 
HETATM   14  C18 UNL     1      28.574   2.206  53.276  1.00  0.00     0.002 A 
HETATM   15  C19 UNL     1      27.232   2.173  52.870  1.00  0.00     0.031 A 
HETATM   16  C20 UNL     1      26.335   1.259  53.447  1.00  0.00     0.058 A 
HETATM   17  N2  UNL     1      24.923   1.059  53.223  1.00  0.00    -0.284 N 
ENDROOT
BRANCH   1  18
HETATM   18  C5  UNL     1      24.186   3.368  52.706  1.00  0.00     0.176 C 
BRANCH  18  19
HETATM   19  C4  UNL     1      24.307   3.809  51.317  1.00  0.00    -0.009 C 
HETATM   20  C3  UNL     1      25.245   4.254  50.498  1.00  0.00    -0.023 C 
BRANCH  20  21
HETATM   21  C2  UNL     1      25.740   4.745  49.206  1.00  0.00     0.027 C 
HETATM   22  C1  UNL     1      27.195   4.382  48.999  1.00  0.00     0.016 C 
BRANCH  21  23
HETATM   23  C21 UNL     1      25.693   6.271  49.187  1.00  0.00     0.172 C 
BRANCH  23  24
HETATM   24  O1  UNL     1      26.199   6.694  50.427  1.00  0.00    -0.400 OA
HETATM   25  H28 UNL     1      26.380   7.648  50.452  1.00  0.00     0.209 HD
ENDBRANCH  23  24
ENDBRANCH  21  23
ENDBRANCH  20  21
ENDBRANCH  18  19
ENDBRANCH   1  18
TORSDOF 5
ENDMDL
MODEL 4
REMARK VINA RESULT:      -8.4      1.741      5.197
REMARK  5 active torsions:
REMARK  status: ('A' for Active; 'I' for Inactive)
REMARK    1  A    between atoms: C2_2  and  C3_3 
REMARK    2  A    between atoms: C2_2  and  C21_23 
REMARK    3  A    between atoms: C4_4  and  C5_5 
REMARK    4  A    between atoms: C5_5  and  N1_6 
REMARK    5  A    between atoms: C21_23  and  O1_24 
ROOT
HETATM    1  N1  UNL     1      24.310   0.863  52.154  1.00  0.00    -0.290 N 
HETATM    2  C6  UNL     1      23.189   0.386  52.888  1.00  0.00     0.031 A 
HETATM    3  C7  UNL     1      22.096   1.102  53.111  1.00  0.00    -0.054 A 
HETATM    4  C8  UNL     1      20.899   0.657  53.868  1.00  0.00     0.036 C 
HETATM    5  C9  UNL     1      21.036  -0.688  54.507  1.00  0.00     0.005 C 
HETATM    6  C10 UNL     1      22.489  -0.947  54.786  1.00  0.00     0.006 C 
HETATM    7  C11 UNL     1      23.207  -0.991  53.432  1.00  0.00     0.059 C 
HETATM    8  C12 UNL     1      21.841   2.497  52.636  1.00  0.00     0.064 A 
HETATM    9  C13 UNL     1      22.986   3.117  51.935  1.00  0.00     0.117 A 
HETATM   10  C14 UNL     1      22.693   3.443  50.459  1.00  0.00     0.068 C 
HETATM   11  C15 UNL     1      24.101   3.804  50.025  1.00  0.00    -0.028 A 
HETATM   12  C16 UNL     1      24.669   4.660  49.107  1.00  0.00     0.009 A 
HETATM   13  C17 UNL     1      26.058   4.737  49.016  1.00  0.00     0.001 A 
HETATM   14  C18 UNL     1      26.913   3.988  49.810  1.00  0.00     0.002 A 
HETATM   15  C19 UNL     1      26.329   3.118  50.742  1.00  0.00     0.031 A 
HETATM   16  C20 UNL     1      24.932   3.023  50.850  1.00  0.00     0.058 A 
HETATM   17  N2  UNL     1      24.108   2.191  51.695  1.00  0.00    -0.284 N 
ENDROOT
BRANCH   1  18
HETATM   18  C5  UNL     1      25.512   0.157  51.881  1.00  0.00     0.176 C 
BRANCH  18  19
HETATM   19  C4  UNL     1      26.602   0.298  52.846  1.00  0.00    -0.009 C 
HETATM   20  C3  UNL     1      27.922   0.383  52.843  1.00  0.00    -0.023 C 
BRANCH  20  21
HETATM   21  C2  UNL     1      29.234   0.515  53.487  1.00  0.00     0.027 C 
HETATM   22  C1  UNL     1      29.827  -0.839  53.812  1.00  0.00     0.016 C 
BRANCH  21  23
HETATM   23  C21 UNL     1      29.075   1.224  54.830  1.00  0.00     0.172 C 
BRANCH  23  24
HETATM   24  O1  UNL     1      29.756   2.447  54.710  1.00  0.00    -0.400 OA
HETATM   25  H28 UNL     1      30.374   2.459  53.962  1.00  0.00     0.209 HD
ENDBRANCH  23  24
ENDBRANCH  21  23
ENDBRANCH  20  21
ENDBRANCH  18  19
ENDBRANCH   1  18
TORSDOF 5
ENDMDL
MODEL 5
REMARK VINA RESULT:      -7.9      3.046      5.736
REMARK  5 active torsions:
REMARK  status: ('A' for Active; 'I' for Inactive)
REMARK    1  A    between atoms: C2_2  and  C3_3 
REMARK    2  A    between atoms: C2_2  and  C21_23 
REMARK    3  A    between atoms: C4_4  and  C5_5 
REMARK    4  A    between atoms: C5_5  and  N1_6 
REMARK    5  A    between atoms: C21_23  and  O1_24 
ROOT
HETATM    1  N1  UNL     1      22.529   0.399  52.357  1.00  0.00    -0.290 N 
HETATM    2  C6  UNL     1      23.782   0.172  52.989  1.00  0.00     0.031 A 
HETATM    3  C7  UNL     1      23.915  -0.404  54.176  1.00  0.00    -0.054 A 
HETATM    4  C8  UNL     1      25.194  -0.667  54.882  1.00  0.00     0.036 C 
HETATM    5  C9  UNL     1      26.403  -0.113  54.198  1.00  0.00     0.005 C 
HETATM    6  C10 UNL     1      25.995   1.078  53.380  1.00  0.00     0.006 C 
HETATM    7  C11 UNL     1      25.029   0.574  52.301  1.00  0.00     0.059 C 
HETATM    8  C12 UNL     1      22.806  -0.917  55.039  1.00  0.00     0.064 A 
HETATM    9  C13 UNL     1      21.452  -0.649  54.508  1.00  0.00     0.117 A 
HETATM   10  C14 UNL     1      20.667  -1.927  54.165  1.00  0.00     0.068 C 
HETATM   11  C15 UNL     1      19.495  -1.286  53.446  1.00  0.00    -0.028 A 
HETATM   12  C16 UNL     1      18.156  -1.567  53.279  1.00  0.00     0.009 A 
HETATM   13  C17 UNL     1      17.362  -0.688  52.544  1.00  0.00     0.001 A 
HETATM   14  C18 UNL     1      17.852   0.471  51.961  1.00  0.00     0.002 A 
HETATM   15  C19 UNL     1      19.215   0.751  52.134  1.00  0.00     0.031 A 
HETATM   16  C20 UNL     1      20.035  -0.121  52.869  1.00  0.00     0.058 A 
HETATM   17  N2  UNL     1      21.449  -0.066  53.153  1.00  0.00    -0.284 N 
ENDROOT
BRANCH   1  18
HETATM   18  C5  UNL     1      22.311   1.012  51.095  1.00  0.00     0.176 C 
BRANCH  18  19
HETATM   19  C4  UNL     1      22.168   2.467  51.076  1.00  0.00    -0.009 C 
HETATM   20  C3  UNL     1      22.579   3.512  51.776  1.00  0.00    -0.023 C 
BRANCH  20  21
HETATM   21  C2  UNL     1      22.665   4.946  52.072  1.00  0.00     0.027 C 
HETATM   22  C1  UNL     1      21.599   5.727  51.334  1.00  0.00     0.016 C 
BRANCH  21  23
HETATM   23  C21 UNL     1      23.998   5.494  51.566  1.00  0.00     0.172 C 
BRANCH  23  24
HETATM   24  O1  UNL     1      24.300   6.600  52.377  1.00  0.00    -0.400 OA
HETATM   25  H28 UNL     1      24.548   6.346  53.280  1.00  0.00     0.209 HD
ENDBRANCH  23  24
ENDBRANCH  21  23
ENDBRANCH  20  21
ENDBRANCH  18  19
ENDBRANCH   1  18
TORSDOF 5
ENDMDL
MODEL 6
REMARK VINA RESULT:      -7.8      2.714      5.520
REMARK  5 active torsions:
REMARK  status: ('A' for Active; 'I' for Inactive)
REMARK    1  A    between atoms: C2_2  and  C3_3 
REMARK    2  A    between atoms: C2_2  and  C21_23 
REMARK    3  A    between atoms: C4_4  and  C5_5 
REMARK    4  A    between atoms: C5_5  and  N1_6 
REMARK    5  A    between atoms: C21_23  and  O1_24 
ROOT
HETATM    1  N1  UNL     1      24.931   2.097  52.445  1.00  0.00    -0.290 N 
HETATM    2  C6  UNL     1      26.201   1.602  52.852  1.00  0.00     0.031 A 
HETATM    3  C7  UNL     1      26.363   0.539  53.628  1.00  0.00    -0.054 A 
HETATM    4  C8  UNL     1      27.660  -0.022  54.083  1.00  0.00     0.036 C 
HETATM    5  C9  UNL     1      28.854   0.787  53.691  1.00  0.00     0.005 C 
HETATM    6  C10 UNL     1      28.440   2.223  53.537  1.00  0.00     0.006 C 
HETATM    7  C11 UNL     1      27.431   2.279  52.384  1.00  0.00     0.059 C 
HETATM    8  C12 UNL     1      25.274  -0.317  54.193  1.00  0.00     0.064 A 
HETATM    9  C13 UNL     1      23.908   0.168  53.899  1.00  0.00     0.117 A 
HETATM   10  C14 UNL     1      23.090  -0.804  53.029  1.00  0.00     0.068 C 
HETATM   11  C15 UNL     1      21.906   0.099  52.736  1.00  0.00    -0.028 A 
HETATM   12  C16 UNL     1      20.559  -0.073  52.507  1.00  0.00     0.009 A 
HETATM   13  C17 UNL     1      19.756   1.047  52.296  1.00  0.00     0.001 A 
HETATM   14  C18 UNL     1      20.245   2.344  52.302  1.00  0.00     0.002 A 
HETATM   15  C19 UNL     1      21.618   2.512  52.535  1.00  0.00     0.031 A 
HETATM   16  C20 UNL     1      22.447   1.398  52.749  1.00  0.00     0.058 A 
HETATM   17  N2  UNL     1      23.870   1.314  52.972  1.00  0.00    -0.284 N 
ENDROOT
BRANCH   1  18
HETATM   18  C5  UNL     1      24.682   3.228  51.623  1.00  0.00     0.176 C 
BRANCH  18  19
HETATM   19  C4  UNL     1      24.368   2.974  50.217  1.00  0.00    -0.009 C 
HETATM   20  C3  UNL     1      23.299   2.870  49.444  1.00  0.00    -0.023 C 
BRANCH  20  21
HETATM   21  C2  UNL     1      22.618   2.655  48.163  1.00  0.00     0.027 C 
HETATM   22  C1  UNL     1      21.716   3.820  47.815  1.00  0.00     0.016 C 
BRANCH  21  23
HETATM   23  C21 UNL     1      21.695   1.443  48.272  1.00  0.00     0.172 C 
BRANCH  23  24
HETATM   24  O1  UNL     1      20.390   1.925  48.081  1.00  0.00    -0.400 OA
HETATM   25  H28 UNL     1      20.368   2.758  47.583  1.00  0.00     0.209 HD
ENDBRANCH  23  24
ENDBRANCH  21  23
ENDBRANCH  20  21
ENDBRANCH  18  19
ENDBRANCH   1  18
TORSDOF 5
ENDMDL
MODEL 7
REMARK VINA RESULT:      -7.8      2.950      5.793
REMARK  5 active torsions:
REMARK  status: ('A' for Active; 'I' for Inactive)
REMARK    1  A    between atoms: C2_2  and  C3_3 
REMARK    2  A    between atoms: C2_2  and  C21_23 
REMARK    3  A    between atoms: C4_4  and  C5_5 
REMARK    4  A    between atoms: C5_5  and  N1_6 
REMARK    5  A    between atoms: C21_23  and  O1_24 
ROOT
HETATM    1  N1  UNL     1      23.050   2.955  51.956  1.00  0.00    -0.290 N 
HETATM    2  C6  UNL     1      21.658   3.184  51.778  1.00  0.00     0.031 A 
HETATM    3  C7  UNL     1      20.748   2.220  51.771  1.00  0.00    -0.054 A 
HETATM    4  C8  UNL     1      19.285   2.400  51.590  1.00  0.00     0.036 C 
HETATM    5  C9  UNL     1      18.868   3.802  51.283  1.00  0.00     0.005 C 
HETATM    6  C10 UNL     1      20.005   4.509  50.602  1.00  0.00     0.006 C 
HETATM    7  C11 UNL     1      21.163   4.568  51.605  1.00  0.00     0.059 C 
HETATM    8  C12 UNL     1      21.006   0.759  51.955  1.00  0.00     0.064 A 
HETATM    9  C13 UNL     1      22.439   0.406  52.061  1.00  0.00     0.117 A 
HETATM   10  C14 UNL     1      22.819  -0.197  53.426  1.00  0.00     0.068 C 
HETATM   11  C15 UNL     1      24.328  -0.190  53.263  1.00  0.00    -0.028 A 
HETATM   12  C16 UNL     1      25.379  -0.964  53.703  1.00  0.00     0.009 A 
HETATM   13  C17 UNL     1      26.675  -0.646  53.301  1.00  0.00     0.001 A 
HETATM   14  C18 UNL     1      26.970   0.424  52.470  1.00  0.00     0.002 A 
HETATM   15  C19 UNL     1      25.896   1.209  52.025  1.00  0.00     0.031 A 
HETATM   16  C20 UNL     1      24.582   0.907  52.419  1.00  0.00     0.058 A 
HETATM   17  N2  UNL     1      23.336   1.574  52.124  1.00  0.00    -0.284 N 
ENDROOT
BRANCH   1  18
HETATM   18  C5  UNL     1      24.079   3.934  51.970  1.00  0.00     0.176 C 
BRANCH  18  19
HETATM   19  C4  UNL     1      24.737   4.228  50.697  1.00  0.00    -0.009 C 
HETATM   20  C3  UNL     1      25.239   5.273  50.061  1.00  0.00    -0.023 C 
BRANCH  20  21
HETATM   21  C2  UNL     1      25.901   5.931  48.928  1.00  0.00     0.027 C 
HETATM   22  C1  UNL     1      27.243   5.297  48.630  1.00  0.00     0.016 C 
BRANCH  21  23
HETATM   23  C21 UNL     1      26.206   7.383  49.287  1.00  0.00     0.172 C 
BRANCH  23  24
HETATM   24  O1  UNL     1      26.353   7.420  50.683  1.00  0.00    -0.400 OA
HETATM   25  H28 UNL     1      26.663   8.281  51.005  1.00  0.00     0.209 HD
ENDBRANCH  23  24
ENDBRANCH  21  23
ENDBRANCH  20  21
ENDBRANCH  18  19
ENDBRANCH   1  18
TORSDOF 5
ENDMDL
MODEL 8
REMARK VINA RESULT:      -7.8      2.987      5.720
REMARK  5 active torsions:
REMARK  status: ('A' for Active; 'I' for Inactive)
REMARK    1  A    between atoms: C2_2  and  C3_3 
REMARK    2  A    between atoms: C2_2  and  C21_23 
REMARK    3  A    between atoms: C4_4  and  C5_5 
REMARK    4  A    between atoms: C5_5  and  N1_6 
REMARK    5  A    between atoms: C21_23  and  O1_24 
ROOT
HETATM    1  N1  UNL     1      24.129   1.756  51.777  1.00  0.00    -0.290 N 
HETATM    2  C6  UNL     1      25.321   1.117  52.219  1.00  0.00     0.031 A 
HETATM    3  C7  UNL     1      25.343   0.131  53.105  1.00  0.00    -0.054 A 
HETATM    4  C8  UNL     1      26.553  -0.571  53.601  1.00  0.00     0.036 C 
HETATM    5  C9  UNL     1      27.844  -0.003  53.107  1.00  0.00     0.005 C 
HETATM    6  C10 UNL     1      27.648   1.455  52.801  1.00  0.00     0.006 C 
HETATM    7  C11 UNL     1      26.625   1.542  51.663  1.00  0.00     0.059 C 
HETATM    8  C12 UNL     1      24.155  -0.482  53.775  1.00  0.00     0.064 A 
HETATM    9  C13 UNL     1      22.870   0.174  53.448  1.00  0.00     0.117 A 
HETATM   10  C14 UNL     1      21.888  -0.748  52.701  1.00  0.00     0.068 C 
HETATM   11  C15 UNL     1      20.846   0.290  52.326  1.00  0.00    -0.028 A 
HETATM   12  C16 UNL     1      19.482   0.305  52.136  1.00  0.00     0.009 A 
HETATM   13  C17 UNL     1      18.852   1.506  51.814  1.00  0.00     0.001 A 
HETATM   14  C18 UNL     1      19.533   2.705  51.670  1.00  0.00     0.002 A 
HETATM   15  C19 UNL     1      20.922   2.684  51.865  1.00  0.00     0.031 A 
HETATM   16  C20 UNL     1      21.578   1.484  52.189  1.00  0.00     0.058 A 
HETATM   17  N2  UNL     1      22.978   1.207  52.401  1.00  0.00    -0.284 N 
ENDROOT
BRANCH   1  18
HETATM   18  C5  UNL     1      24.030   2.817  50.838  1.00  0.00     0.176 C 
BRANCH  18  19
HETATM   19  C4  UNL     1      24.162   4.179  51.355  1.00  0.00    -0.009 C 
HETATM   20  C3  UNL     1      24.114   5.420  50.899  1.00  0.00    -0.023 C 
BRANCH  20  21
HETATM   21  C2  UNL     1      24.180   6.878  51.044  1.00  0.00     0.027 C 
HETATM   22  C1  UNL     1      22.887   7.535  50.612  1.00  0.00     0.016 C 
BRANCH  21  23
HETATM   23  C21 UNL     1      25.253   7.436  50.111  1.00  0.00     0.172 C 
BRANCH  23  24
HETATM   24  O1  UNL     1      26.372   7.704  50.916  1.00  0.00    -0.400 OA
HETATM   25  H28 UNL     1      26.129   8.005  51.806  1.00  0.00     0.209 HD
ENDBRANCH  23  24
ENDBRANCH  21  23
ENDBRANCH  20  21
ENDBRANCH  18  19
ENDBRANCH   1  18
TORSDOF 5
ENDMDL
MODEL 9
REMARK VINA RESULT:      -7.7      3.182      7.473
REMARK  5 active torsions:
REMARK  status: ('A' for Active; 'I' for Inactive)
REMARK    1  A    between atoms: C2_2  and  C3_3 
REMARK    2  A    between atoms: C2_2  and  C21_23 
REMARK    3  A    between atoms: C4_4  and  C5_5 
REMARK    4  A    between atoms: C5_5  and  N1_6 
REMARK    5  A    between atoms: C21_23  and  O1_24 
ROOT
HETATM    1  N1  UNL     1      22.062   1.373  52.372  1.00  0.00    -0.290 N 
HETATM    2  C6  UNL     1      22.457   0.479  53.405  1.00  0.00     0.031 A 
HETATM    3  C7  UNL     1      23.706   0.076  53.594  1.00  0.00    -0.054 A 
HETATM    4  C8  UNL     1      24.174  -0.852  54.653  1.00  0.00     0.036 C 
HETATM    5  C9  UNL     1      23.082  -1.441  55.487  1.00  0.00     0.005 C 
HETATM    6  C10 UNL     1      21.820  -1.485  54.673  1.00  0.00     0.006 C 
HETATM    7  C11 UNL     1      21.441  -0.035  54.352  1.00  0.00     0.059 C 
HETATM    8  C12 UNL     1      24.897   0.484  52.787  1.00  0.00     0.064 A 
HETATM    9  C13 UNL     1      24.578   1.347  51.629  1.00  0.00     0.117 A 
HETATM   10  C14 UNL     1      25.197   2.753  51.728  1.00  0.00     0.068 C 
HETATM   11  C15 UNL     1      24.478   3.398  50.558  1.00  0.00    -0.028 A 
HETATM   12  C16 UNL     1      24.763   4.381  49.635  1.00  0.00     0.009 A 
HETATM   13  C17 UNL     1      23.822   4.687  48.654  1.00  0.00     0.001 A 
HETATM   14  C18 UNL     1      22.595   4.049  48.552  1.00  0.00     0.002 A 
HETATM   15  C19 UNL     1      22.311   3.050  49.494  1.00  0.00     0.031 A 
HETATM   16  C20 UNL     1      23.243   2.725  50.493  1.00  0.00     0.058 A 
HETATM   17  N2  UNL     1      23.168   1.774  51.577  1.00  0.00    -0.284 N 
ENDROOT
BRANCH   1  18
HETATM   18  C5  UNL     1      20.748   1.842  52.108  1.00  0.00     0.176 C 
BRANCH  18  19
HETATM   19  C4  UNL     1      19.825   0.910  51.461  1.00  0.00    -0.009 C 
HETATM   20  C3  UNL     1      18.664   0.328  51.716  1.00  0.00    -0.023 C 
BRANCH  20  21
HETATM   21  C2  UNL     1      17.535  -0.551  51.395  1.00  0.00     0.027 C 
HETATM   22  C1  UNL     1      16.924  -0.199  50.056  1.00  0.00     0.016 C 
BRANCH  21  23
HETATM   23  C21 UNL     1      16.421  -0.347  52.419  1.00  0.00     0.172 C 
BRANCH  23  24
HETATM   24  O1  UNL     1      16.838  -1.002  53.589  1.00  0.00    -0.400 OA
HETATM   25  H28 UNL     1      16.115  -1.134  54.223  1.00  0.00     0.209 HD
ENDBRANCH  23  24
ENDBRANCH  21  23
ENDBRANCH  20  21
ENDBRANCH  18  19
ENDBRANCH   1  18
TORSDOF 5
ENDMDL
