MODEL 1
REMARK VINA RESULT:      -8.4      0.000      0.000
REMARK  7 active torsions:
REMARK  status: ('A' for Active; 'I' for Inactive)
REMARK    1  A    between atoms: N1_1  and  C1_2 
REMARK    2  A    between atoms: C1_2  and  N2_3 
REMARK    3  A    between atoms: C1_2  and  C9_12 
REMARK    4  A    between atoms: C2_4  and  C3_5 
REMARK    5  A    between atoms: C13_16  and  O1_17 
REMARK    6  A    between atoms: O1_17  and  C14_18 
REMARK    7  A    between atoms: C14_18  and  C15_21 
ROOT
HETATM    1  C9  UNL     1      24.421   1.402  52.145  1.00  0.00    -0.002 A 
HETATM    2  C10 UNL     1      23.497   0.746  52.933  1.00  0.00     0.011 A 
HETATM    3  C11 UNL     1      23.892  -0.382  53.650  1.00  0.00     0.003 A 
HETATM    4  C12 UNL     1      25.199  -0.823  53.561  1.00  0.00     0.037 A 
HETATM    5  C13 UNL     1      26.126  -0.175  52.778  1.00  0.00     0.076 A 
HETATM    6  C16 UNL     1      25.727   0.956  52.061  1.00  0.00     0.048 A 
ENDROOT
BRANCH   1   7
HETATM    7  C1  UNL     1      23.877   2.588  51.432  1.00  0.00     0.372 C 
BRANCH   7   8
HETATM    8  N1  UNL     1      23.003   3.345  52.312  1.00  0.00     0.107 N 
HETATM    9  H1  UNL     1      23.059   4.366  52.126  1.00  0.00     0.316 HD
HETATM   10  H2  UNL     1      22.016   3.061  52.240  1.00  0.00     0.316 HD
ENDBRANCH   7   8
BRANCH   7  11
HETATM   11  N2  UNL     1      24.936   3.448  50.917  1.00  0.00    -0.261 NA
HETATM   12  C2  UNL     1      24.791   3.922  49.733  1.00  0.00     0.124 C 
BRANCH  12  13
HETATM   13  C3  UNL     1      25.831   4.785  49.187  1.00  0.00    -0.019 A 
HETATM   14  C4  UNL     1      25.581   6.082  48.808  1.00  0.00     0.014 A 
HETATM   15  C5  UNL     1      26.601   6.857  48.295  1.00  0.00     0.024 A 
HETATM   16  C6  UNL     1      27.890   6.394  48.139  1.00  0.00     0.034 A 
HETATM   17 CL1  UNL     1      29.213   7.340  47.495  1.00  0.00    -0.084 Cl
HETATM   18  C7  UNL     1      28.170   5.083  48.516  1.00  0.00     0.024 A 
HETATM   19  C8  UNL     1      27.128   4.342  49.021  1.00  0.00     0.014 A 
ENDBRANCH  12  13
ENDBRANCH   7  11
ENDBRANCH   1   7
BRANCH   5  20
HETATM   20  O1  UNL     1      27.452  -0.573  52.652  1.00  0.00    -0.279 OA
BRANCH  20  21
HETATM   21  C14 UNL     1      28.353  -0.056  53.636  1.00  0.00     0.418 C 
HETATM   22  F1  UNL     1      27.729   0.057  54.866  1.00  0.00    -0.169 F 
HETATM   23  F2  UNL     1      28.656   1.253  53.257  1.00  0.00    -0.169 F 
BRANCH  21  24
HETATM   24  C15 UNL     1      29.599  -0.886  53.754  1.00  0.00     0.455 C 
HETATM   25  F3  UNL     1      30.650  -0.180  53.169  1.00  0.00    -0.205 F 
HETATM   26  F4  UNL     1      29.398  -2.095  53.110  1.00  0.00    -0.205 F 
ENDBRANCH  21  24
ENDBRANCH  20  21
ENDBRANCH   5  20
TORSDOF 7
ENDMDL
MODEL 2
REMARK VINA RESULT:      -8.3      1.106      1.697
REMARK  7 active torsions:
REMARK  status: ('A' for Active; 'I' for Inactive)
REMARK    1  A    between atoms: N1_1  and  C1_2 
REMARK    2  A    between atoms: C1_2  and  N2_3 
REMARK    3  A    between atoms: C1_2  and  C9_12 
REMARK    4  A    between atoms: C2_4  and  C3_5 
REMARK    5  A    between atoms: C13_16  and  O1_17 
REMARK    6  A    between atoms: O1_17  and  C14_18 
REMARK    7  A    between atoms: C14_18  and  C15_21 
ROOT
HETATM    1  C9  UNL     1      24.018   1.995  52.385  1.00  0.00    -0.002 A 
HETATM    2  C10 UNL     1      23.396   0.764  52.430  1.00  0.00     0.011 A 
HETATM    3  C11 UNL     1      23.958  -0.257  53.194  1.00  0.00     0.003 A 
HETATM    4  C12 UNL     1      25.126  -0.020  53.894  1.00  0.00     0.037 A 
HETATM    5  C13 UNL     1      25.753   1.205  53.855  1.00  0.00     0.076 A 
HETATM    6  C16 UNL     1      25.186   2.226  53.088  1.00  0.00     0.048 A 
ENDROOT
BRANCH   1   7
HETATM    7  C1  UNL     1      23.320   2.997  51.537  1.00  0.00     0.372 C 
BRANCH   7   8
HETATM    8  N1  UNL     1      22.300   3.685  52.308  1.00  0.00     0.107 N 
HETATM    9  H1  UNL     1      21.343   3.448  51.980  1.00  0.00     0.316 HD
HETATM   10  H2  UNL     1      22.352   3.484  53.315  1.00  0.00     0.316 HD
ENDBRANCH   7   8
BRANCH   7  11
HETATM   11  N2  UNL     1      24.248   3.961  50.958  1.00  0.00    -0.261 NA
HETATM   12  C2  UNL     1      24.857   3.625  49.880  1.00  0.00     0.124 C 
BRANCH  12  13
HETATM   13  C3  UNL     1      25.792   4.566  49.275  1.00  0.00    -0.019 A 
HETATM   14  C4  UNL     1      27.117   4.257  49.080  1.00  0.00     0.014 A 
HETATM   15  C5  UNL     1      27.961   5.185  48.503  1.00  0.00     0.024 A 
HETATM   16  C6  UNL     1      27.540   6.434  48.100  1.00  0.00     0.034 A 
HETATM   17 CL1  UNL     1      28.573   7.640  47.365  1.00  0.00    -0.084 Cl
HETATM   18  C7  UNL     1      26.201   6.772  48.286  1.00  0.00     0.024 A 
HETATM   19  C8  UNL     1      25.393   5.822  48.864  1.00  0.00     0.014 A 
ENDBRANCH  12  13
ENDBRANCH   7  11
ENDBRANCH   1   7
BRANCH   5  20
HETATM   20  O1  UNL     1      26.928   1.499  54.538  1.00  0.00    -0.279 OA
BRANCH  20  21
HETATM   21  C14 UNL     1      28.116   1.534  53.743  1.00  0.00     0.418 C 
HETATM   22  F1  UNL     1      28.653   2.810  53.712  1.00  0.00    -0.169 F 
HETATM   23  F2  UNL     1      27.730   1.268  52.429  1.00  0.00    -0.169 F 
BRANCH  21  24
HETATM   24  C15 UNL     1      29.143   0.545  54.215  1.00  0.00     0.455 C 
HETATM   25  F3  UNL     1      29.343  -0.392  53.201  1.00  0.00    -0.205 F 
HETATM   26  F4  UNL     1      28.682  -0.067  55.368  1.00  0.00    -0.205 F 
ENDBRANCH  21  24
ENDBRANCH  20  21
ENDBRANCH   5  20
TORSDOF 7
ENDMDL
MODEL 3
REMARK VINA RESULT:      -7.6      3.097      3.572
REMARK  7 active torsions:
REMARK  status: ('A' for Active; 'I' for Inactive)
REMARK    1  A    between atoms: N1_1  and  C1_2 
REMARK    2  A    between atoms: C1_2  and  N2_3 
REMARK    3  A    between atoms: C1_2  and  C9_12 
REMARK    4  A    between atoms: C2_4  and  C3_5 
REMARK    5  A    between atoms: C13_16  and  O1_17 
REMARK    6  A    between atoms: O1_17  and  C14_18 
REMARK    7  A    between atoms: C14_18  and  C15_21 
ROOT
HETATM    1  C9  UNL     1      24.022   2.648  52.897  1.00  0.00    -0.002 A 
HETATM    2  C10 UNL     1      23.456   1.426  52.596  1.00  0.00     0.011 A 
HETATM    3  C11 UNL     1      24.140   0.258  52.929  1.00  0.00     0.003 A 
HETATM    4  C12 UNL     1      25.369   0.343  53.554  1.00  0.00     0.037 A 
HETATM    5  C13 UNL     1      25.941   1.558  53.857  1.00  0.00     0.076 A 
HETATM    6  C16 UNL     1      25.253   2.727  53.522  1.00  0.00     0.048 A 
ENDROOT
BRANCH   1   7
HETATM    7  C1  UNL     1      23.194   3.815  52.491  1.00  0.00     0.372 C 
BRANCH   7   8
HETATM    8  N1  UNL     1      23.951   5.046  52.646  1.00  0.00     0.107 N 
HETATM    9  H1  UNL     1      24.934   4.938  52.326  1.00  0.00     0.316 HD
HETATM   10  H2  UNL     1      23.536   5.840  52.140  1.00  0.00     0.316 HD
ENDBRANCH   7   8
BRANCH   7  11
HETATM   11  N2  UNL     1      22.713   3.691  51.121  1.00  0.00    -0.261 NA
HETATM   12  C2  UNL     1      23.267   4.429  50.229  1.00  0.00     0.124 C 
BRANCH  12  13
HETATM   13  C3  UNL     1      22.809   4.331  48.848  1.00  0.00    -0.019 A 
HETATM   14  C4  UNL     1      22.680   5.436  48.040  1.00  0.00     0.014 A 
HETATM   15  C5  UNL     1      22.241   5.288  46.740  1.00  0.00     0.024 A 
HETATM   16  C6  UNL     1      21.920   4.066  46.191  1.00  0.00     0.034 A 
HETATM   17 CL1  UNL     1      21.361   3.832  44.549  1.00  0.00    -0.084 Cl
HETATM   18  C7  UNL     1      22.043   2.930  46.988  1.00  0.00     0.024 A 
HETATM   19  C8  UNL     1      22.481   3.118  48.277  1.00  0.00     0.014 A 
ENDBRANCH  12  13
ENDBRANCH   7  11
ENDBRANCH   1   7
BRANCH   5  20
HETATM   20  O1  UNL     1      27.174   1.703  54.483  1.00  0.00    -0.279 OA
BRANCH  20  21
HETATM   21  C14 UNL     1      28.318   1.636  53.626  1.00  0.00     0.418 C 
HETATM   22  F1  UNL     1      29.092   2.777  53.746  1.00  0.00    -0.169 F 
HETATM   23  F2  UNL     1      27.841   1.654  52.315  1.00  0.00    -0.169 F 
BRANCH  21  24
HETATM   24  C15 UNL     1      29.147   0.411  53.883  1.00  0.00     0.455 C 
HETATM   25  F3  UNL     1      28.779  -0.566  52.957  1.00  0.00    -0.205 F 
HETATM   26  F4  UNL     1      28.917  -0.025  55.177  1.00  0.00    -0.205 F 
ENDBRANCH  21  24
ENDBRANCH  20  21
ENDBRANCH   5  20
TORSDOF 7
ENDMDL
MODEL 4
REMARK VINA RESULT:      -7.4      4.362      6.487
REMARK  7 active torsions:
REMARK  status: ('A' for Active; 'I' for Inactive)
REMARK    1  A    between atoms: N1_1  and  C1_2 
REMARK    2  A    between atoms: C1_2  and  N2_3 
REMARK    3  A    between atoms: C1_2  and  C9_12 
REMARK    4  A    between atoms: C2_4  and  C3_5 
REMARK    5  A    between atoms: C13_16  and  O1_17 
REMARK    6  A    between atoms: O1_17  and  C14_18 
REMARK    7  A    between atoms: C14_18  and  C15_21 
ROOT
HETATM    1  C9  UNL     1      23.367   2.724  50.553  1.00  0.00    -0.002 A 
HETATM    2  C10 UNL     1      23.002   2.480  49.244  1.00  0.00     0.011 A 
HETATM    3  C11 UNL     1      21.822   1.785  48.985  1.00  0.00     0.003 A 
HETATM    4  C12 UNL     1      21.039   1.355  50.038  1.00  0.00     0.037 A 
HETATM    5  C13 UNL     1      21.395   1.594  51.346  1.00  0.00     0.076 A 
HETATM    6  C16 UNL     1      22.579   2.291  51.603  1.00  0.00     0.048 A 
ENDROOT
BRANCH   1   7
HETATM    7  C1  UNL     1      24.644   3.473  50.696  1.00  0.00     0.372 C 
BRANCH   7   8
HETATM    8  N1  UNL     1      24.493   4.543  51.666  1.00  0.00     0.107 N 
HETATM    9  H1  UNL     1      24.436   4.178  52.638  1.00  0.00     0.316 HD
HETATM   10  H2  UNL     1      25.256   5.232  51.628  1.00  0.00     0.316 HD
ENDBRANCH   7   8
BRANCH   7  11
HETATM   11  N2  UNL     1      25.747   2.600  51.080  1.00  0.00    -0.261 NA
HETATM   12  C2  UNL     1      25.675   2.023  52.224  1.00  0.00     0.124 C 
BRANCH  12  13
HETATM   13  C3  UNL     1      26.762   1.143  52.640  1.00  0.00    -0.019 A 
HETATM   14  C4  UNL     1      26.647  -0.226  52.606  1.00  0.00     0.014 A 
HETATM   15  C5  UNL     1      27.705  -1.014  53.011  1.00  0.00     0.024 A 
HETATM   16  C6  UNL     1      28.901  -0.493  53.458  1.00  0.00     0.034 A 
HETATM   17 CL1  UNL     1      30.268  -1.452  53.980  1.00  0.00    -0.084 Cl
HETATM   18  C7  UNL     1      29.043   0.892  53.501  1.00  0.00     0.024 A 
HETATM   19  C8  UNL     1      27.967   1.643  53.091  1.00  0.00     0.014 A 
ENDBRANCH  12  13
ENDBRANCH   7  11
ENDBRANCH   1   7
BRANCH   5  20
HETATM   20  O1  UNL     1      20.647   1.184  52.443  1.00  0.00    -0.279 OA
BRANCH  20  21
HETATM   21  C14 UNL     1      20.918  -0.136  52.922  1.00  0.00     0.418 C 
HETATM   22  F1  UNL     1      21.726  -0.827  52.036  1.00  0.00    -0.169 F 
HETATM   23  F2  UNL     1      19.703  -0.823  52.922  1.00  0.00    -0.169 F 
BRANCH  21  24
HETATM   24  C15 UNL     1      21.532  -0.126  54.293  1.00  0.00     0.455 C 
HETATM   25  F3  UNL     1      22.918  -0.051  54.148  1.00  0.00    -0.205 F 
HETATM   26  F4  UNL     1      21.168  -1.285  54.958  1.00  0.00    -0.205 F 
ENDBRANCH  21  24
ENDBRANCH  20  21
ENDBRANCH   5  20
TORSDOF 7
ENDMDL
MODEL 5
REMARK VINA RESULT:      -7.3      4.237      6.857
REMARK  7 active torsions:
REMARK  status: ('A' for Active; 'I' for Inactive)
REMARK    1  A    between atoms: N1_1  and  C1_2 
REMARK    2  A    between atoms: C1_2  and  N2_3 
REMARK    3  A    between atoms: C1_2  and  C9_12 
REMARK    4  A    between atoms: C2_4  and  C3_5 
REMARK    5  A    between atoms: C13_16  and  O1_17 
REMARK    6  A    between atoms: O1_17  and  C14_18 
REMARK    7  A    between atoms: C14_18  and  C15_21 
ROOT
HETATM    1  C9  UNL     1      24.139   3.303  51.483  1.00  0.00    -0.002 A 
HETATM    2  C10 UNL     1      24.636   3.674  50.250  1.00  0.00     0.011 A 
HETATM    3  C11 UNL     1      25.941   3.324  49.909  1.00  0.00     0.003 A 
HETATM    4  C12 UNL     1      26.712   2.611  50.806  1.00  0.00     0.037 A 
HETATM    5  C13 UNL     1      26.224   2.236  52.037  1.00  0.00     0.076 A 
HETATM    6  C16 UNL     1      24.915   2.589  52.377  1.00  0.00     0.048 A 
ENDROOT
BRANCH   1   7
HETATM    7  C1  UNL     1      22.737   3.736  51.727  1.00  0.00     0.372 C 
BRANCH   7   8
HETATM    8  N1  UNL     1      22.120   4.163  50.483  1.00  0.00     0.107 N 
HETATM    9  H1  UNL     1      22.696   3.906  49.658  1.00  0.00     0.316 HD
HETATM   10  H2  UNL     1      21.177   3.775  50.348  1.00  0.00     0.316 HD
ENDBRANCH   7   8
BRANCH   7  11
HETATM   11  N2  UNL     1      21.941   2.683  52.346  1.00  0.00    -0.261 NA
HETATM   12  C2  UNL     1      21.323   1.871  51.567  1.00  0.00     0.124 C 
BRANCH  12  13
HETATM   13  C3  UNL     1      20.518   0.806  52.153  1.00  0.00    -0.019 A 
HETATM   14  C4  UNL     1      20.970   0.039  53.200  1.00  0.00     0.014 A 
HETATM   15  C5  UNL     1      20.168  -0.957  53.718  1.00  0.00     0.024 A 
HETATM   16  C6  UNL     1      18.908  -1.233  53.234  1.00  0.00     0.034 A 
HETATM   17 CL1  UNL     1      17.857  -2.485  53.860  1.00  0.00    -0.084 Cl
HETATM   18  C7  UNL     1      18.425  -0.470  52.174  1.00  0.00     0.024 A 
HETATM   19  C8  UNL     1      19.253   0.512  51.685  1.00  0.00     0.014 A 
ENDBRANCH  12  13
ENDBRANCH   7  11
ENDBRANCH   1   7
BRANCH   5  20
HETATM   20  O1  UNL     1      26.955   1.519  52.978  1.00  0.00    -0.279 OA
BRANCH  20  21
HETATM   21  C14 UNL     1      26.933   0.096  52.829  1.00  0.00     0.418 C 
HETATM   22  F1  UNL     1      28.210  -0.430  52.927  1.00  0.00    -0.169 F 
HETATM   23  F2  UNL     1      26.529  -0.166  51.519  1.00  0.00    -0.169 F 
BRANCH  21  24
HETATM   24  C15 UNL     1      26.017  -0.563  53.819  1.00  0.00     0.455 C 
HETATM   25  F3  UNL     1      24.750  -0.661  53.242  1.00  0.00    -0.205 F 
HETATM   26  F4  UNL     1      25.976   0.201  54.972  1.00  0.00    -0.205 F 
ENDBRANCH  21  24
ENDBRANCH  20  21
ENDBRANCH   5  20
TORSDOF 7
ENDMDL
MODEL 6
REMARK VINA RESULT:      -7.2      4.177      5.369
REMARK  7 active torsions:
REMARK  status: ('A' for Active; 'I' for Inactive)
REMARK    1  A    between atoms: N1_1  and  C1_2 
REMARK    2  A    between atoms: C1_2  and  N2_3 
REMARK    3  A    between atoms: C1_2  and  C9_12 
REMARK    4  A    between atoms: C2_4  and  C3_5 
REMARK    5  A    between atoms: C13_16  and  O1_17 
REMARK    6  A    between atoms: O1_17  and  C14_18 
REMARK    7  A    between atoms: C14_18  and  C15_21 
ROOT
HETATM    1  C9  UNL     1      25.413   1.460  52.218  1.00  0.00    -0.002 A 
HETATM    2  C10 UNL     1      26.446   0.612  51.871  1.00  0.00     0.011 A 
HETATM    3  C11 UNL     1      26.493  -0.666  52.424  1.00  0.00     0.003 A 
HETATM    4  C12 UNL     1      25.508  -1.063  53.307  1.00  0.00     0.037 A 
HETATM    5  C13 UNL     1      24.474  -0.224  53.659  1.00  0.00     0.076 A 
HETATM    6  C16 UNL     1      24.430   1.056  53.102  1.00  0.00     0.048 A 
ENDROOT
BRANCH   1   7
HETATM    7  C1  UNL     1      25.476   2.792  51.561  1.00  0.00     0.372 C 
BRANCH   7   8
HETATM    8  N1  UNL     1      26.859   3.178  51.337  1.00  0.00     0.107 N 
HETATM    9  H1  UNL     1      26.939   4.169  51.035  1.00  0.00     0.316 HD
HETATM   10  H2  UNL     1      27.453   3.047  52.167  1.00  0.00     0.316 HD
ENDBRANCH   7   8
BRANCH   7  11
HETATM   11  N2  UNL     1      24.740   2.815  50.303  1.00  0.00    -0.261 NA
HETATM   12  C2  UNL     1      24.050   3.864  50.038  1.00  0.00     0.124 C 
BRANCH  12  13
HETATM   13  C3  UNL     1      23.301   3.920  48.788  1.00  0.00    -0.019 A 
HETATM   14  C4  UNL     1      23.078   5.101  48.121  1.00  0.00     0.014 A 
HETATM   15  C5  UNL     1      22.362   5.099  46.942  1.00  0.00     0.024 A 
HETATM   16  C6  UNL     1      21.845   3.951  46.380  1.00  0.00     0.034 A 
HETATM   17 CL1  UNL     1      20.933   3.902  44.888  1.00  0.00    -0.084 Cl
HETATM   18  C7  UNL     1      22.057   2.741  47.035  1.00  0.00     0.024 A 
HETATM   19  C8  UNL     1      22.774   2.784  48.208  1.00  0.00     0.014 A 
ENDBRANCH  12  13
ENDBRANCH   7  11
ENDBRANCH   1   7
BRANCH   5  20
HETATM   20  O1  UNL     1      23.457  -0.570  54.541  1.00  0.00    -0.279 OA
BRANCH  20  21
HETATM   21  C14 UNL     1      22.233  -1.002  53.940  1.00  0.00     0.418 C 
HETATM   22  F1  UNL     1      21.922  -2.295  54.325  1.00  0.00    -0.169 F 
HETATM   23  F2  UNL     1      22.462  -1.075  52.565  1.00  0.00    -0.169 F 
BRANCH  21  24
HETATM   24  C15 UNL     1      21.093  -0.074  54.249  1.00  0.00     0.455 C 
HETATM   25  F3  UNL     1      19.901  -0.733  53.945  1.00  0.00    -0.205 F 
HETATM   26  F4  UNL     1      21.229   1.075  53.489  1.00  0.00    -0.205 F 
ENDBRANCH  21  24
ENDBRANCH  20  21
ENDBRANCH   5  20
TORSDOF 7
ENDMDL
MODEL 7
REMARK VINA RESULT:      -7.1      5.489      7.234
REMARK  7 active torsions:
REMARK  status: ('A' for Active; 'I' for Inactive)
REMARK    1  A    between atoms: N1_1  and  C1_2 
REMARK    2  A    between atoms: C1_2  and  N2_3 
REMARK    3  A    between atoms: C1_2  and  C9_12 
REMARK    4  A    between atoms: C2_4  and  C3_5 
REMARK    5  A    between atoms: C13_16  and  O1_17 
REMARK    6  A    between atoms: O1_17  and  C14_18 
REMARK    7  A    between atoms: C14_18  and  C15_21 
ROOT
HETATM    1  C9  UNL     1      26.829   5.692  48.747  1.00  0.00    -0.002 A 
HETATM    2  C10 UNL     1      27.243   4.399  48.995  1.00  0.00     0.011 A 
HETATM    3  C11 UNL     1      26.317   3.464  49.455  1.00  0.00     0.003 A 
HETATM    4  C12 UNL     1      25.005   3.845  49.653  1.00  0.00     0.037 A 
HETATM    5  C13 UNL     1      24.583   5.132  49.408  1.00  0.00     0.076 A 
HETATM    6  C16 UNL     1      25.513   6.067  48.947  1.00  0.00     0.048 A 
ENDROOT
BRANCH   1   7
HETATM    7  C1  UNL     1      27.909   6.591  48.262  1.00  0.00     0.372 C 
BRANCH   7   8
HETATM    8  N1  UNL     1      28.224   7.588  49.270  1.00  0.00     0.107 N 
HETATM    9  H1  UNL     1      29.156   7.422  49.700  1.00  0.00     0.316 HD
HETATM   10  H2  UNL     1      28.209   8.550  48.905  1.00  0.00     0.316 HD
ENDBRANCH   7   8
BRANCH   7  11
HETATM   11  N2  UNL     1      29.111   5.851  47.896  1.00  0.00    -0.261 NA
HETATM   12  C2  UNL     1      30.233   6.283  48.346  1.00  0.00     0.124 C 
BRANCH  12  13
HETATM   13  C3  UNL     1      31.454   5.566  47.999  1.00  0.00    -0.019 A 
HETATM   14  C4  UNL     1      32.699   6.029  48.353  1.00  0.00     0.014 A 
HETATM   15  C5  UNL     1      33.824   5.313  47.999  1.00  0.00     0.024 A 
HETATM   16  C6  UNL     1      33.770   4.130  47.294  1.00  0.00     0.034 A 
HETATM   17 CL1  UNL     1      35.169   3.189  46.825  1.00  0.00    -0.084 Cl
HETATM   18  C7  UNL     1      32.521   3.639  46.923  1.00  0.00     0.024 A 
HETATM   19  C8  UNL     1      31.424   4.380  47.293  1.00  0.00     0.014 A 
ENDBRANCH  12  13
ENDBRANCH   7  11
ENDBRANCH   1   7
BRANCH   5  20
HETATM   20  O1  UNL     1      23.276   5.570  49.589  1.00  0.00    -0.279 OA
BRANCH  20  21
HETATM   21  C14 UNL     1      22.959   6.053  50.898  1.00  0.00     0.418 C 
HETATM   22  F1  UNL     1      22.584   7.384  50.857  1.00  0.00    -0.169 F 
HETATM   23  F2  UNL     1      24.144   6.029  51.635  1.00  0.00    -0.169 F 
BRANCH  21  24
HETATM   24  C15 UNL     1      21.893   5.229  51.562  1.00  0.00     0.455 C 
HETATM   25  F3  UNL     1      22.299   4.965  52.871  1.00  0.00    -0.205 F 
HETATM   26  F4  UNL     1      21.726   4.052  50.852  1.00  0.00    -0.205 F 
ENDBRANCH  21  24
ENDBRANCH  20  21
ENDBRANCH   5  20
TORSDOF 7
ENDMDL
MODEL 8
REMARK VINA RESULT:      -7.1      4.420      7.099
REMARK  7 active torsions:
REMARK  status: ('A' for Active; 'I' for Inactive)
REMARK    1  A    between atoms: N1_1  and  C1_2 
REMARK    2  A    between atoms: C1_2  and  N2_3 
REMARK    3  A    between atoms: C1_2  and  C9_12 
REMARK    4  A    between atoms: C2_4  and  C3_5 
REMARK    5  A    between atoms: C13_16  and  O1_17 
REMARK    6  A    between atoms: O1_17  and  C14_18 
REMARK    7  A    between atoms: C14_18  and  C15_21 
ROOT
HETATM    1  C9  UNL     1      21.644   1.144  52.095  1.00  0.00    -0.002 A 
HETATM    2  C10 UNL     1      20.636   0.358  51.573  1.00  0.00     0.011 A 
HETATM    3  C11 UNL     1      20.039   0.729  50.369  1.00  0.00     0.003 A 
HETATM    4  C12 UNL     1      20.465   1.871  49.720  1.00  0.00     0.037 A 
HETATM    5  C13 UNL     1      21.470   2.659  50.233  1.00  0.00     0.076 A 
HETATM    6  C16 UNL     1      22.067   2.285  51.440  1.00  0.00     0.048 A 
ENDROOT
BRANCH   1   7
HETATM    7  C1  UNL     1      22.199   0.642  53.380  1.00  0.00     0.372 C 
BRANCH   7   8
HETATM    8  N1  UNL     1      21.681  -0.684  53.668  1.00  0.00     0.107 N 
HETATM    9  H1  UNL     1      22.385  -1.424  53.472  1.00  0.00     0.316 HD
HETATM   10  H2  UNL     1      21.367  -0.792  54.642  1.00  0.00     0.316 HD
ENDBRANCH   7   8
BRANCH   7  11
HETATM   11  N2  UNL     1      23.657   0.620  53.373  1.00  0.00    -0.261 NA
HETATM   12  C2  UNL     1      24.234  -0.501  53.610  1.00  0.00     0.124 C 
BRANCH  12  13
HETATM   13  C3  UNL     1      25.691  -0.558  53.610  1.00  0.00    -0.019 A 
HETATM   14  C4  UNL     1      26.392  -1.350  52.732  1.00  0.00     0.014 A 
HETATM   15  C5  UNL     1      27.771  -1.368  52.775  1.00  0.00     0.024 A 
HETATM   16  C6  UNL     1      28.505  -0.619  53.669  1.00  0.00     0.034 A 
HETATM   17 CL1  UNL     1      30.252  -0.610  53.759  1.00  0.00    -0.084 Cl
HETATM   18  C7  UNL     1      27.818   0.193  54.570  1.00  0.00     0.024 A 
HETATM   19  C8  UNL     1      26.446   0.183  54.497  1.00  0.00     0.014 A 
ENDBRANCH  12  13
ENDBRANCH   7  11
ENDBRANCH   1   7
BRANCH   5  20
HETATM   20  O1  UNL     1      21.938   3.818  49.623  1.00  0.00    -0.279 OA
BRANCH  20  21
HETATM   21  C14 UNL     1      23.042   3.647  48.730  1.00  0.00     0.418 C 
HETATM   22  F1  UNL     1      22.819   4.312  47.536  1.00  0.00    -0.169 F 
HETATM   23  F2  UNL     1      23.082   2.293  48.393  1.00  0.00    -0.169 F 
BRANCH  21  24
HETATM   24  C15 UNL     1      24.339   4.090  49.342  1.00  0.00     0.455 C 
HETATM   25  F3  UNL     1      25.006   2.960  49.817  1.00  0.00    -0.205 F 
HETATM   26  F4  UNL     1      24.072   4.975  50.373  1.00  0.00    -0.205 F 
ENDBRANCH  21  24
ENDBRANCH  20  21
ENDBRANCH   5  20
TORSDOF 7
ENDMDL
MODEL 9
REMARK VINA RESULT:      -7.1      1.951      2.882
REMARK  7 active torsions:
REMARK  status: ('A' for Active; 'I' for Inactive)
REMARK    1  A    between atoms: N1_1  and  C1_2 
REMARK    2  A    between atoms: C1_2  and  N2_3 
REMARK    3  A    between atoms: C1_2  and  C9_12 
REMARK    4  A    between atoms: C2_4  and  C3_5 
REMARK    5  A    between atoms: C13_16  and  O1_17 
REMARK    6  A    between atoms: O1_17  and  C14_18 
REMARK    7  A    between atoms: C14_18  and  C15_21 
ROOT
HETATM    1  C9  UNL     1      24.045   3.564  50.801  1.00  0.00    -0.002 A 
HETATM    2  C10 UNL     1      23.783   4.342  51.911  1.00  0.00     0.011 A 
HETATM    3  C11 UNL     1      23.914   3.782  53.181  1.00  0.00     0.003 A 
HETATM    4  C12 UNL     1      24.303   2.462  53.307  1.00  0.00     0.037 A 
HETATM    5  C13 UNL     1      24.566   1.680  52.205  1.00  0.00     0.076 A 
HETATM    6  C16 UNL     1      24.435   2.244  50.934  1.00  0.00     0.048 A 
ENDROOT
BRANCH   1   7
HETATM    7  C1  UNL     1      23.870   4.276  49.507  1.00  0.00     0.372 C 
BRANCH   7   8
HETATM    8  N1  UNL     1      23.078   5.479  49.699  1.00  0.00     0.107 N 
HETATM    9  H1  UNL     1      23.242   5.904  50.632  1.00  0.00     0.316 HD
HETATM   10  H2  UNL     1      23.258   6.197  48.984  1.00  0.00     0.316 HD
ENDBRANCH   7   8
BRANCH   7  11
HETATM   11  N2  UNL     1      25.149   4.611  48.893  1.00  0.00    -0.261 NA
HETATM   12  C2  UNL     1      25.628   5.780  49.119  1.00  0.00     0.124 C 
BRANCH  12  13
HETATM   13  C3  UNL     1      26.905   6.148  48.519  1.00  0.00    -0.019 A 
HETATM   14  C4  UNL     1      27.081   7.331  47.843  1.00  0.00     0.014 A 
HETATM   15  C5  UNL     1      28.311   7.631  47.293  1.00  0.00     0.024 A 
HETATM   16  C6  UNL     1      29.400   6.792  47.387  1.00  0.00     0.034 A 
HETATM   17 CL1  UNL     1      30.976   7.132  46.707  1.00  0.00    -0.084 Cl
HETATM   18  C7  UNL     1      29.248   5.587  48.068  1.00  0.00     0.024 A 
HETATM   19  C8  UNL     1      28.009   5.323  48.601  1.00  0.00     0.014 A 
ENDBRANCH  12  13
ENDBRANCH   7  11
ENDBRANCH   1   7
BRANCH   5  20
HETATM   20  O1  UNL     1      24.960   0.348  52.273  1.00  0.00    -0.279 OA
BRANCH  20  21
HETATM   21  C14 UNL     1      26.348   0.124  52.536  1.00  0.00     0.418 C 
HETATM   22  F1  UNL     1      27.103   1.231  52.189  1.00  0.00    -0.169 F 
HETATM   23  F2  UNL     1      26.765  -0.889  51.671  1.00  0.00    -0.169 F 
BRANCH  21  24
HETATM   24  C15 UNL     1      26.600  -0.252  53.968  1.00  0.00     0.455 C 
HETATM   25  F3  UNL     1      25.395  -0.687  54.522  1.00  0.00    -0.205 F 
HETATM   26  F4  UNL     1      27.083   0.854  54.646  1.00  0.00    -0.205 F 
ENDBRANCH  21  24
ENDBRANCH  20  21
ENDBRANCH   5  20
TORSDOF 7
ENDMDL
