MODEL 1
REMARK VINA RESULT:      -9.1      0.000      0.000
REMARK  8 active torsions:
REMARK  status: ('A' for Active; 'I' for Inactive)
REMARK    1  A    between atoms: O1_2  and  C2_3 
REMARK    2  A    between atoms: C7_9  and  C8_10 
REMARK    3  A    between atoms: C8_10  and  C10_13 
REMARK    4  A    between atoms: C11_14  and  C12_15 
REMARK    5  A    between atoms: C15_19  and  N3_20 
REMARK       I    between atoms: N3_20  and  C16_21 
REMARK    6  A    between atoms: C16_21  and  C17_23 
REMARK    7  A    between atoms: C18_24  and  C19_25 
REMARK    8  A    between atoms: C19_25  and  N4_27 
ROOT
HETATM    1  C8  UNL     1      22.188   0.520  52.157  1.00  0.00     0.149 C 
HETATM    2  C9  UNL     1      21.766   1.950  52.245  1.00  0.00     0.072 C 
HETATM    3  N2  UNL     1      21.415   3.068  52.317  1.00  0.00    -0.196 NA
ENDROOT
BRANCH   1   4
HETATM    4  C7  UNL     1      23.307   0.158  53.016  1.00  0.00    -0.023 A 
HETATM    5  C6  UNL     1      23.012  -0.781  54.037  1.00  0.00     0.029 A 
HETATM    6  C5  UNL     1      23.906  -1.222  55.010  1.00  0.00     0.118 A 
HETATM    7  N1  UNL     1      25.148  -0.760  55.027  1.00  0.00    -0.260 NA
HETATM    8  C4  UNL     1      25.533   0.131  54.104  1.00  0.00     0.070 A 
HETATM    9  C3  UNL     1      26.813   0.636  54.035  1.00  0.00     0.071 A 
HETATM   10  C13 UNL     1      24.617   0.532  53.169  1.00  0.00     0.003 A 
HETATM   11  C2  UNL     1      27.242   1.540  53.060  1.00  0.00     0.097 A 
HETATM   12  C15 UNL     1      26.283   1.932  52.112  1.00  0.00     0.069 A 
HETATM   13  C14 UNL     1      25.031   1.418  52.208  1.00  0.00     0.046 A 
BRANCH  11  14
HETATM   14  O1  UNL     1      28.547   2.017  53.038  1.00  0.00    -0.354 OA
HETATM   15  C1  UNL     1      29.397   1.702  54.133  1.00  0.00     0.210 C 
ENDBRANCH  11  14
BRANCH  12  16
HETATM   16  N3  UNL     1      26.755   2.840  51.153  1.00  0.00    -0.321 N 
HETATM   17  C16 UNL     1      26.139   3.426  50.043  1.00  0.00     0.245 C 
HETATM   18  O2  UNL     1      25.002   3.346  49.546  1.00  0.00    -0.268 OA
HETATM   19  H13 UNL     1      27.742   3.027  51.427  1.00  0.00     0.169 HD
BRANCH  17  20
HETATM   20  C17 UNL     1      26.980   4.333  49.278  1.00  0.00     0.072 C 
HETATM   21  C18 UNL     1      27.040   5.526  48.711  1.00  0.00     0.013 C 
BRANCH  21  22
HETATM   22  C19 UNL     1      27.738   6.579  47.938  1.00  0.00     0.242 C 
HETATM   23  C20 UNL     1      29.232   6.384  48.108  1.00  0.00     0.047 C 
BRANCH  22  24
HETATM   24  N4  UNL     1      27.301   7.863  48.423  1.00  0.00     0.100 N 
HETATM   25  C21 UNL     1      28.411   8.663  48.924  1.00  0.00     0.299 C 
HETATM   26  C22 UNL     1      27.944   9.511  50.092  1.00  0.00     0.198 C 
HETATM   27  O3  UNL     1      26.690  10.035  49.778  1.00  0.00    -0.388 OA
HETATM   28  C23 UNL     1      25.708   9.036  49.814  1.00  0.00     0.198 C 
HETATM   29  C24 UNL     1      26.343   7.679  49.504  1.00  0.00     0.299 C 
ENDBRANCH  22  24
ENDBRANCH  21  22
ENDBRANCH  17  20
ENDBRANCH  12  16
ENDBRANCH   1   4
BRANCH   1  30
HETATM   30  C10 UNL     1      20.962  -0.208  52.753  1.00  0.00    -0.005 C 
HETATM   31  C11 UNL     1      19.665  -0.145  52.499  1.00  0.00     0.002 C 
BRANCH  31  32
HETATM   32  C12 UNL     1      18.547  -0.901  53.139  1.00  0.00     0.249 C 
HETATM   33  F1  UNL     1      17.647  -1.287  52.179  1.00  0.00    -0.251 F 
ENDBRANCH  31  32
ENDBRANCH   1  30
TORSDOF 8
ENDMDL
MODEL 2
REMARK VINA RESULT:      -8.9      1.559      2.123
REMARK  8 active torsions:
REMARK  status: ('A' for Active; 'I' for Inactive)
REMARK    1  A    between atoms: O1_2  and  C2_3 
REMARK    2  A    between atoms: C7_9  and  C8_10 
REMARK    3  A    between atoms: C8_10  and  C10_13 
REMARK    4  A    between atoms: C11_14  and  C12_15 
REMARK    5  A    between atoms: C15_19  and  N3_20 
REMARK       I    between atoms: N3_20  and  C16_21 
REMARK    6  A    between atoms: C16_21  and  C17_23 
REMARK    7  A    between atoms: C18_24  and  C19_25 
REMARK    8  A    between atoms: C19_25  and  N4_27 
ROOT
HETATM    1  C8  UNL     1      21.528   1.428  51.453  1.00  0.00     0.149 C 
HETATM    2  C9  UNL     1      20.902   2.640  52.060  1.00  0.00     0.072 C 
HETATM    3  N2  UNL     1      20.391   3.584  52.535  1.00  0.00    -0.196 NA
ENDROOT
BRANCH   1   4
HETATM    4  C7  UNL     1      22.641   0.870  52.209  1.00  0.00    -0.023 A 
HETATM    5  C6  UNL     1      22.314  -0.212  53.064  1.00  0.00     0.029 A 
HETATM    6  C5  UNL     1      23.200  -0.856  53.925  1.00  0.00     0.118 A 
HETATM    7  N1  UNL     1      24.465  -0.466  53.987  1.00  0.00    -0.260 NA
HETATM    8  C4  UNL     1      24.881   0.547  53.217  1.00  0.00     0.070 A 
HETATM    9  C3  UNL     1      26.185   0.992  53.200  1.00  0.00     0.071 A 
HETATM   10  C13 UNL     1      23.972   1.147  52.388  1.00  0.00     0.003 A 
HETATM   11  C2  UNL     1      26.645   2.025  52.379  1.00  0.00     0.097 A 
HETATM   12  C15 UNL     1      25.692   2.620  51.537  1.00  0.00     0.069 A 
HETATM   13  C14 UNL     1      24.416   2.161  51.578  1.00  0.00     0.046 A 
BRANCH  11  14
HETATM   14  O1  UNL     1      27.973   2.433  52.404  1.00  0.00    -0.354 OA
HETATM   15  C1  UNL     1      28.676   2.366  53.638  1.00  0.00     0.210 C 
ENDBRANCH  11  14
BRANCH  12  16
HETATM   16  N3  UNL     1      26.195   3.652  50.732  1.00  0.00    -0.321 N 
HETATM   17  C16 UNL     1      25.651   4.328  49.635  1.00  0.00     0.245 C 
HETATM   18  O2  UNL     1      24.571   4.248  49.023  1.00  0.00    -0.268 OA
HETATM   19  H13 UNL     1      27.139   3.855  51.120  1.00  0.00     0.169 HD
BRANCH  17  20
HETATM   20  C17 UNL     1      26.502   5.355  49.059  1.00  0.00     0.072 C 
HETATM   21  C18 UNL     1      26.668   6.659  48.910  1.00  0.00     0.013 C 
BRANCH  21  22
HETATM   22  C19 UNL     1      27.404   7.840  48.401  1.00  0.00     0.242 C 
HETATM   23  C20 UNL     1      26.989   8.077  46.962  1.00  0.00     0.047 C 
BRANCH  22  24
HETATM   24  N4  UNL     1      28.815   7.582  48.523  1.00  0.00     0.100 N 
HETATM   25  C21 UNL     1      29.549   8.761  48.964  1.00  0.00     0.299 C 
HETATM   26  C22 UNL     1      30.923   8.778  48.324  1.00  0.00     0.198 C 
HETATM   27  O3  UNL     1      31.441   7.482  48.366  1.00  0.00    -0.388 OA
HETATM   28  C23 UNL     1      30.775   6.650  47.456  1.00  0.00     0.198 C 
HETATM   29  C24 UNL     1      29.351   7.163  47.236  1.00  0.00     0.299 C 
ENDBRANCH  22  24
ENDBRANCH  21  22
ENDBRANCH  17  20
ENDBRANCH  12  16
ENDBRANCH   1   4
BRANCH   1  30
HETATM   30  C10 UNL     1      20.389   0.390  51.574  1.00  0.00    -0.005 C 
HETATM   31  C11 UNL     1      19.072   0.487  51.514  1.00  0.00     0.002 C 
BRANCH  31  32
HETATM   32  C12 UNL     1      18.045  -0.591  51.645  1.00  0.00     0.249 C 
HETATM   33  F1  UNL     1      18.345  -1.378  52.728  1.00  0.00    -0.251 F 
ENDBRANCH  31  32
ENDBRANCH   1  30
TORSDOF 8
ENDMDL
MODEL 3
REMARK VINA RESULT:      -8.9      3.276      5.360
REMARK  8 active torsions:
REMARK  status: ('A' for Active; 'I' for Inactive)
REMARK    1  A    between atoms: O1_2  and  C2_3 
REMARK    2  A    between atoms: C7_9  and  C8_10 
REMARK    3  A    between atoms: C8_10  and  C10_13 
REMARK    4  A    between atoms: C11_14  and  C12_15 
REMARK    5  A    between atoms: C15_19  and  N3_20 
REMARK       I    between atoms: N3_20  and  C16_21 
REMARK    6  A    between atoms: C16_21  and  C17_23 
REMARK    7  A    between atoms: C18_24  and  C19_25 
REMARK    8  A    between atoms: C19_25  and  N4_27 
ROOT
HETATM    1  C8  UNL     1      26.674  -0.108  51.979  1.00  0.00     0.149 C 
HETATM    2  C9  UNL     1      27.001  -1.450  52.546  1.00  0.00     0.072 C 
HETATM    3  N2  UNL     1      27.276  -2.498  52.998  1.00  0.00    -0.196 NA
ENDROOT
BRANCH   1   4
HETATM    4  C7  UNL     1      25.380   0.428  52.381  1.00  0.00    -0.023 A 
HETATM    5  C6  UNL     1      24.580  -0.439  53.166  1.00  0.00     0.029 A 
HETATM    6  C5  UNL     1      23.287  -0.165  53.608  1.00  0.00     0.118 A 
HETATM    7  N1  UNL     1      22.712   0.988  53.298  1.00  0.00    -0.260 NA
HETATM    8  C4  UNL     1      23.383   1.883  52.561  1.00  0.00     0.070 A 
HETATM    9  C3  UNL     1      22.868   3.115  52.223  1.00  0.00     0.071 A 
HETATM   10  C13 UNL     1      24.650   1.566  52.152  1.00  0.00     0.003 A 
HETATM   11  C2  UNL     1      23.565   4.075  51.483  1.00  0.00     0.097 A 
HETATM   12  C15 UNL     1      24.863   3.724  51.080  1.00  0.00     0.069 A 
HETATM   13  C14 UNL     1      25.341   2.503  51.427  1.00  0.00     0.046 A 
BRANCH  11  14
HETATM   14  O1  UNL     1      22.996   5.303  51.170  1.00  0.00    -0.354 OA
HETATM   15  C1  UNL     1      21.607   5.483  51.416  1.00  0.00     0.210 C 
ENDBRANCH  11  14
BRANCH  12  16
HETATM   16  N3  UNL     1      25.527   4.714  50.340  1.00  0.00    -0.321 N 
HETATM   17  C16 UNL     1      26.588   4.644  49.432  1.00  0.00     0.245 C 
HETATM   18  O2  UNL     1      27.280   3.712  48.986  1.00  0.00    -0.268 OA
HETATM   19  H13 UNL     1      25.055   5.603  50.604  1.00  0.00     0.169 HD
BRANCH  17  20
HETATM   20  C17 UNL     1      27.000   5.918  48.866  1.00  0.00     0.072 C 
HETATM   21  C18 UNL     1      28.037   6.627  48.450  1.00  0.00     0.013 C 
BRANCH  21  22
HETATM   22  C19 UNL     1      28.647   7.850  47.880  1.00  0.00     0.242 C 
HETATM   23  C20 UNL     1      28.612   7.742  46.368  1.00  0.00     0.047 C 
BRANCH  22  24
HETATM   24  N4  UNL     1      29.991   7.963  48.384  1.00  0.00     0.100 N 
HETATM   25  C21 UNL     1      30.893   8.553  47.403  1.00  0.00     0.299 C 
HETATM   26  C22 UNL     1      32.274   7.942  47.543  1.00  0.00     0.198 C 
HETATM   27  O3  UNL     1      32.569   7.837  48.904  1.00  0.00    -0.388 OA
HETATM   28  C23 UNL     1      31.808   6.824  49.503  1.00  0.00     0.198 C 
HETATM   29  C24 UNL     1      30.497   6.644  48.736  1.00  0.00     0.299 C 
ENDBRANCH  22  24
ENDBRANCH  21  22
ENDBRANCH  17  20
ENDBRANCH  12  16
ENDBRANCH   1   4
BRANCH   1  30
HETATM   30  C10 UNL     1      27.723   0.791  52.672  1.00  0.00    -0.005 C 
HETATM   31  C11 UNL     1      28.379   0.693  53.816  1.00  0.00     0.002 C 
BRANCH  31  32
HETATM   32  C12 UNL     1      29.386   1.628  54.402  1.00  0.00     0.249 C 
HETATM   33  F1  UNL     1      29.205   2.883  53.877  1.00  0.00    -0.251 F 
ENDBRANCH  31  32
ENDBRANCH   1  30
TORSDOF 8
ENDMDL
MODEL 4
REMARK VINA RESULT:      -8.6      1.984      2.506
REMARK  8 active torsions:
REMARK  status: ('A' for Active; 'I' for Inactive)
REMARK    1  A    between atoms: O1_2  and  C2_3 
REMARK    2  A    between atoms: C7_9  and  C8_10 
REMARK    3  A    between atoms: C8_10  and  C10_13 
REMARK    4  A    between atoms: C11_14  and  C12_15 
REMARK    5  A    between atoms: C15_19  and  N3_20 
REMARK       I    between atoms: N3_20  and  C16_21 
REMARK    6  A    between atoms: C16_21  and  C17_23 
REMARK    7  A    between atoms: C18_24  and  C19_25 
REMARK    8  A    between atoms: C19_25  and  N4_27 
ROOT
HETATM    1  C8  UNL     1      21.508   0.980  52.672  1.00  0.00     0.149 C 
HETATM    2  C9  UNL     1      20.299   0.230  53.129  1.00  0.00     0.072 C 
HETATM    3  N2  UNL     1      19.344  -0.360  53.469  1.00  0.00    -0.196 NA
ENDROOT
BRANCH   1   4
HETATM    4  C7  UNL     1      22.771   0.487  53.204  1.00  0.00    -0.023 A 
HETATM    5  C6  UNL     1      22.672  -0.632  54.069  1.00  0.00     0.029 A 
HETATM    6  C5  UNL     1      23.737  -1.229  54.741  1.00  0.00     0.118 A 
HETATM    7  N1  UNL     1      24.964  -0.752  54.593  1.00  0.00    -0.260 NA
HETATM    8  C4  UNL     1      25.170   0.303  53.795  1.00  0.00     0.070 A 
HETATM    9  C3  UNL     1      26.418   0.839  53.564  1.00  0.00     0.071 A 
HETATM   10  C13 UNL     1      24.092   0.854  53.157  1.00  0.00     0.003 A 
HETATM   11  C2  UNL     1      26.657   1.919  52.710  1.00  0.00     0.097 A 
HETATM   12  C15 UNL     1      25.534   2.461  52.066  1.00  0.00     0.069 A 
HETATM   13  C14 UNL     1      24.318   1.912  52.315  1.00  0.00     0.046 A 
BRANCH  11  14
HETATM   14  O1  UNL     1      27.939   2.419  52.515  1.00  0.00    -0.354 OA
HETATM   15  C1  UNL     1      28.830   2.439  53.622  1.00  0.00     0.210 C 
ENDBRANCH  11  14
BRANCH  12  16
HETATM   16  N3  UNL     1      25.818   3.542  51.219  1.00  0.00    -0.321 N 
HETATM   17  C16 UNL     1      25.451   3.810  49.896  1.00  0.00     0.245 C 
HETATM   18  O2  UNL     1      24.771   3.203  49.051  1.00  0.00    -0.268 OA
HETATM   19  H13 UNL     1      26.408   4.180  51.791  1.00  0.00     0.169 HD
BRANCH  17  20
HETATM   20  C17 UNL     1      25.957   5.062  49.358  1.00  0.00     0.072 C 
HETATM   21  C18 UNL     1      25.881   6.380  49.443  1.00  0.00     0.013 C 
BRANCH  21  22
HETATM   22  C19 UNL     1      26.272   7.747  49.027  1.00  0.00     0.242 C 
HETATM   23  C20 UNL     1      25.923   7.919  47.562  1.00  0.00     0.047 C 
BRANCH  22  24
HETATM   24  N4  UNL     1      27.682   7.910  49.272  1.00  0.00     0.100 N 
HETATM   25  C21 UNL     1      28.007   9.264  49.702  1.00  0.00     0.299 C 
HETATM   26  C22 UNL     1      29.372   9.656  49.169  1.00  0.00     0.198 C 
HETATM   27  O3  UNL     1      30.231   8.566  49.322  1.00  0.00    -0.388 OA
HETATM   28  C23 UNL     1      29.913   7.549  48.412  1.00  0.00     0.198 C 
HETATM   29  C24 UNL     1      28.427   7.624  48.055  1.00  0.00     0.299 C 
ENDBRANCH  22  24
ENDBRANCH  21  22
ENDBRANCH  17  20
ENDBRANCH  12  16
ENDBRANCH   1   4
BRANCH   1  30
HETATM   30  C10 UNL     1      21.538   0.641  51.165  1.00  0.00    -0.005 C 
HETATM   31  C11 UNL     1      21.505   1.387  50.073  1.00  0.00     0.002 C 
BRANCH  31  32
HETATM   32  C12 UNL     1      21.539   0.957  48.643  1.00  0.00     0.249 C 
HETATM   33  F1  UNL     1      22.407   1.758  47.945  1.00  0.00    -0.251 F 
ENDBRANCH  31  32
ENDBRANCH   1  30
TORSDOF 8
ENDMDL
MODEL 5
REMARK VINA RESULT:      -8.5      4.684     10.233
REMARK  8 active torsions:
REMARK  status: ('A' for Active; 'I' for Inactive)
REMARK    1  A    between atoms: O1_2  and  C2_3 
REMARK    2  A    between atoms: C7_9  and  C8_10 
REMARK    3  A    between atoms: C8_10  and  C10_13 
REMARK    4  A    between atoms: C11_14  and  C12_15 
REMARK    5  A    between atoms: C15_19  and  N3_20 
REMARK       I    between atoms: N3_20  and  C16_21 
REMARK    6  A    between atoms: C16_21  and  C17_23 
REMARK    7  A    between atoms: C18_24  and  C19_25 
REMARK    8  A    between atoms: C19_25  and  N4_27 
ROOT
HETATM    1  C8  UNL     1      26.138  -0.598  53.062  1.00  0.00     0.149 C 
HETATM    2  C9  UNL     1      25.959  -0.579  54.545  1.00  0.00     0.072 C 
HETATM    3  N2  UNL     1      25.837  -0.569  55.712  1.00  0.00    -0.196 NA
ENDROOT
BRANCH   1   4
HETATM    4  C7  UNL     1      25.608   0.567  52.366  1.00  0.00    -0.023 A 
HETATM    5  C6  UNL     1      26.579   1.446  51.825  1.00  0.00     0.029 A 
HETATM    6  C5  UNL     1      26.306   2.650  51.178  1.00  0.00     0.118 A 
HETATM    7  N1  UNL     1      25.052   3.051  51.027  1.00  0.00    -0.260 NA
HETATM    8  C4  UNL     1      24.055   2.292  51.500  1.00  0.00     0.070 A 
HETATM    9  C3  UNL     1      22.726   2.623  51.357  1.00  0.00     0.071 A 
HETATM   10  C13 UNL     1      24.376   1.118  52.128  1.00  0.00     0.003 A 
HETATM   11  C2  UNL     1      21.671   1.828  51.814  1.00  0.00     0.097 A 
HETATM   12  C15 UNL     1      22.029   0.629  52.451  1.00  0.00     0.069 A 
HETATM   13  C14 UNL     1      23.347   0.332  52.578  1.00  0.00     0.046 A 
BRANCH  11  14
HETATM   14  O1  UNL     1      20.347   2.212  51.642  1.00  0.00    -0.354 OA
HETATM   15  C1  UNL     1      20.027   3.593  51.746  1.00  0.00     0.210 C 
ENDBRANCH  11  14
BRANCH  12  16
HETATM   16  N3  UNL     1      20.941  -0.138  52.895  1.00  0.00    -0.321 N 
HETATM   17  C16 UNL     1      20.799  -1.017  53.973  1.00  0.00     0.245 C 
HETATM   18  O2  UNL     1      21.563  -1.404  54.875  1.00  0.00    -0.268 OA
HETATM   19  H13 UNL     1      20.176   0.073  52.221  1.00  0.00     0.169 HD
BRANCH  17  20
HETATM   20  C17 UNL     1      19.488  -1.632  54.098  1.00  0.00     0.072 C 
HETATM   21  C18 UNL     1      18.357  -1.895  53.466  1.00  0.00     0.013 C 
BRANCH  21  22
HETATM   22  C19 UNL     1      16.991  -2.465  53.401  1.00  0.00     0.242 C 
HETATM   23  C20 UNL     1      17.107  -3.971  53.272  1.00  0.00     0.047 C 
BRANCH  22  24
HETATM   24  N4  UNL     1      16.308  -1.876  52.278  1.00  0.00     0.100 N 
HETATM   25  C21 UNL     1      15.882  -0.510  52.554  1.00  0.00     0.299 C 
HETATM   26  C22 UNL     1      14.572  -0.228  51.844  1.00  0.00     0.198 C 
HETATM   27  O3  UNL     1      14.644  -0.773  50.561  1.00  0.00    -0.388 OA
HETATM   28  C23 UNL     1      14.583  -2.173  50.610  1.00  0.00     0.198 C 
HETATM   29  C24 UNL     1      15.130  -2.666  51.950  1.00  0.00     0.299 C 
ENDBRANCH  22  24
ENDBRANCH  21  22
ENDBRANCH  17  20
ENDBRANCH  12  16
ENDBRANCH   1   4
BRANCH   1  30
HETATM   30  C10 UNL     1      27.674  -0.491  52.929  1.00  0.00    -0.005 C 
HETATM   31  C11 UNL     1      28.659  -0.521  53.811  1.00  0.00     0.002 C 
BRANCH  31  32
HETATM   32  C12 UNL     1      30.131  -0.408  53.577  1.00  0.00     0.249 C 
HETATM   33  F1  UNL     1      30.760  -1.520  54.075  1.00  0.00    -0.251 F 
ENDBRANCH  31  32
ENDBRANCH   1  30
TORSDOF 8
ENDMDL
MODEL 6
REMARK VINA RESULT:      -8.3      3.733      9.915
REMARK  8 active torsions:
REMARK  status: ('A' for Active; 'I' for Inactive)
REMARK    1  A    between atoms: O1_2  and  C2_3 
REMARK    2  A    between atoms: C7_9  and  C8_10 
REMARK    3  A    between atoms: C8_10  and  C10_13 
REMARK    4  A    between atoms: C11_14  and  C12_15 
REMARK    5  A    between atoms: C15_19  and  N3_20 
REMARK       I    between atoms: N3_20  and  C16_21 
REMARK    6  A    between atoms: C16_21  and  C17_23 
REMARK    7  A    between atoms: C18_24  and  C19_25 
REMARK    8  A    between atoms: C19_25  and  N4_27 
ROOT
HETATM    1  C8  UNL     1      30.017   5.852  48.766  1.00  0.00     0.149 C 
HETATM    2  C9  UNL     1      31.137   6.776  49.117  1.00  0.00     0.072 C 
HETATM    3  N2  UNL     1      32.029   7.490  49.383  1.00  0.00    -0.196 NA
ENDROOT
BRANCH   1   4
HETATM    4  C7  UNL     1      28.828   6.504  48.235  1.00  0.00    -0.023 A 
HETATM    5  C6  UNL     1      29.066   7.671  47.465  1.00  0.00     0.029 A 
HETATM    6  C5  UNL     1      28.082   8.490  46.916  1.00  0.00     0.118 A 
HETATM    7  N1  UNL     1      26.802   8.199  47.096  1.00  0.00    -0.260 NA
HETATM    8  C4  UNL     1      26.465   7.115  47.807  1.00  0.00     0.070 A 
HETATM    9  C3  UNL     1      25.160   6.727  48.013  1.00  0.00     0.071 A 
HETATM   10  C13 UNL     1      27.469   6.343  48.326  1.00  0.00     0.003 A 
HETATM   11  C2  UNL     1      24.790   5.582  48.724  1.00  0.00     0.097 A 
HETATM   12  C15 UNL     1      25.839   4.807  49.242  1.00  0.00     0.069 A 
HETATM   13  C14 UNL     1      27.115   5.216  49.023  1.00  0.00     0.046 A 
BRANCH  11  14
HETATM   14  O1  UNL     1      23.455   5.239  48.902  1.00  0.00    -0.354 OA
HETATM   15  C1  UNL     1      22.719   4.790  47.772  1.00  0.00     0.210 C 
ENDBRANCH  11  14
BRANCH  12  16
HETATM   16  N3  UNL     1      25.425   3.669  49.948  1.00  0.00    -0.321 N 
HETATM   17  C16 UNL     1      24.733   3.521  51.154  1.00  0.00     0.245 C 
HETATM   18  O2  UNL     1      24.264   4.322  51.982  1.00  0.00    -0.268 OA
HETATM   19  H13 UNL     1      25.750   2.866  49.371  1.00  0.00     0.169 HD
BRANCH  17  20
HETATM   20  C17 UNL     1      24.490   2.147  51.562  1.00  0.00     0.072 C 
HETATM   21  C18 UNL     1      24.925   1.157  52.323  1.00  0.00     0.013 C 
BRANCH  21  22
HETATM   22  C19 UNL     1      24.843  -0.223  52.856  1.00  0.00     0.242 C 
HETATM   23  C20 UNL     1      23.677  -0.293  53.823  1.00  0.00     0.047 C 
BRANCH  22  24
HETATM   24  N4  UNL     1      26.095  -0.537  53.494  1.00  0.00     0.100 N 
HETATM   25  C21 UNL     1      26.349   0.318  54.647  1.00  0.00     0.299 C 
HETATM   26  C22 UNL     1      27.837   0.584  54.769  1.00  0.00     0.198 C 
HETATM   27  O3  UNL     1      28.516  -0.611  54.526  1.00  0.00    -0.388 OA
HETATM   28  C23 UNL     1      28.455  -0.952  53.167  1.00  0.00     0.198 C 
HETATM   29  C24 UNL     1      27.186  -0.365  52.547  1.00  0.00     0.299 C 
ENDBRANCH  22  24
ENDBRANCH  21  22
ENDBRANCH  17  20
ENDBRANCH  12  16
ENDBRANCH   1   4
BRANCH   1  30
HETATM   30  C10 UNL     1      30.617   5.066  47.578  1.00  0.00    -0.005 C 
HETATM   31  C11 UNL     1      31.829   4.598  47.328  1.00  0.00     0.002 C 
BRANCH  31  32
HETATM   32  C12 UNL     1      32.313   3.841  46.133  1.00  0.00     0.249 C 
HETATM   33  F1  UNL     1      31.734   2.598  46.114  1.00  0.00    -0.251 F 
ENDBRANCH  31  32
ENDBRANCH   1  30
TORSDOF 8
ENDMDL
MODEL 7
REMARK VINA RESULT:      -8.3      3.254      5.222
REMARK  8 active torsions:
REMARK  status: ('A' for Active; 'I' for Inactive)
REMARK    1  A    between atoms: O1_2  and  C2_3 
REMARK    2  A    between atoms: C7_9  and  C8_10 
REMARK    3  A    between atoms: C8_10  and  C10_13 
REMARK    4  A    between atoms: C11_14  and  C12_15 
REMARK    5  A    between atoms: C15_19  and  N3_20 
REMARK       I    between atoms: N3_20  and  C16_21 
REMARK    6  A    between atoms: C16_21  and  C17_23 
REMARK    7  A    between atoms: C18_24  and  C19_25 
REMARK    8  A    between atoms: C19_25  and  N4_27 
ROOT
HETATM    1  C8  UNL     1      26.415  -0.039  52.145  1.00  0.00     0.149 C 
HETATM    2  C9  UNL     1      26.857  -1.407  52.548  1.00  0.00     0.072 C 
HETATM    3  N2  UNL     1      27.221  -2.475  52.872  1.00  0.00    -0.196 NA
ENDROOT
BRANCH   1   4
HETATM    4  C7  UNL     1      25.070   0.322  52.575  1.00  0.00    -0.023 A 
HETATM    5  C6  UNL     1      24.423  -0.626  53.406  1.00  0.00     0.029 A 
HETATM    6  C5  UNL     1      23.117  -0.523  53.882  1.00  0.00     0.118 A 
HETATM    7  N1  UNL     1      22.376   0.528  53.562  1.00  0.00    -0.260 NA
HETATM    8  C4  UNL     1      22.893   1.486  52.782  1.00  0.00     0.070 A 
HETATM    9  C3  UNL     1      22.200   2.623  52.429  1.00  0.00     0.071 A 
HETATM   10  C13 UNL     1      24.181   1.339  52.341  1.00  0.00     0.003 A 
HETATM   11  C2  UNL     1      22.734   3.649  51.644  1.00  0.00     0.097 A 
HETATM   12  C15 UNL     1      24.057   3.473  51.208  1.00  0.00     0.069 A 
HETATM   13  C14 UNL     1      24.712   2.341  51.571  1.00  0.00     0.046 A 
BRANCH  11  14
HETATM   14  O1  UNL     1      21.988   4.775  51.319  1.00  0.00    -0.354 OA
HETATM   15  C1  UNL     1      20.700   4.588  50.748  1.00  0.00     0.210 C 
ENDBRANCH  11  14
BRANCH  12  16
HETATM   16  N3  UNL     1      24.553   4.524  50.423  1.00  0.00    -0.321 N 
HETATM   17  C16 UNL     1      24.238   4.948  49.128  1.00  0.00     0.245 C 
HETATM   18  O2  UNL     1      23.438   4.552  48.262  1.00  0.00    -0.268 OA
HETATM   19  H13 UNL     1      25.269   4.986  51.020  1.00  0.00     0.169 HD
BRANCH  17  20
HETATM   20  C17 UNL     1      24.990   6.099  48.657  1.00  0.00     0.072 C 
HETATM   21  C18 UNL     1      25.430   7.304  48.980  1.00  0.00     0.013 C 
BRANCH  21  22
HETATM   22  C19 UNL     1      26.158   8.560  48.683  1.00  0.00     0.242 C 
HETATM   23  C20 UNL     1      25.964   8.887  47.215  1.00  0.00     0.047 C 
BRANCH  22  24
HETATM   24  N4  UNL     1      27.545   8.370  49.017  1.00  0.00     0.100 N 
HETATM   25  C21 UNL     1      28.121   9.552  49.647  1.00  0.00     0.299 C 
HETATM   26  C22 UNL     1      29.576   9.690  49.242  1.00  0.00     0.198 C 
HETATM   27  O3  UNL     1      30.164   8.425  49.285  1.00  0.00    -0.388 OA
HETATM   28  C23 UNL     1      29.707   7.627  48.227  1.00  0.00     0.198 C 
HETATM   29  C24 UNL     1      28.306   8.078  47.811  1.00  0.00     0.299 C 
ENDBRANCH  22  24
ENDBRANCH  21  22
ENDBRANCH  17  20
ENDBRANCH  12  16
ENDBRANCH   1   4
BRANCH   1  30
HETATM   30  C10 UNL     1      27.364   0.856  52.975  1.00  0.00    -0.005 C 
HETATM   31  C11 UNL     1      28.545   0.645  53.530  1.00  0.00     0.002 C 
BRANCH  31  32
HETATM   32  C12 UNL     1      29.391   1.588  54.322  1.00  0.00     0.249 C 
HETATM   33  F1  UNL     1      29.196   2.868  53.868  1.00  0.00    -0.251 F 
ENDBRANCH  31  32
ENDBRANCH   1  30
TORSDOF 8
ENDMDL
MODEL 8
REMARK VINA RESULT:      -8.2      4.476      9.809
REMARK  8 active torsions:
REMARK  status: ('A' for Active; 'I' for Inactive)
REMARK    1  A    between atoms: O1_2  and  C2_3 
REMARK    2  A    between atoms: C7_9  and  C8_10 
REMARK    3  A    between atoms: C8_10  and  C10_13 
REMARK    4  A    between atoms: C11_14  and  C12_15 
REMARK    5  A    between atoms: C15_19  and  N3_20 
REMARK       I    between atoms: N3_20  and  C16_21 
REMARK    6  A    between atoms: C16_21  and  C17_23 
REMARK    7  A    between atoms: C18_24  and  C19_25 
REMARK    8  A    between atoms: C19_25  and  N4_27 
ROOT
HETATM    1  C8  UNL     1      25.904  -0.559  52.747  1.00  0.00     0.149 C 
HETATM    2  C9  UNL     1      25.325  -0.738  54.112  1.00  0.00     0.072 C 
HETATM    3  N2  UNL     1      24.888  -0.885  55.191  1.00  0.00    -0.196 NA
ENDROOT
BRANCH   1   4
HETATM    4  C7  UNL     1      25.603   0.720  52.118  1.00  0.00    -0.023 A 
HETATM    5  C6  UNL     1      26.729   1.518  51.793  1.00  0.00     0.029 A 
HETATM    6  C5  UNL     1      26.679   2.799  51.247  1.00  0.00     0.118 A 
HETATM    7  N1  UNL     1      25.508   3.364  50.988  1.00  0.00    -0.260 NA
HETATM    8  C4  UNL     1      24.379   2.694  51.254  1.00  0.00     0.070 A 
HETATM    9  C3  UNL     1      23.126   3.197  50.986  1.00  0.00     0.071 A 
HETATM   10  C13 UNL     1      24.482   1.438  51.790  1.00  0.00     0.003 A 
HETATM   11  C2  UNL     1      21.938   2.500  51.227  1.00  0.00     0.097 A 
HETATM   12  C15 UNL     1      22.073   1.214  51.773  1.00  0.00     0.069 A 
HETATM   13  C14 UNL     1      23.322   0.747  52.027  1.00  0.00     0.046 A 
BRANCH  11  14
HETATM   14  O1  UNL     1      20.699   3.058  50.937  1.00  0.00    -0.354 OA
HETATM   15  C1  UNL     1      20.586   4.475  50.921  1.00  0.00     0.210 C 
ENDBRANCH  11  14
BRANCH  12  16
HETATM   16  N3  UNL     1      20.858   0.551  51.999  1.00  0.00    -0.321 N 
HETATM   17  C16 UNL     1      20.317  -0.037  53.147  1.00  0.00     0.245 C 
HETATM   18  O2  UNL     1      20.715  -0.166  54.318  1.00  0.00    -0.268 OA
HETATM   19  H13 UNL     1      20.373   0.566  51.078  1.00  0.00     0.169 HD
BRANCH  17  20
HETATM   20  C17 UNL     1      19.006  -0.640  52.971  1.00  0.00     0.072 C 
HETATM   21  C18 UNL     1      17.770  -0.426  52.551  1.00  0.00     0.013 C 
BRANCH  21  22
HETATM   22  C19 UNL     1      16.376  -0.859  52.297  1.00  0.00     0.242 C 
HETATM   23  C20 UNL     1      16.196  -1.038  50.803  1.00  0.00     0.047 C 
BRANCH  22  24
HETATM   24  N4  UNL     1      15.487   0.139  52.834  1.00  0.00     0.100 N 
HETATM   25  C21 UNL     1      14.117  -0.349  52.933  1.00  0.00     0.299 C 
HETATM   26  C22 UNL     1      13.149   0.790  52.675  1.00  0.00     0.198 C 
HETATM   27  O3  UNL     1      13.619   1.922  53.342  1.00  0.00    -0.388 OA
HETATM   28  C23 UNL     1      14.755   2.440  52.705  1.00  0.00     0.198 C 
HETATM   29  C24 UNL     1      15.494   1.315  51.978  1.00  0.00     0.299 C 
ENDBRANCH  22  24
ENDBRANCH  21  22
ENDBRANCH  17  20
ENDBRANCH  12  16
ENDBRANCH   1   4
BRANCH   1  30
HETATM   30  C10 UNL     1      27.419  -0.520  53.050  1.00  0.00    -0.005 C 
HETATM   31  C11 UNL     1      28.343  -1.461  53.148  1.00  0.00     0.002 C 
BRANCH  31  32
HETATM   32  C12 UNL     1      29.800  -1.317  53.449  1.00  0.00     0.249 C 
HETATM   33  F1  UNL     1      30.192  -0.025  53.204  1.00  0.00    -0.251 F 
ENDBRANCH  31  32
ENDBRANCH   1  30
TORSDOF 8
ENDMDL
MODEL 9
REMARK VINA RESULT:      -8.0      1.931      2.818
REMARK  8 active torsions:
REMARK  status: ('A' for Active; 'I' for Inactive)
REMARK    1  A    between atoms: O1_2  and  C2_3 
REMARK    2  A    between atoms: C7_9  and  C8_10 
REMARK    3  A    between atoms: C8_10  and  C10_13 
REMARK    4  A    between atoms: C11_14  and  C12_15 
REMARK    5  A    between atoms: C15_19  and  N3_20 
REMARK       I    between atoms: N3_20  and  C16_21 
REMARK    6  A    between atoms: C16_21  and  C17_23 
REMARK    7  A    between atoms: C18_24  and  C19_25 
REMARK    8  A    between atoms: C19_25  and  N4_27 
ROOT
HETATM    1  C8  UNL     1      19.174   1.046  51.150  1.00  0.00     0.149 C 
HETATM    2  C9  UNL     1      18.694   2.391  51.589  1.00  0.00     0.072 C 
HETATM    3  N2  UNL     1      18.298   3.441  51.930  1.00  0.00    -0.196 NA
ENDROOT
BRANCH   1   4
HETATM    4  C7  UNL     1      20.170   0.437  52.022  1.00  0.00    -0.023 A 
HETATM    5  C6  UNL     1      19.673  -0.536  52.926  1.00  0.00     0.029 A 
HETATM    6  C5  UNL     1      20.428  -1.198  53.892  1.00  0.00     0.118 A 
HETATM    7  N1  UNL     1      21.720  -0.936  54.018  1.00  0.00    -0.260 NA
HETATM    8  C4  UNL     1      22.292  -0.034  53.211  1.00  0.00     0.070 A 
HETATM    9  C3  UNL     1      23.635   0.272  53.257  1.00  0.00     0.071 A 
HETATM   10  C13 UNL     1      21.508   0.590  52.278  1.00  0.00     0.003 A 
HETATM   11  C2  UNL     1      24.255   1.186  52.401  1.00  0.00     0.097 A 
HETATM   12  C15 UNL     1      23.429   1.808  51.452  1.00  0.00     0.069 A 
HETATM   13  C14 UNL     1      22.110   1.487  51.433  1.00  0.00     0.046 A 
BRANCH  11  14
HETATM   14  O1  UNL     1      25.615   1.457  52.493  1.00  0.00    -0.354 OA
HETATM   15  C1  UNL     1      26.370   0.781  53.490  1.00  0.00     0.210 C 
ENDBRANCH  11  14
BRANCH  12  16
HETATM   16  N3  UNL     1      24.091   2.718  50.615  1.00  0.00    -0.321 N 
HETATM   17  C16 UNL     1      23.756   4.008  50.192  1.00  0.00     0.245 C 
HETATM   18  O2  UNL     1      22.791   4.762  50.407  1.00  0.00    -0.268 OA
HETATM   19  H13 UNL     1      24.962   2.228  50.328  1.00  0.00     0.169 HD
BRANCH  17  20
HETATM   20  C17 UNL     1      24.722   4.636  49.305  1.00  0.00     0.072 C 
HETATM   21  C18 UNL     1      25.837   5.345  49.257  1.00  0.00     0.013 C 
BRANCH  21  22
HETATM   22  C19 UNL     1      26.918   6.044  48.524  1.00  0.00     0.242 C 
HETATM   23  C20 UNL     1      28.134   5.138  48.487  1.00  0.00     0.047 C 
BRANCH  22  24
HETATM   24  N4  UNL     1      27.190   7.288  49.196  1.00  0.00     0.100 N 
HETATM   25  C21 UNL     1      26.073   7.713  50.029  1.00  0.00     0.299 C 
HETATM   26  C22 UNL     1      25.979   9.226  50.029  1.00  0.00     0.198 C 
HETATM   27  O3  UNL     1      27.271   9.744  50.141  1.00  0.00    -0.388 OA
HETATM   28  C23 UNL     1      27.987   9.558  48.951  1.00  0.00     0.198 C 
HETATM   29  C24 UNL     1      27.450   8.331  48.213  1.00  0.00     0.299 C 
ENDBRANCH  22  24
ENDBRANCH  21  22
ENDBRANCH  17  20
ENDBRANCH  12  16
ENDBRANCH   1   4
BRANCH   1  30
HETATM   30  C10 UNL     1      17.901   0.186  51.319  1.00  0.00    -0.005 C 
HETATM   31  C11 UNL     1      16.975  -0.228  50.471  1.00  0.00     0.002 C 
BRANCH  31  32
HETATM   32  C12 UNL     1      15.768  -1.067  50.737  1.00  0.00     0.249 C 
HETATM   33  F1  UNL     1      15.821  -1.550  52.020  1.00  0.00    -0.251 F 
ENDBRANCH  31  32
ENDBRANCH   1  30
TORSDOF 8
ENDMDL
