MODEL 1
REMARK VINA RESULT:      -6.5      0.000      0.000
REMARK  12 active torsions:
REMARK  status: ('A' for Active; 'I' for Inactive)
REMARK    1  A    between atoms: C2_2  and  C3_3 
REMARK    2  A    between atoms: C3_3  and  C4_4 
REMARK    3  A    between atoms: C4_4  and  N1_5 
REMARK    4  A    between atoms: N1_5  and  C5_6 
REMARK    5  A    between atoms: N1_5  and  C13_15 
REMARK    6  A    between atoms: C5_6  and  C6_7 
REMARK    7  A    between atoms: C6_7  and  C7_8 
REMARK    8  A    between atoms: C7_8  and  C8_9 
REMARK    9  A    between atoms: C9_10  and  C10_11 
REMARK   10  A    between atoms: C11_12  and  O1_13 
REMARK   11  A    between atoms: C13_15  and  N2_17 
REMARK   12  A    between atoms: N2_17  and  C14_18 
ROOT
HETATM    1  N1  UNL     1      24.333   3.423  50.412  1.00  0.00    -0.355 N 
ENDROOT
BRANCH   1   2
HETATM    2  C4  UNL     1      25.263   3.279  49.318  1.00  0.00     0.125 C 
BRANCH   2   3
HETATM    3  C3  UNL     1      26.564   3.998  49.482  1.00  0.00     0.020 C 
BRANCH   3   4
HETATM    4  C2  UNL     1      26.435   5.432  48.965  1.00  0.00    -0.003 C 
HETATM    5  C1  UNL     1      27.711   5.944  48.371  1.00  0.00     0.005 C 
ENDBRANCH   3   4
ENDBRANCH   2   3
ENDBRANCH   1   2
BRANCH   1   6
HETATM    6  C5  UNL     1      22.974   3.401  49.869  1.00  0.00     0.152 C 
BRANCH   6   7
HETATM    7  C6  UNL     1      22.445   2.030  49.938  1.00  0.00    -0.007 C 
BRANCH   7   8
HETATM    8  C7  UNL     1      21.683   0.953  49.976  1.00  0.00    -0.002 C 
BRANCH   8   9
HETATM    9  C8  UNL     1      21.335   0.240  51.201  1.00  0.00     0.000 C 
HETATM   10  C9  UNL     1      22.146   0.025  52.235  1.00  0.00     0.010 C 
BRANCH  10  11
HETATM   11  C10 UNL     1      21.781  -0.686  53.445  1.00  0.00    -0.023 A 
HETATM   12  C11 UNL     1      20.577  -1.187  53.950  1.00  0.00     0.054 A 
HETATM   13  C12 UNL     1      21.749  -1.389  54.751  1.00  0.00     0.105 A 
BRANCH  12  14
HETATM   14  O1  UNL     1      19.208  -1.489  54.023  1.00  0.00    -0.364 OA
HETATM   15  H16 UNL     1      18.713  -1.588  54.916  1.00  0.00     0.217 HD
ENDBRANCH  12  14
ENDBRANCH  10  11
ENDBRANCH   8   9
ENDBRANCH   7   8
ENDBRANCH   6   7
ENDBRANCH   1   6
BRANCH   1  16
HETATM   16  C13 UNL     1      24.453   3.617  51.814  1.00  0.00     0.174 C 
HETATM   17  S1  UNL     1      23.352   4.610  52.517  1.00  0.00    -0.041 SA
BRANCH  16  18
HETATM   18  N2  UNL     1      25.423   3.054  52.710  1.00  0.00    -0.333 N 
HETATM   19  H19 UNL     1      25.970   3.523  53.454  1.00  0.00     0.168 HD
BRANCH  18  20
HETATM   20  C14 UNL     1      25.779   1.686  52.689  1.00  0.00     0.034 A 
HETATM   21  C15 UNL     1      26.527   0.934  51.807  1.00  0.00     0.029 A 
HETATM   22  C16 UNL     1      26.731  -0.416  51.987  1.00  0.00     0.002 A 
HETATM   23  C17 UNL     1      26.164  -1.052  53.098  1.00  0.00     0.000 A 
HETATM   24  C18 UNL     1      25.409  -0.340  54.006  1.00  0.00     0.002 A 
HETATM   25  C19 UNL     1      25.222   1.027  53.793  1.00  0.00     0.029 A 
ENDBRANCH  18  20
ENDBRANCH  16  18
ENDBRANCH   1  16
TORSDOF 12
ENDMDL
MODEL 2
REMARK VINA RESULT:      -6.5      2.436      4.422
REMARK  12 active torsions:
REMARK  status: ('A' for Active; 'I' for Inactive)
REMARK    1  A    between atoms: C2_2  and  C3_3 
REMARK    2  A    between atoms: C3_3  and  C4_4 
REMARK    3  A    between atoms: C4_4  and  N1_5 
REMARK    4  A    between atoms: N1_5  and  C5_6 
REMARK    5  A    between atoms: N1_5  and  C13_15 
REMARK    6  A    between atoms: C5_6  and  C6_7 
REMARK    7  A    between atoms: C6_7  and  C7_8 
REMARK    8  A    between atoms: C7_8  and  C8_9 
REMARK    9  A    between atoms: C9_10  and  C10_11 
REMARK   10  A    between atoms: C11_12  and  O1_13 
REMARK   11  A    between atoms: C13_15  and  N2_17 
REMARK   12  A    between atoms: N2_17  and  C14_18 
ROOT
HETATM    1  N1  UNL     1      21.427   3.820  50.474  1.00  0.00    -0.355 N 
ENDROOT
BRANCH   1   2
HETATM    2  C4  UNL     1      22.280   3.925  49.316  1.00  0.00     0.125 C 
BRANCH   2   3
HETATM    3  C3  UNL     1      23.502   3.064  49.337  1.00  0.00     0.020 C 
BRANCH   3   4
HETATM    4  C2  UNL     1      24.755   3.940  49.378  1.00  0.00    -0.003 C 
HETATM    5  C1  UNL     1      25.975   3.176  49.792  1.00  0.00     0.005 C 
ENDBRANCH   3   4
ENDBRANCH   2   3
ENDBRANCH   1   2
BRANCH   1   6
HETATM    6  C5  UNL     1      21.792   4.879  51.415  1.00  0.00     0.152 C 
BRANCH   6   7
HETATM    7  C6  UNL     1      22.735   4.344  52.409  1.00  0.00    -0.007 C 
BRANCH   7   8
HETATM    8  C7  UNL     1      23.792   3.888  53.055  1.00  0.00    -0.002 C 
BRANCH   8   9
HETATM    9  C8  UNL     1      24.196   2.485  53.075  1.00  0.00     0.000 C 
HETATM   10  C9  UNL     1      25.430   2.034  53.284  1.00  0.00     0.010 C 
BRANCH  10  11
HETATM   11  C10 UNL     1      25.812   0.635  53.301  1.00  0.00    -0.023 A 
HETATM   12  C11 UNL     1      25.801  -0.363  54.281  1.00  0.00     0.054 A 
HETATM   13  C12 UNL     1      26.280  -0.737  52.983  1.00  0.00     0.105 A 
BRANCH  12  14
HETATM   14  O1  UNL     1      25.605  -0.975  55.529  1.00  0.00    -0.364 OA
HETATM   15  H16 UNL     1      26.030  -1.877  55.772  1.00  0.00     0.217 HD
ENDBRANCH  12  14
ENDBRANCH  10  11
ENDBRANCH   8   9
ENDBRANCH   7   8
ENDBRANCH   6   7
ENDBRANCH   1   6
BRANCH   1  16
HETATM   16  C13 UNL     1      20.400   2.930  50.889  1.00  0.00     0.174 C 
HETATM   17  S1  UNL     1      18.952   3.602  51.270  1.00  0.00    -0.041 SA
BRANCH  16  18
HETATM   18  N2  UNL     1      20.460   1.502  51.022  1.00  0.00    -0.333 N 
HETATM   19  H19 UNL     1      20.229   0.774  50.323  1.00  0.00     0.168 HD
BRANCH  18  20
HETATM   20  C14 UNL     1      20.878   0.862  52.212  1.00  0.00     0.034 A 
HETATM   21  C15 UNL     1      20.514   1.028  53.532  1.00  0.00     0.029 A 
HETATM   22  C16 UNL     1      21.080   0.286  54.545  1.00  0.00     0.002 A 
HETATM   23  C17 UNL     1      22.055  -0.669  54.232  1.00  0.00     0.000 A 
HETATM   24  C18 UNL     1      22.449  -0.868  52.925  1.00  0.00     0.002 A 
HETATM   25  C19 UNL     1      21.856  -0.099  51.924  1.00  0.00     0.029 A 
ENDBRANCH  18  20
ENDBRANCH  16  18
ENDBRANCH   1  16
TORSDOF 12
ENDMDL
MODEL 3
REMARK VINA RESULT:      -6.4      2.557      4.842
REMARK  12 active torsions:
REMARK  status: ('A' for Active; 'I' for Inactive)
REMARK    1  A    between atoms: C2_2  and  C3_3 
REMARK    2  A    between atoms: C3_3  and  C4_4 
REMARK    3  A    between atoms: C4_4  and  N1_5 
REMARK    4  A    between atoms: N1_5  and  C5_6 
REMARK    5  A    between atoms: N1_5  and  C13_15 
REMARK    6  A    between atoms: C5_6  and  C6_7 
REMARK    7  A    between atoms: C6_7  and  C7_8 
REMARK    8  A    between atoms: C7_8  and  C8_9 
REMARK    9  A    between atoms: C9_10  and  C10_11 
REMARK   10  A    between atoms: C11_12  and  O1_13 
REMARK   11  A    between atoms: C13_15  and  N2_17 
REMARK   12  A    between atoms: N2_17  and  C14_18 
ROOT
HETATM    1  N1  UNL     1      23.871   3.018  50.791  1.00  0.00    -0.355 N 
ENDROOT
BRANCH   1   2
HETATM    2  C4  UNL     1      24.885   2.952  49.767  1.00  0.00     0.125 C 
BRANCH   2   3
HETATM    3  C3  UNL     1      26.151   3.689  50.067  1.00  0.00     0.020 C 
BRANCH   3   4
HETATM    4  C2  UNL     1      26.341   4.827  49.063  1.00  0.00    -0.003 C 
HETATM    5  C1  UNL     1      27.759   4.947  48.594  1.00  0.00     0.005 C 
ENDBRANCH   3   4
ENDBRANCH   2   3
ENDBRANCH   1   2
BRANCH   1   6
HETATM    6  C5  UNL     1      24.448   3.657  51.973  1.00  0.00     0.152 C 
BRANCH   6   7
HETATM    7  C6  UNL     1      24.817   2.624  52.955  1.00  0.00    -0.007 C 
BRANCH   7   8
HETATM    8  C7  UNL     1      25.381   1.910  53.911  1.00  0.00    -0.002 C 
BRANCH   8   9
HETATM    9  C8  UNL     1      26.676   1.249  53.783  1.00  0.00     0.000 C 
HETATM   10  C9  UNL     1      26.869  -0.043  53.532  1.00  0.00     0.010 C 
BRANCH  10  11
HETATM   11  C10 UNL     1      28.166  -0.682  53.409  1.00  0.00    -0.023 A 
HETATM   12  C11 UNL     1      28.582  -1.994  53.166  1.00  0.00     0.054 A 
HETATM   13  C12 UNL     1      29.610  -1.011  53.337  1.00  0.00     0.105 A 
BRANCH  12  14
HETATM   14  O1  UNL     1      28.498  -3.373  52.914  1.00  0.00    -0.364 OA
HETATM   15  H16 UNL     1      27.948  -3.758  52.137  1.00  0.00     0.217 HD
ENDBRANCH  12  14
ENDBRANCH  10  11
ENDBRANCH   8   9
ENDBRANCH   7   8
ENDBRANCH   6   7
ENDBRANCH   1   6
BRANCH   1  16
HETATM   16  C13 UNL     1      22.525   2.577  50.902  1.00  0.00     0.174 C 
HETATM   17  S1  UNL     1      21.362   3.731  50.812  1.00  0.00    -0.041 SA
BRANCH  16  18
HETATM   18  N2  UNL     1      22.039   1.238  51.086  1.00  0.00    -0.333 N 
HETATM   19  H19 UNL     1      21.810   0.526  50.371  1.00  0.00     0.168 HD
BRANCH  18  20
HETATM   20  C14 UNL     1      21.797   0.683  52.364  1.00  0.00     0.034 A 
HETATM   21  C15 UNL     1      20.839   0.939  53.322  1.00  0.00     0.029 A 
HETATM   22  C16 UNL     1      20.808   0.269  54.525  1.00  0.00     0.002 A 
HETATM   23  C17 UNL     1      21.779  -0.706  54.790  1.00  0.00     0.000 A 
HETATM   24  C18 UNL     1      22.756  -0.995  53.861  1.00  0.00     0.002 A 
HETATM   25  C19 UNL     1      22.757  -0.297  52.653  1.00  0.00     0.029 A 
ENDBRANCH  18  20
ENDBRANCH  16  18
ENDBRANCH   1  16
TORSDOF 12
ENDMDL
MODEL 4
REMARK VINA RESULT:      -6.4      2.461      4.312
REMARK  12 active torsions:
REMARK  status: ('A' for Active; 'I' for Inactive)
REMARK    1  A    between atoms: C2_2  and  C3_3 
REMARK    2  A    between atoms: C3_3  and  C4_4 
REMARK    3  A    between atoms: C4_4  and  N1_5 
REMARK    4  A    between atoms: N1_5  and  C5_6 
REMARK    5  A    between atoms: N1_5  and  C13_15 
REMARK    6  A    between atoms: C5_6  and  C6_7 
REMARK    7  A    between atoms: C6_7  and  C7_8 
REMARK    8  A    between atoms: C7_8  and  C8_9 
REMARK    9  A    between atoms: C9_10  and  C10_11 
REMARK   10  A    between atoms: C11_12  and  O1_13 
REMARK   11  A    between atoms: C13_15  and  N2_17 
REMARK   12  A    between atoms: N2_17  and  C14_18 
ROOT
HETATM    1  N1  UNL     1      24.244   1.859  52.782  1.00  0.00    -0.355 N 
ENDROOT
BRANCH   1   2
HETATM    2  C4  UNL     1      23.304   0.964  53.411  1.00  0.00     0.125 C 
BRANCH   2   3
HETATM    3  C3  UNL     1      23.618  -0.493  53.282  1.00  0.00     0.020 C 
BRANCH   3   4
HETATM    4  C2  UNL     1      22.332  -1.314  53.387  1.00  0.00    -0.003 C 
HETATM    5  C1  UNL     1      21.727  -1.259  54.757  1.00  0.00     0.005 C 
ENDBRANCH   3   4
ENDBRANCH   2   3
ENDBRANCH   1   2
BRANCH   1   6
HETATM    6  C5  UNL     1      23.501   2.778  51.919  1.00  0.00     0.152 C 
BRANCH   6   7
HETATM    7  C6  UNL     1      22.969   2.038  50.764  1.00  0.00    -0.007 C 
BRANCH   7   8
HETATM    8  C7  UNL     1      22.207   1.484  49.840  1.00  0.00    -0.002 C 
BRANCH   8   9
HETATM    9  C8  UNL     1      20.919   0.852  50.112  1.00  0.00     0.000 C 
HETATM   10  C9  UNL     1      20.308   0.807  51.293  1.00  0.00     0.010 C 
BRANCH  10  11
HETATM   11  C10 UNL     1      19.028   0.173  51.543  1.00  0.00    -0.023 A 
HETATM   12  C11 UNL     1      18.503  -0.568  52.606  1.00  0.00     0.054 A 
HETATM   13  C12 UNL     1      17.638  -0.343  51.485  1.00  0.00     0.105 A 
BRANCH  12  14
HETATM   14  O1  UNL     1      18.440  -1.217  53.849  1.00  0.00    -0.364 OA
HETATM   15  H16 UNL     1      19.266  -1.347  54.445  1.00  0.00     0.217 HD
ENDBRANCH  12  14
ENDBRANCH  10  11
ENDBRANCH   8   9
ENDBRANCH   7   8
ENDBRANCH   6   7
ENDBRANCH   1   6
BRANCH   1  16
HETATM   16  C13 UNL     1      25.658   1.998  52.789  1.00  0.00     0.174 C 
HETATM   17  S1  UNL     1      26.351   2.537  51.403  1.00  0.00    -0.041 SA
BRANCH  16  18
HETATM   18  N2  UNL     1      26.573   1.724  53.860  1.00  0.00    -0.333 N 
HETATM   19  H19 UNL     1      26.580   2.104  54.823  1.00  0.00     0.168 HD
BRANCH  18  20
HETATM   20  C14 UNL     1      27.663   0.833  53.725  1.00  0.00     0.034 A 
HETATM   21  C15 UNL     1      29.024   1.002  53.865  1.00  0.00     0.029 A 
HETATM   22  C16 UNL     1      29.915  -0.029  53.665  1.00  0.00     0.002 A 
HETATM   23  C17 UNL     1      29.428  -1.293  53.307  1.00  0.00     0.000 A 
HETATM   24  C18 UNL     1      28.075  -1.508  53.156  1.00  0.00     0.002 A 
HETATM   25  C19 UNL     1      27.201  -0.441  53.367  1.00  0.00     0.029 A 
ENDBRANCH  18  20
ENDBRANCH  16  18
ENDBRANCH   1  16
TORSDOF 12
ENDMDL
MODEL 5
REMARK VINA RESULT:      -6.3      2.518      5.650
REMARK  12 active torsions:
REMARK  status: ('A' for Active; 'I' for Inactive)
REMARK    1  A    between atoms: C2_2  and  C3_3 
REMARK    2  A    between atoms: C3_3  and  C4_4 
REMARK    3  A    between atoms: C4_4  and  N1_5 
REMARK    4  A    between atoms: N1_5  and  C5_6 
REMARK    5  A    between atoms: N1_5  and  C13_15 
REMARK    6  A    between atoms: C5_6  and  C6_7 
REMARK    7  A    between atoms: C6_7  and  C7_8 
REMARK    8  A    between atoms: C7_8  and  C8_9 
REMARK    9  A    between atoms: C9_10  and  C10_11 
REMARK   10  A    between atoms: C11_12  and  O1_13 
REMARK   11  A    between atoms: C13_15  and  N2_17 
REMARK   12  A    between atoms: N2_17  and  C14_18 
ROOT
HETATM    1  N1  UNL     1      22.301   2.913  50.137  1.00  0.00    -0.355 N 
ENDROOT
BRANCH   1   2
HETATM    2  C4  UNL     1      22.279   1.476  50.269  1.00  0.00     0.125 C 
BRANCH   2   3
HETATM    3  C3  UNL     1      20.921   0.852  50.279  1.00  0.00     0.020 C 
BRANCH   3   4
HETATM    4  C2  UNL     1      20.659   0.196  51.637  1.00  0.00    -0.003 C 
HETATM    5  C1  UNL     1      21.925  -0.152  52.358  1.00  0.00     0.005 C 
ENDBRANCH   3   4
ENDBRANCH   2   3
ENDBRANCH   1   2
BRANCH   1   6
HETATM    6  C5  UNL     1      21.881   3.500  51.409  1.00  0.00     0.152 C 
BRANCH   6   7
HETATM    7  C6  UNL     1      22.991   3.421  52.372  1.00  0.00    -0.007 C 
BRANCH   7   8
HETATM    8  C7  UNL     1      24.168   3.370  52.967  1.00  0.00    -0.002 C 
BRANCH   8   9
HETATM    9  C8  UNL     1      24.917   2.138  53.194  1.00  0.00     0.000 C 
HETATM   10  C9  UNL     1      25.390   1.329  52.250  1.00  0.00     0.010 C 
BRANCH  10  11
HETATM   11  C10 UNL     1      26.133   0.108  52.496  1.00  0.00    -0.023 A 
HETATM   12  C11 UNL     1      26.866  -0.379  53.582  1.00  0.00     0.054 A 
HETATM   13  C12 UNL     1      26.788  -1.221  52.425  1.00  0.00     0.105 A 
BRANCH  12  14
HETATM   14  O1  UNL     1      27.451  -0.423  54.858  1.00  0.00    -0.364 OA
HETATM   15  H16 UNL     1      27.689   0.426  55.383  1.00  0.00     0.217 HD
ENDBRANCH  12  14
ENDBRANCH  10  11
ENDBRANCH   8   9
ENDBRANCH   7   8
ENDBRANCH   6   7
ENDBRANCH   1   6
BRANCH   1  16
HETATM   16  C13 UNL     1      22.583   3.820  49.081  1.00  0.00     0.174 C 
HETATM   17  S1  UNL     1      22.000   3.429  47.599  1.00  0.00    -0.041 SA
BRANCH  16  18
HETATM   18  N2  UNL     1      23.320   5.050  49.139  1.00  0.00    -0.333 N 
HETATM   19  H19 UNL     1      22.967   6.015  49.264  1.00  0.00     0.168 HD
BRANCH  18  20
HETATM   20  C14 UNL     1      24.729   5.103  49.025  1.00  0.00     0.034 A 
HETATM   21  C15 UNL     1      25.589   6.090  48.591  1.00  0.00     0.029 A 
HETATM   22  C16 UNL     1      26.954   5.905  48.552  1.00  0.00     0.002 A 
HETATM   23  C17 UNL     1      27.491   4.680  48.965  1.00  0.00     0.000 A 
HETATM   24  C18 UNL     1      26.668   3.665  49.407  1.00  0.00     0.002 A 
HETATM   25  C19 UNL     1      25.291   3.886  49.433  1.00  0.00     0.029 A 
ENDBRANCH  18  20
ENDBRANCH  16  18
ENDBRANCH   1  16
TORSDOF 12
ENDMDL
MODEL 6
REMARK VINA RESULT:      -6.3      2.584      6.365
REMARK  12 active torsions:
REMARK  status: ('A' for Active; 'I' for Inactive)
REMARK    1  A    between atoms: C2_2  and  C3_3 
REMARK    2  A    between atoms: C3_3  and  C4_4 
REMARK    3  A    between atoms: C4_4  and  N1_5 
REMARK    4  A    between atoms: N1_5  and  C5_6 
REMARK    5  A    between atoms: N1_5  and  C13_15 
REMARK    6  A    between atoms: C5_6  and  C6_7 
REMARK    7  A    between atoms: C6_7  and  C7_8 
REMARK    8  A    between atoms: C7_8  and  C8_9 
REMARK    9  A    between atoms: C9_10  and  C10_11 
REMARK   10  A    between atoms: C11_12  and  O1_13 
REMARK   11  A    between atoms: C13_15  and  N2_17 
REMARK   12  A    between atoms: N2_17  and  C14_18 
ROOT
HETATM    1  N1  UNL     1      22.807   2.462  51.616  1.00  0.00    -0.355 N 
ENDROOT
BRANCH   1   2
HETATM    2  C4  UNL     1      21.704   2.003  52.425  1.00  0.00     0.125 C 
BRANCH   2   3
HETATM    3  C3  UNL     1      21.387   0.546  52.312  1.00  0.00     0.020 C 
BRANCH   3   4
HETATM    4  C2  UNL     1      21.950  -0.205  53.519  1.00  0.00    -0.003 C 
HETATM    5  C1  UNL     1      21.124  -0.009  54.753  1.00  0.00     0.005 C 
ENDBRANCH   3   4
ENDBRANCH   2   3
ENDBRANCH   1   2
BRANCH   1   6
HETATM    6  C5  UNL     1      23.655   1.315  51.296  1.00  0.00     0.152 C 
BRANCH   6   7
HETATM    7  C6  UNL     1      24.994   1.523  51.871  1.00  0.00    -0.007 C 
BRANCH   7   8
HETATM    8  C7  UNL     1      26.092   2.017  52.411  1.00  0.00    -0.002 C 
BRANCH   8   9
HETATM    9  C8  UNL     1      27.306   1.243  52.651  1.00  0.00     0.000 C 
HETATM   10  C9  UNL     1      27.355  -0.010  53.097  1.00  0.00     0.010 C 
BRANCH  10  11
HETATM   11  C10 UNL     1      28.572  -0.763  53.330  1.00  0.00    -0.023 A 
HETATM   12  C11 UNL     1      28.878  -2.127  53.365  1.00  0.00     0.054 A 
HETATM   13  C12 UNL     1      29.959  -1.215  53.599  1.00  0.00     0.105 A 
BRANCH  12  14
HETATM   14  O1  UNL     1      28.690  -3.516  53.299  1.00  0.00    -0.364 OA
HETATM   15  H16 UNL     1      27.801  -3.964  53.549  1.00  0.00     0.217 HD
ENDBRANCH  12  14
ENDBRANCH  10  11
ENDBRANCH   8   9
ENDBRANCH   7   8
ENDBRANCH   6   7
ENDBRANCH   1   6
BRANCH   1  16
HETATM   16  C13 UNL     1      23.240   3.726  51.133  1.00  0.00     0.174 C 
HETATM   17  S1  UNL     1      23.386   4.927  52.241  1.00  0.00    -0.041 SA
BRANCH  16  18
HETATM   18  N2  UNL     1      23.570   4.098  49.786  1.00  0.00    -0.333 N 
HETATM   19  H19 UNL     1      22.957   4.132  48.952  1.00  0.00     0.168 HD
BRANCH  18  20
HETATM   20  C14 UNL     1      24.870   4.498  49.400  1.00  0.00     0.034 A 
HETATM   21  C15 UNL     1      26.085   3.845  49.417  1.00  0.00     0.029 A 
HETATM   22  C16 UNL     1      27.248   4.453  48.998  1.00  0.00     0.002 A 
HETATM   23  C17 UNL     1      27.202   5.776  48.539  1.00  0.00     0.000 A 
HETATM   24  C18 UNL     1      26.009   6.466  48.505  1.00  0.00     0.002 A 
HETATM   25  C19 UNL     1      24.850   5.820  48.937  1.00  0.00     0.029 A 
ENDBRANCH  18  20
ENDBRANCH  16  18
ENDBRANCH   1  16
TORSDOF 12
ENDMDL
MODEL 7
REMARK VINA RESULT:      -6.3      2.935      5.992
REMARK  12 active torsions:
REMARK  status: ('A' for Active; 'I' for Inactive)
REMARK    1  A    between atoms: C2_2  and  C3_3 
REMARK    2  A    between atoms: C3_3  and  C4_4 
REMARK    3  A    between atoms: C4_4  and  N1_5 
REMARK    4  A    between atoms: N1_5  and  C5_6 
REMARK    5  A    between atoms: N1_5  and  C13_15 
REMARK    6  A    between atoms: C5_6  and  C6_7 
REMARK    7  A    between atoms: C6_7  and  C7_8 
REMARK    8  A    between atoms: C7_8  and  C8_9 
REMARK    9  A    between atoms: C9_10  and  C10_11 
REMARK   10  A    between atoms: C11_12  and  O1_13 
REMARK   11  A    between atoms: C13_15  and  N2_17 
REMARK   12  A    between atoms: N2_17  and  C14_18 
ROOT
HETATM    1  N1  UNL     1      24.215   2.856  51.607  1.00  0.00    -0.355 N 
ENDROOT
BRANCH   1   2
HETATM    2  C4  UNL     1      23.529   3.654  52.593  1.00  0.00     0.125 C 
BRANCH   2   3
HETATM    3  C3  UNL     1      23.220   5.058  52.182  1.00  0.00     0.020 C 
BRANCH   3   4
HETATM    4  C2  UNL     1      22.043   5.068  51.205  1.00  0.00    -0.003 C 
HETATM    5  C1  UNL     1      20.883   4.258  51.697  1.00  0.00     0.005 C 
ENDBRANCH   3   4
ENDBRANCH   2   3
ENDBRANCH   1   2
BRANCH   1   6
HETATM    6  C5  UNL     1      23.528   1.569  51.494  1.00  0.00     0.152 C 
BRANCH   6   7
HETATM    7  C6  UNL     1      23.915   0.710  52.625  1.00  0.00    -0.007 C 
BRANCH   7   8
HETATM    8  C7  UNL     1      24.508  -0.140  53.442  1.00  0.00    -0.002 C 
BRANCH   8   9
HETATM    9  C8  UNL     1      25.842  -0.691  53.223  1.00  0.00     0.000 C 
HETATM   10  C9  UNL     1      26.965  -0.260  53.792  1.00  0.00     0.010 C 
BRANCH  10  11
HETATM   11  C10 UNL     1      28.283  -0.822  53.561  1.00  0.00    -0.023 A 
HETATM   12  C11 UNL     1      28.768  -2.123  53.401  1.00  0.00     0.054 A 
HETATM   13  C12 UNL     1      29.728  -1.061  53.329  1.00  0.00     0.105 A 
BRANCH  12  14
HETATM   14  O1  UNL     1      28.764  -3.524  53.307  1.00  0.00    -0.364 OA
HETATM   15  H16 UNL     1      28.193  -4.027  52.618  1.00  0.00     0.217 HD
ENDBRANCH  12  14
ENDBRANCH  10  11
ENDBRANCH   8   9
ENDBRANCH   7   8
ENDBRANCH   6   7
ENDBRANCH   1   6
BRANCH   1  16
HETATM   16  C13 UNL     1      25.374   3.029  50.803  1.00  0.00     0.174 C 
HETATM   17  S1  UNL     1      26.808   2.606  51.479  1.00  0.00    -0.041 SA
BRANCH  16  18
HETATM   18  N2  UNL     1      25.460   3.533  49.462  1.00  0.00    -0.333 N 
HETATM   19  H19 UNL     1      24.964   3.209  48.613  1.00  0.00     0.168 HD
BRANCH  18  20
HETATM   20  C14 UNL     1      26.293   4.618  49.105  1.00  0.00     0.034 A 
HETATM   21  C15 UNL     1      27.592   4.679  48.644  1.00  0.00     0.029 A 
HETATM   22  C16 UNL     1      28.217   5.876  48.373  1.00  0.00     0.002 A 
HETATM   23  C17 UNL     1      27.516   7.073  48.568  1.00  0.00     0.000 A 
HETATM   24  C18 UNL     1      26.216   7.060  49.027  1.00  0.00     0.002 A 
HETATM   25  C19 UNL     1      25.614   5.830  49.293  1.00  0.00     0.029 A 
ENDBRANCH  18  20
ENDBRANCH  16  18
ENDBRANCH   1  16
TORSDOF 12
ENDMDL
MODEL 8
REMARK VINA RESULT:      -6.3      3.562      7.390
REMARK  12 active torsions:
REMARK  status: ('A' for Active; 'I' for Inactive)
REMARK    1  A    between atoms: C2_2  and  C3_3 
REMARK    2  A    between atoms: C3_3  and  C4_4 
REMARK    3  A    between atoms: C4_4  and  N1_5 
REMARK    4  A    between atoms: N1_5  and  C5_6 
REMARK    5  A    between atoms: N1_5  and  C13_15 
REMARK    6  A    between atoms: C5_6  and  C6_7 
REMARK    7  A    between atoms: C6_7  and  C7_8 
REMARK    8  A    between atoms: C7_8  and  C8_9 
REMARK    9  A    between atoms: C9_10  and  C10_11 
REMARK   10  A    between atoms: C11_12  and  O1_13 
REMARK   11  A    between atoms: C13_15  and  N2_17 
REMARK   12  A    between atoms: N2_17  and  C14_18 
ROOT
HETATM    1  N1  UNL     1      25.690   1.111  52.254  1.00  0.00    -0.355 N 
ENDROOT
BRANCH   1   2
HETATM    2  C4  UNL     1      26.286  -0.191  52.433  1.00  0.00     0.125 C 
BRANCH   2   3
HETATM    3  C3  UNL     1      27.279  -0.295  53.547  1.00  0.00     0.020 C 
BRANCH   3   4
HETATM    4  C2  UNL     1      28.467  -1.153  53.107  1.00  0.00    -0.003 C 
HETATM    5  C1  UNL     1      29.764  -0.675  53.684  1.00  0.00     0.005 C 
ENDBRANCH   3   4
ENDBRANCH   2   3
ENDBRANCH   1   2
BRANCH   1   6
HETATM    6  C5  UNL     1      26.761   2.088  52.065  1.00  0.00     0.152 C 
BRANCH   6   7
HETATM    7  C6  UNL     1      26.665   2.663  50.713  1.00  0.00    -0.007 C 
BRANCH   7   8
HETATM    8  C7  UNL     1      26.268   3.224  49.587  1.00  0.00    -0.002 C 
BRANCH   8   9
HETATM    9  C8  UNL     1      26.687   4.549  49.141  1.00  0.00     0.000 C 
HETATM   10  C9  UNL     1      27.851   4.846  48.568  1.00  0.00     0.010 C 
BRANCH  10  11
HETATM   11  C10 UNL     1      28.250   6.170  48.131  1.00  0.00    -0.023 A 
HETATM   12  C11 UNL     1      29.247   7.065  48.531  1.00  0.00     0.054 A 
HETATM   13  C12 UNL     1      28.397   7.483  47.455  1.00  0.00     0.105 A 
BRANCH  12  14
HETATM   14  O1  UNL     1      30.336   7.580  49.251  1.00  0.00    -0.364 OA
HETATM   15  H16 UNL     1      30.520   8.588  49.326  1.00  0.00     0.217 HD
ENDBRANCH  12  14
ENDBRANCH  10  11
ENDBRANCH   8   9
ENDBRANCH   7   8
ENDBRANCH   6   7
ENDBRANCH   1   6
BRANCH   1  16
HETATM   16  C13 UNL     1      24.363   1.618  52.267  1.00  0.00     0.174 C 
HETATM   17  S1  UNL     1      24.114   3.006  53.106  1.00  0.00    -0.041 SA
BRANCH  16  18
HETATM   18  N2  UNL     1      23.195   1.071  51.638  1.00  0.00    -0.333 N 
HETATM   19  H19 UNL     1      22.928   1.085  50.638  1.00  0.00     0.168 HD
BRANCH  18  20
HETATM   20  C14 UNL     1      22.186   0.390  52.359  1.00  0.00     0.034 A 
HETATM   21  C15 UNL     1      20.809   0.459  52.320  1.00  0.00     0.029 A 
HETATM   22  C16 UNL     1      20.015  -0.305  53.145  1.00  0.00     0.002 A 
HETATM   23  C17 UNL     1      20.618  -1.182  54.056  1.00  0.00     0.000 A 
HETATM   24  C18 UNL     1      21.991  -1.284  54.130  1.00  0.00     0.002 A 
HETATM   25  C19 UNL     1      22.766  -0.495  53.278  1.00  0.00     0.029 A 
ENDBRANCH  18  20
ENDBRANCH  16  18
ENDBRANCH   1  16
TORSDOF 12
ENDMDL
MODEL 9
REMARK VINA RESULT:      -6.2      1.684      2.360
REMARK  12 active torsions:
REMARK  status: ('A' for Active; 'I' for Inactive)
REMARK    1  A    between atoms: C2_2  and  C3_3 
REMARK    2  A    between atoms: C3_3  and  C4_4 
REMARK    3  A    between atoms: C4_4  and  N1_5 
REMARK    4  A    between atoms: N1_5  and  C5_6 
REMARK    5  A    between atoms: N1_5  and  C13_15 
REMARK    6  A    between atoms: C5_6  and  C6_7 
REMARK    7  A    between atoms: C6_7  and  C7_8 
REMARK    8  A    between atoms: C7_8  and  C8_9 
REMARK    9  A    between atoms: C9_10  and  C10_11 
REMARK   10  A    between atoms: C11_12  and  O1_13 
REMARK   11  A    between atoms: C13_15  and  N2_17 
REMARK   12  A    between atoms: N2_17  and  C14_18 
ROOT
HETATM    1  N1  UNL     1      24.376   3.718  50.647  1.00  0.00    -0.355 N 
ENDROOT
BRANCH   1   2
HETATM    2  C4  UNL     1      23.452   4.133  51.675  1.00  0.00     0.125 C 
BRANCH   2   3
HETATM    3  C3  UNL     1      22.507   5.225  51.287  1.00  0.00     0.020 C 
BRANCH   3   4
HETATM    4  C2  UNL     1      23.203   6.205  50.342  1.00  0.00    -0.003 C 
HETATM    5  C1  UNL     1      23.919   7.298  51.075  1.00  0.00     0.005 C 
ENDBRANCH   3   4
ENDBRANCH   2   3
ENDBRANCH   1   2
BRANCH   1   6
HETATM    6  C5  UNL     1      23.623   3.034  49.597  1.00  0.00     0.152 C 
BRANCH   6   7
HETATM    7  C6  UNL     1      22.788   1.983  50.200  1.00  0.00    -0.007 C 
BRANCH   7   8
HETATM    8  C7  UNL     1      21.865   1.080  50.470  1.00  0.00    -0.002 C 
BRANCH   8   9
HETATM    9  C8  UNL     1      21.878   0.225  51.653  1.00  0.00     0.000 C 
HETATM   10  C9  UNL     1      22.554   0.457  52.775  1.00  0.00     0.010 C 
BRANCH  10  11
HETATM   11  C10 UNL     1      22.553  -0.406  53.941  1.00  0.00    -0.023 A 
HETATM   12  C11 UNL     1      21.598  -1.239  54.531  1.00  0.00     0.054 A 
HETATM   13  C12 UNL     1      22.883  -1.180  55.163  1.00  0.00     0.105 A 
BRANCH  12  14
HETATM   14  O1  UNL     1      20.374  -1.895  54.733  1.00  0.00    -0.364 OA
HETATM   15  H16 UNL     1      19.637  -1.513  55.337  1.00  0.00     0.217 HD
ENDBRANCH  12  14
ENDBRANCH  10  11
ENDBRANCH   8   9
ENDBRANCH   7   8
ENDBRANCH   6   7
ENDBRANCH   1   6
BRANCH   1  16
HETATM   16  C13 UNL     1      25.784   3.790  50.475  1.00  0.00     0.174 C 
HETATM   17  S1  UNL     1      26.328   4.709  49.229  1.00  0.00    -0.041 SA
BRANCH  16  18
HETATM   18  N2  UNL     1      26.810   3.156  51.254  1.00  0.00    -0.333 N 
HETATM   19  H19 UNL     1      27.828   3.344  51.266  1.00  0.00     0.168 HD
BRANCH  18  20
HETATM   20  C14 UNL     1      26.538   2.117  52.174  1.00  0.00     0.034 A 
HETATM   21  C15 UNL     1      26.169   2.127  53.503  1.00  0.00     0.029 A 
HETATM   22  C16 UNL     1      25.970   0.966  54.216  1.00  0.00     0.002 A 
HETATM   23  C17 UNL     1      26.146  -0.268  53.577  1.00  0.00     0.000 A 
HETATM   24  C18 UNL     1      26.514  -0.326  52.250  1.00  0.00     0.002 A 
HETATM   25  C19 UNL     1      26.707   0.870  51.558  1.00  0.00     0.029 A 
ENDBRANCH  18  20
ENDBRANCH  16  18
ENDBRANCH   1  16
TORSDOF 12
ENDMDL
