MODEL 1
REMARK VINA RESULT:      -7.6      0.000      0.000
REMARK  9 active torsions:
REMARK  status: ('A' for Active; 'I' for Inactive)
REMARK    1  A    between atoms: N1_2  and  C2_3 
REMARK    2  A    between atoms: C2_3  and  C3_4 
REMARK    3  A    between atoms: C4_5  and  C5_6 
REMARK       I    between atoms: C5_6  and  N2_8 
REMARK    4  A    between atoms: N2_8  and  C6_9 
REMARK    5  A    between atoms: C9_12  and  N3_13 
REMARK    6  A    between atoms: N3_13  and  C10_14 
REMARK    7  A    between atoms: C10_14  and  C11_15 
REMARK    8  A    between atoms: C11_15  and  C12_16 
REMARK    9  A    between atoms: C18_25  and  O2_26 
ROOT
HETATM    1  C6  UNL     1      24.216   3.855  51.254  1.00  0.00     0.069 A 
HETATM    2  C7  UNL     1      24.351   2.767  52.088  1.00  0.00     0.048 A 
HETATM    3  C8  UNL     1      23.277   2.030  52.540  1.00  0.00     0.023 A 
HETATM    4  C9  UNL     1      23.374   0.922  53.382  1.00  0.00     0.063 A 
HETATM    5  C13 UNL     1      22.234   0.257  53.771  1.00  0.00     0.089 A 
HETATM    6  C14 UNL     1      22.430  -0.870  54.634  1.00  0.00     0.103 C 
HETATM    7  N4  UNL     1      22.610  -1.788  55.345  1.00  0.00    -0.191 NA
HETATM    8  C15 UNL     1      20.989   0.664  53.343  1.00  0.00     0.142 A 
HETATM    9  N5  UNL     1      20.876   1.743  52.522  1.00  0.00    -0.259 NA
HETATM   10  C16 UNL     1      21.996   2.410  52.130  1.00  0.00     0.071 A 
HETATM   11  C17 UNL     1      21.867   3.506  51.291  1.00  0.00     0.071 A 
HETATM   12  C18 UNL     1      22.954   4.243  50.840  1.00  0.00     0.097 A 
ENDROOT
BRANCH   4  13
HETATM   13  N3  UNL     1      24.720   0.633  53.737  1.00  0.00    -0.384 N 
HETATM   14  H11 UNL     1      25.391   1.029  54.400  1.00  0.00     0.160 HD
BRANCH  13  15
HETATM   15  C10 UNL     1      25.181  -0.498  52.925  1.00  0.00     0.147 C 
BRANCH  15  16
HETATM   16  C11 UNL     1      26.489  -0.274  52.298  1.00  0.00     0.000 C 
BRANCH  16  17
HETATM   17  C12 UNL     1      27.611  -0.510  52.967  1.00  0.00     0.162 C 
HETATM   18 BR1  UNL     1      29.344  -0.631  53.753  1.00  0.00    -0.172 Br
ENDBRANCH  16  17
ENDBRANCH  15  16
ENDBRANCH  13  15
ENDBRANCH   4  13
BRANCH   1  19
HETATM   19  N2  UNL     1      25.378   4.573  50.819  1.00  0.00    -0.321 N 
HETATM   20  C5  UNL     1      25.912   3.933  49.635  1.00  0.00     0.245 C 
HETATM   21  O1  UNL     1      25.069   2.974  49.504  1.00  0.00    -0.268 OA
HETATM   22  H9  UNL     1      25.790   5.435  51.281  1.00  0.00     0.169 HD
BRANCH  20  23
HETATM   23  C4  UNL     1      27.087   4.462  48.998  1.00  0.00     0.072 C 
HETATM   24  C3  UNL     1      27.705   5.512  48.534  1.00  0.00     0.008 C 
BRANCH  24  25
HETATM   25  C2  UNL     1      27.470   6.949  48.403  1.00  0.00     0.296 C 
BRANCH  25  26
HETATM   26  N1  UNL     1      27.135   7.498  49.711  1.00  0.00     0.082 N 
HETATM   27  C1  UNL     1      27.403   8.929  49.747  1.00  0.00     0.307 C 
HETATM   28  H4  UNL     1      27.720   7.046  50.427  1.00  0.00     0.315 HD
ENDBRANCH  25  26
ENDBRANCH  24  25
ENDBRANCH  20  23
ENDBRANCH   1  19
BRANCH  12  29
HETATM   29  O2  UNL     1      22.799   5.346  49.993  1.00  0.00    -0.354 OA
HETATM   30  C19 UNL     1      22.467   5.203  48.626  1.00  0.00     0.210 C 
ENDBRANCH  12  29
TORSDOF 9
ENDMDL
MODEL 2
REMARK VINA RESULT:      -7.5      2.453      4.332
REMARK  9 active torsions:
REMARK  status: ('A' for Active; 'I' for Inactive)
REMARK    1  A    between atoms: N1_2  and  C2_3 
REMARK    2  A    between atoms: C2_3  and  C3_4 
REMARK    3  A    between atoms: C4_5  and  C5_6 
REMARK       I    between atoms: C5_6  and  N2_8 
REMARK    4  A    between atoms: N2_8  and  C6_9 
REMARK    5  A    between atoms: C9_12  and  N3_13 
REMARK    6  A    between atoms: N3_13  and  C10_14 
REMARK    7  A    between atoms: C10_14  and  C11_15 
REMARK    8  A    between atoms: C11_15  and  C12_16 
REMARK    9  A    between atoms: C18_25  and  O2_26 
ROOT
HETATM    1  C6  UNL     1      25.794   2.883  51.479  1.00  0.00     0.069 A 
HETATM    2  C7  UNL     1      24.436   2.696  51.346  1.00  0.00     0.048 A 
HETATM    3  C8  UNL     1      23.771   1.614  51.879  1.00  0.00     0.023 A 
HETATM    4  C9  UNL     1      22.398   1.393  51.767  1.00  0.00     0.063 A 
HETATM    5  C13 UNL     1      21.836   0.276  52.343  1.00  0.00     0.089 A 
HETATM    6  C14 UNL     1      20.420   0.133  52.179  1.00  0.00     0.103 C 
HETATM    7  N4  UNL     1      19.259   0.030  52.030  1.00  0.00    -0.191 NA
HETATM    8  C15 UNL     1      22.605  -0.636  53.032  1.00  0.00     0.142 A 
HETATM    9  N5  UNL     1      23.945  -0.436  53.151  1.00  0.00    -0.259 NA
HETATM   10  C16 UNL     1      24.514   0.664  52.586  1.00  0.00     0.071 A 
HETATM   11  C17 UNL     1      25.881   0.857  52.717  1.00  0.00     0.071 A 
HETATM   12  C18 UNL     1      26.543   1.951  52.176  1.00  0.00     0.097 A 
ENDROOT
BRANCH   4  13
HETATM   13  N3  UNL     1      21.748   2.417  51.025  1.00  0.00    -0.384 N 
HETATM   14  H11 UNL     1      21.558   2.577  50.033  1.00  0.00     0.160 HD
BRANCH  13  15
HETATM   15  C10 UNL     1      21.268   3.436  51.964  1.00  0.00     0.147 C 
BRANCH  15  16
HETATM   16  C11 UNL     1      21.055   4.749  51.343  1.00  0.00     0.000 C 
BRANCH  16  17
HETATM   17  C12 UNL     1      22.076   5.570  51.126  1.00  0.00     0.162 C 
HETATM   18 BR1  UNL     1      23.705   6.548  50.971  1.00  0.00    -0.172 Br
ENDBRANCH  16  17
ENDBRANCH  15  16
ENDBRANCH  13  15
ENDBRANCH   4  13
BRANCH   1  19
HETATM   19  N2  UNL     1      26.420   4.035  50.901  1.00  0.00    -0.321 N 
HETATM   20  C5  UNL     1      26.768   3.743  49.527  1.00  0.00     0.245 C 
HETATM   21  O1  UNL     1      26.340   2.535  49.443  1.00  0.00    -0.268 OA
HETATM   22  H9  UNL     1      26.604   4.959  51.390  1.00  0.00     0.169 HD
BRANCH  20  23
HETATM   23  C4  UNL     1      27.415   4.741  48.719  1.00  0.00     0.072 C 
HETATM   24  C3  UNL     1      27.461   5.989  48.344  1.00  0.00     0.008 C 
BRANCH  24  25
HETATM   25  C2  UNL     1      26.741   7.234  48.606  1.00  0.00     0.296 C 
BRANCH  25  26
HETATM   26  N1  UNL     1      27.146   7.754  49.906  1.00  0.00     0.082 N 
HETATM   27  C1  UNL     1      26.746   9.148  50.044  1.00  0.00     0.307 C 
HETATM   28  H4  UNL     1      28.170   7.707  49.984  1.00  0.00     0.315 HD
ENDBRANCH  25  26
ENDBRANCH  24  25
ENDBRANCH  20  23
ENDBRANCH   1  19
BRANCH  12  29
HETATM   29  O2  UNL     1      27.924   2.125  52.321  1.00  0.00    -0.354 OA
HETATM   30  C19 UNL     1      28.519   2.413  53.571  1.00  0.00     0.210 C 
ENDBRANCH  12  29
TORSDOF 9
ENDMDL
MODEL 3
REMARK VINA RESULT:      -7.4      3.021      6.685
REMARK  9 active torsions:
REMARK  status: ('A' for Active; 'I' for Inactive)
REMARK    1  A    between atoms: N1_2  and  C2_3 
REMARK    2  A    between atoms: C2_3  and  C3_4 
REMARK    3  A    between atoms: C4_5  and  C5_6 
REMARK       I    between atoms: C5_6  and  N2_8 
REMARK    4  A    between atoms: N2_8  and  C6_9 
REMARK    5  A    between atoms: C9_12  and  N3_13 
REMARK    6  A    between atoms: N3_13  and  C10_14 
REMARK    7  A    between atoms: C10_14  and  C11_15 
REMARK    8  A    between atoms: C11_15  and  C12_16 
REMARK    9  A    between atoms: C18_25  and  O2_26 
ROOT
HETATM    1  C6  UNL     1      25.350   1.172  52.565  1.00  0.00     0.069 A 
HETATM    2  C7  UNL     1      25.315   2.436  52.018  1.00  0.00     0.048 A 
HETATM    3  C8  UNL     1      24.149   3.152  51.856  1.00  0.00     0.023 A 
HETATM    4  C9  UNL     1      24.075   4.434  51.310  1.00  0.00     0.063 A 
HETATM    5  C13 UNL     1      22.854   5.060  51.198  1.00  0.00     0.089 A 
HETATM    6  C14 UNL     1      22.874   6.373  50.627  1.00  0.00     0.103 C 
HETATM    7  N4  UNL     1      22.910   7.448  50.153  1.00  0.00    -0.191 NA
HETATM    8  C15 UNL     1      21.695   4.443  51.616  1.00  0.00     0.142 A 
HETATM    9  N5  UNL     1      21.749   3.194  52.151  1.00  0.00    -0.259 NA
HETATM   10  C16 UNL     1      22.950   2.563  52.268  1.00  0.00     0.071 A 
HETATM   11  C17 UNL     1      22.991   1.291  52.817  1.00  0.00     0.071 A 
HETATM   12  C18 UNL     1      24.171   0.576  52.976  1.00  0.00     0.097 A 
ENDROOT
BRANCH   4  13
HETATM   13  N3  UNL     1      25.351   4.928  50.924  1.00  0.00    -0.384 N 
HETATM   14  H11 UNL     1      26.121   5.393  51.411  1.00  0.00     0.160 HD
BRANCH  13  15
HETATM   15  C10 UNL     1      25.530   4.676  49.490  1.00  0.00     0.147 C 
BRANCH  15  16
HETATM   16  C11 UNL     1      26.883   4.230  49.140  1.00  0.00     0.000 C 
BRANCH  16  17
HETATM   17  C12 UNL     1      27.775   5.085  48.652  1.00  0.00     0.162 C 
HETATM   18 BR1  UNL     1      29.263   6.113  48.050  1.00  0.00    -0.172 Br
ENDBRANCH  16  17
ENDBRANCH  15  16
ENDBRANCH  13  15
ENDBRANCH   4  13
BRANCH   1  19
HETATM   19  N2  UNL     1      26.601   0.486  52.707  1.00  0.00    -0.321 N 
HETATM   20  C5  UNL     1      27.225   0.896  53.947  1.00  0.00     0.245 C 
HETATM   21  O1  UNL     1      26.340   1.720  54.378  1.00  0.00    -0.268 OA
HETATM   22  H9  UNL     1      27.014  -0.211  52.021  1.00  0.00     0.169 HD
BRANCH  20  23
HETATM   23  C4  UNL     1      28.499   0.350  54.327  1.00  0.00     0.072 C 
HETATM   24  C3  UNL     1      29.443  -0.512  54.074  1.00  0.00     0.008 C 
BRANCH  24  25
HETATM   25  C2  UNL     1      29.734  -1.555  53.092  1.00  0.00     0.296 C 
BRANCH  25  26
HETATM   26  N1  UNL     1      28.936  -2.735  53.399  1.00  0.00     0.082 N 
HETATM   27  C1  UNL     1      27.670  -2.695  52.679  1.00  0.00     0.307 C 
HETATM   28  H4  UNL     1      28.729  -2.750  54.406  1.00  0.00     0.315 HD
ENDBRANCH  25  26
ENDBRANCH  24  25
ENDBRANCH  20  23
ENDBRANCH   1  19
BRANCH  12  29
HETATM   29  O2  UNL     1      24.188  -0.707  53.534  1.00  0.00    -0.354 OA
HETATM   30  C19 UNL     1      24.074  -0.923  54.926  1.00  0.00     0.210 C 
ENDBRANCH  12  29
TORSDOF 9
ENDMDL
MODEL 4
REMARK VINA RESULT:      -7.2      2.598      4.355
REMARK  9 active torsions:
REMARK  status: ('A' for Active; 'I' for Inactive)
REMARK    1  A    between atoms: N1_2  and  C2_3 
REMARK    2  A    between atoms: C2_3  and  C3_4 
REMARK    3  A    between atoms: C4_5  and  C5_6 
REMARK       I    between atoms: C5_6  and  N2_8 
REMARK    4  A    between atoms: N2_8  and  C6_9 
REMARK    5  A    between atoms: C9_12  and  N3_13 
REMARK    6  A    between atoms: N3_13  and  C10_14 
REMARK    7  A    between atoms: C10_14  and  C11_15 
REMARK    8  A    between atoms: C11_15  and  C12_16 
REMARK    9  A    between atoms: C18_25  and  O2_26 
ROOT
HETATM    1  C6  UNL     1      26.133   1.676  51.885  1.00  0.00     0.069 A 
HETATM    2  C7  UNL     1      24.880   1.123  52.031  1.00  0.00     0.048 A 
HETATM    3  C8  UNL     1      24.531   0.326  53.099  1.00  0.00     0.023 A 
HETATM    4  C9  UNL     1      23.272  -0.248  53.283  1.00  0.00     0.063 A 
HETATM    5  C13 UNL     1      23.031  -1.027  54.391  1.00  0.00     0.089 A 
HETATM    6  C14 UNL     1      21.711  -1.573  54.497  1.00  0.00     0.103 C 
HETATM    7  N4  UNL     1      20.625  -2.016  54.564  1.00  0.00    -0.191 NA
HETATM    8  C15 UNL     1      24.013  -1.255  55.331  1.00  0.00     0.142 A 
HETATM    9  N5  UNL     1      25.245  -0.703  55.168  1.00  0.00    -0.259 NA
HETATM   10  C16 UNL     1      25.497   0.070  54.076  1.00  0.00     0.071 A 
HETATM   11  C17 UNL     1      26.757   0.629  53.924  1.00  0.00     0.071 A 
HETATM   12  C18 UNL     1      27.100   1.430  52.843  1.00  0.00     0.097 A 
ENDROOT
BRANCH   4  13
HETATM   13  N3  UNL     1      22.376   0.076  52.228  1.00  0.00    -0.384 N 
HETATM   14  H11 UNL     1      22.217  -0.281  51.282  1.00  0.00     0.160 HD
BRANCH  13  15
HETATM   15  C10 UNL     1      21.518   1.179  52.671  1.00  0.00     0.147 C 
BRANCH  15  16
HETATM   16  C11 UNL     1      21.088   2.061  51.579  1.00  0.00     0.000 C 
BRANCH  16  17
HETATM   17  C12 UNL     1      21.754   2.093  50.431  1.00  0.00     0.162 C 
HETATM   18 BR1  UNL     1      22.608   2.426  48.759  1.00  0.00    -0.172 Br
ENDBRANCH  16  17
ENDBRANCH  15  16
ENDBRANCH  13  15
ENDBRANCH   4  13
BRANCH   1  19
HETATM   19  N2  UNL     1      26.426   2.499  50.749  1.00  0.00    -0.321 N 
HETATM   20  C5  UNL     1      25.591   3.680  50.795  1.00  0.00     0.245 C 
HETATM   21  O1  UNL     1      24.940   3.448  51.877  1.00  0.00    -0.268 OA
HETATM   22  H9  UNL     1      27.138   2.289  49.990  1.00  0.00     0.169 HD
BRANCH  20  23
HETATM   23  C4  UNL     1      25.690   4.674  49.761  1.00  0.00     0.072 C 
HETATM   24  C3  UNL     1      25.571   5.930  49.431  1.00  0.00     0.008 C 
BRANCH  24  25
HETATM   25  C2  UNL     1      25.209   7.196  50.066  1.00  0.00     0.296 C 
BRANCH  25  26
HETATM   26  N1  UNL     1      26.371   7.727  50.767  1.00  0.00     0.082 N 
HETATM   27  C1  UNL     1      26.917   8.874  50.053  1.00  0.00     0.307 C 
HETATM   28  H4  UNL     1      27.099   7.002  50.811  1.00  0.00     0.315 HD
ENDBRANCH  25  26
ENDBRANCH  24  25
ENDBRANCH  20  23
ENDBRANCH   1  19
BRANCH  12  29
HETATM   29  O2  UNL     1      28.379   1.984  52.711  1.00  0.00    -0.354 OA
HETATM   30  C19 UNL     1      29.146   2.382  53.830  1.00  0.00     0.210 C 
ENDBRANCH  12  29
TORSDOF 9
ENDMDL
MODEL 5
REMARK VINA RESULT:      -7.2      3.000      4.542
REMARK  9 active torsions:
REMARK  status: ('A' for Active; 'I' for Inactive)
REMARK    1  A    between atoms: N1_2  and  C2_3 
REMARK    2  A    between atoms: C2_3  and  C3_4 
REMARK    3  A    between atoms: C4_5  and  C5_6 
REMARK       I    between atoms: C5_6  and  N2_8 
REMARK    4  A    between atoms: N2_8  and  C6_9 
REMARK    5  A    between atoms: C9_12  and  N3_13 
REMARK    6  A    between atoms: N3_13  and  C10_14 
REMARK    7  A    between atoms: C10_14  and  C11_15 
REMARK    8  A    between atoms: C11_15  and  C12_16 
REMARK    9  A    between atoms: C18_25  and  O2_26 
ROOT
HETATM    1  C6  UNL     1      25.666   2.750  51.888  1.00  0.00     0.069 A 
HETATM    2  C7  UNL     1      24.338   2.385  51.904  1.00  0.00     0.048 A 
HETATM    3  C8  UNL     1      23.867   1.297  52.608  1.00  0.00     0.023 A 
HETATM    4  C9  UNL     1      22.531   0.899  52.650  1.00  0.00     0.063 A 
HETATM    5  C13 UNL     1      22.169  -0.205  53.389  1.00  0.00     0.089 A 
HETATM    6  C14 UNL     1      20.776  -0.538  53.375  1.00  0.00     0.103 C 
HETATM    7  N4  UNL     1      19.631  -0.799  53.349  1.00  0.00    -0.191 NA
HETATM    8  C15 UNL     1      23.106  -0.930  54.093  1.00  0.00     0.142 A 
HETATM    9  N5  UNL     1      24.413  -0.555  54.063  1.00  0.00    -0.259 NA
HETATM   10  C16 UNL     1      24.784   0.534  53.336  1.00  0.00     0.071 A 
HETATM   11  C17 UNL     1      26.119   0.907  53.316  1.00  0.00     0.071 A 
HETATM   12  C18 UNL     1      26.585   2.004  52.604  1.00  0.00     0.097 A 
ENDROOT
BRANCH   4  13
HETATM   13  N3  UNL     1      21.694   1.743  51.870  1.00  0.00    -0.384 N 
HETATM   14  H11 UNL     1      21.214   2.631  52.034  1.00  0.00     0.160 HD
BRANCH  13  15
HETATM   15  C10 UNL     1      21.527   1.135  50.546  1.00  0.00     0.147 C 
BRANCH  15  16
HETATM   16  C11 UNL     1      20.290   1.539  49.868  1.00  0.00     0.000 C 
BRANCH  16  17
HETATM   17  C12 UNL     1      19.127   0.988  50.194  1.00  0.00     0.162 C 
HETATM   18 BR1  UNL     1      17.461   0.079  50.380  1.00  0.00    -0.172 Br
ENDBRANCH  16  17
ENDBRANCH  15  16
ENDBRANCH  13  15
ENDBRANCH   4  13
BRANCH   1  19
HETATM   19  N2  UNL     1      26.086   3.897  51.137  1.00  0.00    -0.321 N 
HETATM   20  C5  UNL     1      26.603   3.458  49.858  1.00  0.00     0.245 C 
HETATM   21  O1  UNL     1      26.445   2.190  49.979  1.00  0.00    -0.268 OA
HETATM   22  H9  UNL     1      26.031   4.907  51.455  1.00  0.00     0.169 HD
BRANCH  20  23
HETATM   23  C4  UNL     1      27.095   4.421  48.911  1.00  0.00     0.072 C 
HETATM   24  C3  UNL     1      27.148   5.671  48.544  1.00  0.00     0.008 C 
BRANCH  24  25
HETATM   25  C2  UNL     1      26.638   6.964  48.996  1.00  0.00     0.296 C 
BRANCH  25  26
HETATM   26  N1  UNL     1      27.753   7.783  49.455  1.00  0.00     0.082 N 
HETATM   27  C1  UNL     1      27.265   8.997  50.094  1.00  0.00     0.307 C 
HETATM   28  H4  UNL     1      28.327   8.056  48.647  1.00  0.00     0.315 HD
ENDBRANCH  25  26
ENDBRANCH  24  25
ENDBRANCH  20  23
ENDBRANCH   1  19
BRANCH  12  29
HETATM   29  O2  UNL     1      27.938   2.361  52.599  1.00  0.00    -0.354 OA
HETATM   30  C19 UNL     1      28.758   2.218  53.742  1.00  0.00     0.210 C 
ENDBRANCH  12  29
TORSDOF 9
ENDMDL
MODEL 6
REMARK VINA RESULT:      -7.1      2.738      6.056
REMARK  9 active torsions:
REMARK  status: ('A' for Active; 'I' for Inactive)
REMARK    1  A    between atoms: N1_2  and  C2_3 
REMARK    2  A    between atoms: C2_3  and  C3_4 
REMARK    3  A    between atoms: C4_5  and  C5_6 
REMARK       I    between atoms: C5_6  and  N2_8 
REMARK    4  A    between atoms: N2_8  and  C6_9 
REMARK    5  A    between atoms: C9_12  and  N3_13 
REMARK    6  A    between atoms: N3_13  and  C10_14 
REMARK    7  A    between atoms: C10_14  and  C11_15 
REMARK    8  A    between atoms: C11_15  and  C12_16 
REMARK    9  A    between atoms: C18_25  and  O2_26 
ROOT
HETATM    1  C6  UNL     1      24.145   0.834  53.412  1.00  0.00     0.069 A 
HETATM    2  C7  UNL     1      24.234   2.090  52.855  1.00  0.00     0.048 A 
HETATM    3  C8  UNL     1      23.143   2.770  52.358  1.00  0.00     0.023 A 
HETATM    4  C9  UNL     1      23.195   4.044  51.790  1.00  0.00     0.063 A 
HETATM    5  C13 UNL     1      22.040   4.633  51.327  1.00  0.00     0.089 A 
HETATM    6  C14 UNL     1      22.188   5.940  50.761  1.00  0.00     0.103 C 
HETATM    7  N4  UNL     1      22.329   7.011  50.296  1.00  0.00    -0.191 NA
HETATM    8  C15 UNL     1      20.826   3.987  51.413  1.00  0.00     0.142 A 
HETATM    9  N5  UNL     1      20.757   2.746  51.964  1.00  0.00    -0.259 NA
HETATM   10  C16 UNL     1      21.892   2.152  52.426  1.00  0.00     0.071 A 
HETATM   11  C17 UNL     1      21.808   0.887  52.988  1.00  0.00     0.071 A 
HETATM   12  C18 UNL     1      22.913   0.208  53.485  1.00  0.00     0.097 A 
ENDROOT
BRANCH   4  13
HETATM   13  N3  UNL     1      24.515   4.570  51.769  1.00  0.00    -0.384 N 
HETATM   14  H11 UNL     1      25.028   5.252  52.334  1.00  0.00     0.160 HD
BRANCH  13  15
HETATM   15  C10 UNL     1      25.245   3.947  50.661  1.00  0.00     0.147 C 
BRANCH  15  16
HETATM   16  C11 UNL     1      25.353   4.805  49.475  1.00  0.00     0.000 C 
BRANCH  16  17
HETATM   17  C12 UNL     1      26.536   5.252  49.067  1.00  0.00     0.162 C 
HETATM   18 BR1  UNL     1      28.073   6.071  48.292  1.00  0.00    -0.172 Br
ENDBRANCH  16  17
ENDBRANCH  15  16
ENDBRANCH  13  15
ENDBRANCH   4  13
BRANCH   1  19
HETATM   19  N2  UNL     1      25.321   0.185  53.912  1.00  0.00    -0.321 N 
HETATM   20  C5  UNL     1      26.157  -0.202  52.796  1.00  0.00     0.245 C 
HETATM   21  O1  UNL     1      25.439   0.228  51.823  1.00  0.00    -0.268 OA
HETATM   22  H9  UNL     1      25.553   0.012  54.933  1.00  0.00     0.169 HD
BRANCH  20  23
HETATM   23  C4  UNL     1      27.405  -0.877  53.030  1.00  0.00     0.072 C 
HETATM   24  C3  UNL     1      28.660  -0.777  53.368  1.00  0.00     0.008 C 
BRANCH  24  25
HETATM   25  C2  UNL     1      29.607   0.268  53.750  1.00  0.00     0.296 C 
BRANCH  25  26
HETATM   26  N1  UNL     1      28.904   1.295  54.508  1.00  0.00     0.082 N 
HETATM   27  C1  UNL     1      28.698   2.482  53.690  1.00  0.00     0.307 C 
HETATM   28  H4  UNL     1      29.472   1.563  55.322  1.00  0.00     0.315 HD
ENDBRANCH  25  26
ENDBRANCH  24  25
ENDBRANCH  20  23
ENDBRANCH   1  19
BRANCH  12  29
HETATM   29  O2  UNL     1      22.803  -1.068  54.048  1.00  0.00    -0.354 OA
HETATM   30  C19 UNL     1      21.579  -1.567  54.548  1.00  0.00     0.210 C 
ENDBRANCH  12  29
TORSDOF 9
ENDMDL
MODEL 7
REMARK VINA RESULT:      -7.1      3.259      6.863
REMARK  9 active torsions:
REMARK  status: ('A' for Active; 'I' for Inactive)
REMARK    1  A    between atoms: N1_2  and  C2_3 
REMARK    2  A    between atoms: C2_3  and  C3_4 
REMARK    3  A    between atoms: C4_5  and  C5_6 
REMARK       I    between atoms: C5_6  and  N2_8 
REMARK    4  A    between atoms: N2_8  and  C6_9 
REMARK    5  A    between atoms: C9_12  and  N3_13 
REMARK    6  A    between atoms: N3_13  and  C10_14 
REMARK    7  A    between atoms: C10_14  and  C11_15 
REMARK    8  A    between atoms: C11_15  and  C12_16 
REMARK    9  A    between atoms: C18_25  and  O2_26 
ROOT
HETATM    1  C6  UNL     1      22.149   1.879  51.954  1.00  0.00     0.069 A 
HETATM    2  C7  UNL     1      23.082   0.981  52.425  1.00  0.00     0.048 A 
HETATM    3  C8  UNL     1      24.440   1.162  52.277  1.00  0.00     0.023 A 
HETATM    4  C9  UNL     1      25.413   0.277  52.743  1.00  0.00     0.063 A 
HETATM    5  C13 UNL     1      26.745   0.558  52.541  1.00  0.00     0.089 A 
HETATM    6  C14 UNL     1      27.673  -0.405  53.055  1.00  0.00     0.103 C 
HETATM    7  N4  UNL     1      28.418  -1.209  53.479  1.00  0.00    -0.191 NA
HETATM    8  C15 UNL     1      27.142   1.702  51.884  1.00  0.00     0.142 A 
HETATM    9  N5  UNL     1      26.206   2.576  51.424  1.00  0.00    -0.259 NA
HETATM   10  C16 UNL     1      24.885   2.310  51.616  1.00  0.00     0.071 A 
HETATM   11  C17 UNL     1      23.942   3.210  51.143  1.00  0.00     0.071 A 
HETATM   12  C18 UNL     1      22.575   3.020  51.297  1.00  0.00     0.097 A 
ENDROOT
BRANCH   4  13
HETATM   13  N3  UNL     1      24.845  -0.854  53.391  1.00  0.00    -0.384 N 
HETATM   14  H11 UNL     1      24.334  -1.683  53.077  1.00  0.00     0.160 HD
BRANCH  13  15
HETATM   15  C10 UNL     1      25.086  -0.731  54.832  1.00  0.00     0.147 C 
BRANCH  15  16
HETATM   16  C11 UNL     1      23.973  -1.219  55.655  1.00  0.00     0.000 C 
BRANCH  16  17
HETATM   17  C12 UNL     1      22.780  -1.446  55.118  1.00  0.00     0.162 C 
HETATM   18 BR1  UNL     1      21.066  -1.474  54.283  1.00  0.00    -0.172 Br
ENDBRANCH  16  17
ENDBRANCH  15  16
ENDBRANCH  13  15
ENDBRANCH   4  13
BRANCH   1  19
HETATM   19  N2  UNL     1      20.751   1.629  52.147  1.00  0.00    -0.321 N 
HETATM   20  C5  UNL     1      20.289   0.718  51.122  1.00  0.00     0.245 C 
HETATM   21  O1  UNL     1      21.385   0.537  50.477  1.00  0.00    -0.268 OA
HETATM   22  H9  UNL     1      20.143   2.039  52.914  1.00  0.00     0.169 HD
BRANCH  20  23
HETATM   23  C4  UNL     1      18.912   0.306  51.091  1.00  0.00     0.072 C 
HETATM   24  C3  UNL     1      17.935  -0.305  51.701  1.00  0.00     0.008 C 
BRANCH  24  25
HETATM   25  C2  UNL     1      17.708  -1.012  52.960  1.00  0.00     0.296 C 
BRANCH  25  26
HETATM   26  N1  UNL     1      16.277  -1.230  53.132  1.00  0.00     0.082 N 
HETATM   27  C1  UNL     1      15.527  -0.060  52.696  1.00  0.00     0.307 C 
HETATM   28  H4  UNL     1      16.076  -1.385  54.129  1.00  0.00     0.315 HD
ENDBRANCH  25  26
ENDBRANCH  24  25
ENDBRANCH  20  23
ENDBRANCH   1  19
BRANCH  12  29
HETATM   29  O2  UNL     1      21.642   3.942  50.812  1.00  0.00    -0.354 OA
HETATM   30  C19 UNL     1      21.557   5.261  51.314  1.00  0.00     0.210 C 
ENDBRANCH  12  29
TORSDOF 9
ENDMDL
MODEL 8
REMARK VINA RESULT:      -7.1      1.941      2.664
REMARK  9 active torsions:
REMARK  status: ('A' for Active; 'I' for Inactive)
REMARK    1  A    between atoms: N1_2  and  C2_3 
REMARK    2  A    between atoms: C2_3  and  C3_4 
REMARK    3  A    between atoms: C4_5  and  C5_6 
REMARK       I    between atoms: C5_6  and  N2_8 
REMARK    4  A    between atoms: N2_8  and  C6_9 
REMARK    5  A    between atoms: C9_12  and  N3_13 
REMARK    6  A    between atoms: N3_13  and  C10_14 
REMARK    7  A    between atoms: C10_14  and  C11_15 
REMARK    8  A    between atoms: C11_15  and  C12_16 
REMARK    9  A    between atoms: C18_25  and  O2_26 
ROOT
HETATM    1  C6  UNL     1      23.832   3.992  50.567  1.00  0.00     0.069 A 
HETATM    2  C7  UNL     1      24.619   3.450  51.559  1.00  0.00     0.048 A 
HETATM    3  C8  UNL     1      24.374   2.217  52.123  1.00  0.00     0.023 A 
HETATM    4  C9  UNL     1      25.150   1.635  53.126  1.00  0.00     0.063 A 
HETATM    5  C13 UNL     1      24.815   0.394  53.617  1.00  0.00     0.089 A 
HETATM    6  C14 UNL     1      25.669  -0.125  54.643  1.00  0.00     0.103 C 
HETATM    7  N4  UNL     1      26.378  -0.532  55.488  1.00  0.00    -0.191 NA
HETATM    8  C15 UNL     1      23.722  -0.292  53.135  1.00  0.00     0.142 A 
HETATM    9  N5  UNL     1      22.955   0.260  52.157  1.00  0.00    -0.259 NA
HETATM   10  C16 UNL     1      23.275   1.487  51.663  1.00  0.00     0.071 A 
HETATM   11  C17 UNL     1      22.486   2.037  50.664  1.00  0.00     0.071 A 
HETATM   12  C18 UNL     1      22.740   3.281  50.102  1.00  0.00     0.097 A 
ENDROOT
BRANCH   4  13
HETATM   13  N3  UNL     1      26.234   2.468  53.518  1.00  0.00    -0.384 N 
HETATM   14  H11 UNL     1      26.356   3.217  54.204  1.00  0.00     0.160 HD
BRANCH  13  15
HETATM   15  C10 UNL     1      27.406   2.113  52.711  1.00  0.00     0.147 C 
BRANCH  15  16
HETATM   16  C11 UNL     1      28.621   1.899  53.506  1.00  0.00     0.000 C 
BRANCH  16  17
HETATM   17  C12 UNL     1      29.180   0.696  53.579  1.00  0.00     0.162 C 
HETATM   18 BR1  UNL     1      29.701  -1.136  53.652  1.00  0.00    -0.172 Br
ENDBRANCH  16  17
ENDBRANCH  15  16
ENDBRANCH  13  15
ENDBRANCH   4  13
BRANCH   1  19
HETATM   19  N2  UNL     1      24.149   5.280  50.023  1.00  0.00    -0.321 N 
HETATM   20  C5  UNL     1      23.731   6.302  50.959  1.00  0.00     0.245 C 
HETATM   21  O1  UNL     1      23.248   5.564  51.891  1.00  0.00    -0.268 OA
HETATM   22  H9  UNL     1      24.613   5.467  49.088  1.00  0.00     0.169 HD
BRANCH  20  23
HETATM   23  C4  UNL     1      23.935   7.691  50.648  1.00  0.00     0.072 C 
HETATM   24  C3  UNL     1      24.695   8.590  50.088  1.00  0.00     0.008 C 
BRANCH  24  25
HETATM   25  C2  UNL     1      25.960   8.648  49.357  1.00  0.00     0.296 C 
BRANCH  25  26
HETATM   26  N1  UNL     1      26.824   7.567  49.814  1.00  0.00     0.082 N 
HETATM   27  C1  UNL     1      27.462   6.910  48.681  1.00  0.00     0.307 C 
HETATM   28  H4  UNL     1      26.257   6.868  50.311  1.00  0.00     0.315 HD
ENDBRANCH  25  26
ENDBRANCH  24  25
ENDBRANCH  20  23
ENDBRANCH   1  19
BRANCH  12  29
HETATM   29  O2  UNL     1      21.929   3.816  49.095  1.00  0.00    -0.354 OA
HETATM   30  C19 UNL     1      21.257   2.999  48.158  1.00  0.00     0.210 C 
ENDBRANCH  12  29
TORSDOF 9
ENDMDL
MODEL 9
REMARK VINA RESULT:      -6.8      3.191      6.486
REMARK  9 active torsions:
REMARK  status: ('A' for Active; 'I' for Inactive)
REMARK    1  A    between atoms: N1_2  and  C2_3 
REMARK    2  A    between atoms: C2_3  and  C3_4 
REMARK    3  A    between atoms: C4_5  and  C5_6 
REMARK       I    between atoms: C5_6  and  N2_8 
REMARK    4  A    between atoms: N2_8  and  C6_9 
REMARK    5  A    between atoms: C9_12  and  N3_13 
REMARK    6  A    between atoms: N3_13  and  C10_14 
REMARK    7  A    between atoms: C10_14  and  C11_15 
REMARK    8  A    between atoms: C11_15  and  C12_16 
REMARK    9  A    between atoms: C18_25  and  O2_26 
ROOT
HETATM    1  C6  UNL     1      22.199   1.312  51.605  1.00  0.00     0.069 A 
HETATM    2  C7  UNL     1      23.438   1.892  51.763  1.00  0.00     0.048 A 
HETATM    3  C8  UNL     1      24.388   1.409  52.638  1.00  0.00     0.023 A 
HETATM    4  C9  UNL     1      25.653   1.968  52.823  1.00  0.00     0.063 A 
HETATM    5  C13 UNL     1      26.526   1.402  53.723  1.00  0.00     0.089 A 
HETATM    6  C14 UNL     1      27.802   2.041  53.845  1.00  0.00     0.103 C 
HETATM    7  N4  UNL     1      28.841   2.582  53.936  1.00  0.00    -0.191 NA
HETATM    8  C15 UNL     1      26.175   0.286  54.452  1.00  0.00     0.142 A 
HETATM    9  N5  UNL     1      24.946  -0.272  54.284  1.00  0.00    -0.259 NA
HETATM   10  C16 UNL     1      24.073   0.279  53.397  1.00  0.00     0.071 A 
HETATM   11  C17 UNL     1      22.824  -0.301  53.233  1.00  0.00     0.071 A 
HETATM   12  C18 UNL     1      21.873   0.192  52.350  1.00  0.00     0.097 A 
ENDROOT
BRANCH   4  13
HETATM   13  N3  UNL     1      25.859   3.113  52.005  1.00  0.00    -0.384 N 
HETATM   14  H11 UNL     1      25.567   4.093  52.050  1.00  0.00     0.160 HD
BRANCH  13  15
HETATM   15  C10 UNL     1      26.685   2.721  50.859  1.00  0.00     0.147 C 
BRANCH  15  16
HETATM   16  C11 UNL     1      26.281   3.359  49.601  1.00  0.00     0.000 C 
BRANCH  16  17
HETATM   17  C12 UNL     1      26.989   4.359  49.089  1.00  0.00     0.162 C 
HETATM   18 BR1  UNL     1      27.756   5.964  48.400  1.00  0.00    -0.172 Br
ENDBRANCH  16  17
ENDBRANCH  15  16
ENDBRANCH  13  15
ENDBRANCH   4  13
BRANCH   1  19
HETATM   19  N2  UNL     1      21.261   1.865  50.673  1.00  0.00    -0.321 N 
HETATM   20  C5  UNL     1      20.521   2.925  51.324  1.00  0.00     0.245 C 
HETATM   21  O1  UNL     1      21.062   2.890  52.488  1.00  0.00    -0.268 OA
HETATM   22  H9  UNL     1      21.122   1.557  49.668  1.00  0.00     0.169 HD
BRANCH  20  23
HETATM   23  C4  UNL     1      19.509   3.647  50.601  1.00  0.00     0.072 C 
HETATM   24  C3  UNL     1      18.500   3.593  49.777  1.00  0.00     0.008 C 
BRANCH  24  25
HETATM   25  C2  UNL     1      17.751   2.581  49.033  1.00  0.00     0.296 C 
BRANCH  25  26
HETATM   26  N1  UNL     1      18.362   1.276  49.256  1.00  0.00     0.082 N 
HETATM   27  C1  UNL     1      17.575   0.501  50.205  1.00  0.00     0.307 C 
HETATM   28  H4  UNL     1      19.302   1.407  49.652  1.00  0.00     0.315 HD
ENDBRANCH  25  26
ENDBRANCH  24  25
ENDBRANCH  20  23
ENDBRANCH   1  19
BRANCH  12  29
HETATM   29  O2  UNL     1      20.619  -0.410  52.202  1.00  0.00    -0.354 OA
HETATM   30  C19 UNL     1      19.673  -0.447  53.253  1.00  0.00     0.210 C 
ENDBRANCH  12  29
TORSDOF 9
ENDMDL
