MODEL 1
REMARK VINA RESULT:      -8.1      0.000      0.000
REMARK  4 active torsions:
REMARK  status: ('A' for Active; 'I' for Inactive)
REMARK    1  A    between atoms: N2_4  and  C3_5 
REMARK    2  A    between atoms: C4_6  and  C5_7 
REMARK    3  A    between atoms: C7_10  and  N4_11 
REMARK    4  A    between atoms: C17_23  and  N7_24 
ROOT
HETATM    1  C5  UNL     1      25.615   1.857  51.588  1.00  0.00    -0.039 C 
HETATM    2  C6  UNL     1      26.769   1.135  51.617  1.00  0.00     0.125 C 
HETATM    3  N3  UNL     1      26.844  -0.218  52.127  1.00  0.00    -0.247 NA
HETATM    4  C7  UNL     1      26.395  -0.559  53.303  1.00  0.00     0.102 C 
HETATM    5  C8  UNL     1      25.734  -0.360  54.650  1.00  0.00     0.124 C 
HETATM    6  C9  UNL     1      24.375  -0.973  54.698  1.00  0.00     0.096 C 
HETATM    7  N5  UNL     1      23.654  -0.431  53.897  1.00  0.00    -0.277 NA
HETATM    8  C10 UNL     1      22.451  -0.305  53.304  1.00  0.00     0.112 C 
HETATM    9  C11 UNL     1      22.217   0.445  52.207  1.00  0.00    -0.007 C 
HETATM   10  C12 UNL     1      23.113   1.330  51.333  1.00  0.00     0.033 C 
HETATM   11  C13 UNL     1      24.423   1.195  52.068  1.00  0.00     0.044 C 
ENDROOT
BRANCH   1  12
HETATM   12  C4  UNL     1      25.618   3.196  51.071  1.00  0.00     0.027 C 
HETATM   13  C3  UNL     1      26.102   3.561  49.896  1.00  0.00     0.115 C 
BRANCH  13  14
HETATM   14  N2  UNL     1      26.102   4.878  49.389  1.00  0.00    -0.253 N 
HETATM   15  N1  UNL     1      27.279   5.222  48.697  1.00  0.00    -0.178 NA
HETATM   16  C2  UNL     1      27.762   6.390  48.477  1.00  0.00     0.063 C 
HETATM   17  C1  UNL     1      29.038   6.372  47.702  1.00  0.00     0.070 C 
HETATM   18  C17 UNL     1      27.305   7.735  48.838  1.00  0.00     0.294 C 
HETATM   19  C16 UNL     1      26.141   7.711  49.800  1.00  0.00     0.315 C 
HETATM   20  N6  UNL     1      25.013   7.016  49.259  1.00  0.00     0.105 N 
HETATM   21  C14 UNL     1      24.917   5.647  49.656  1.00  0.00     0.421 C 
HETATM   22  C15 UNL     1      24.838   7.242  47.843  1.00  0.00     0.312 C 
BRANCH  18  23
HETATM   23  N7  UNL     1      28.422   8.426  49.442  1.00  0.00     0.090 N 
HETATM   24  H26 UNL     1      29.140   8.645  48.708  1.00  0.00     0.313 HD
HETATM   25  H27 UNL     1      28.877   7.776  50.120  1.00  0.00     0.313 HD
ENDBRANCH  18  23
ENDBRANCH  13  14
ENDBRANCH   1  12
BRANCH   4  26
HETATM   26  N4  UNL     1      26.814  -1.912  53.039  1.00  0.00    -0.387 N 
HETATM   27  H7  UNL     1      27.058  -2.619  52.310  1.00  0.00     0.157 HD
HETATM   28  H8  UNL     1      26.939  -2.453  53.941  1.00  0.00     0.157 HD
ENDBRANCH   4  26
TORSDOF 4
ENDMDL
MODEL 2
REMARK VINA RESULT:      -7.7      4.276      7.466
REMARK  4 active torsions:
REMARK  status: ('A' for Active; 'I' for Inactive)
REMARK    1  A    between atoms: N2_4  and  C3_5 
REMARK    2  A    between atoms: C4_6  and  C5_7 
REMARK    3  A    between atoms: C7_10  and  N4_11 
REMARK    4  A    between atoms: C17_23  and  N7_24 
ROOT
HETATM    1  C5  UNL     1      27.728   6.453  48.471  1.00  0.00    -0.039 C 
HETATM    2  C6  UNL     1      27.436   7.726  48.857  1.00  0.00     0.125 C 
HETATM    3  N3  UNL     1      26.189   8.094  49.493  1.00  0.00    -0.247 NA
HETATM    4  C7  UNL     1      25.021   7.788  48.998  1.00  0.00     0.102 C 
HETATM    5  C8  UNL     1      24.045   7.179  48.015  1.00  0.00     0.124 C 
HETATM    6  C9  UNL     1      23.373   5.971  48.576  1.00  0.00     0.096 C 
HETATM    7  N5  UNL     1      24.191   5.114  48.797  1.00  0.00    -0.277 NA
HETATM    8  C10 UNL     1      24.501   3.877  49.233  1.00  0.00     0.112 C 
HETATM    9  C11 UNL     1      25.759   3.439  49.449  1.00  0.00    -0.007 C 
HETATM   10  C12 UNL     1      27.137   4.093  49.296  1.00  0.00     0.033 C 
HETATM   11  C13 UNL     1      26.735   5.444  48.759  1.00  0.00     0.044 C 
ENDROOT
BRANCH   1  12
HETATM   12  C4  UNL     1      28.986   6.164  47.841  1.00  0.00     0.027 C 
HETATM   13  C3  UNL     1      30.141   6.023  48.468  1.00  0.00     0.115 C 
BRANCH  13  14
HETATM   14  N2  UNL     1      31.375   5.738  47.847  1.00  0.00    -0.253 N 
HETATM   15  N1  UNL     1      31.715   4.372  47.854  1.00  0.00    -0.178 NA
HETATM   16  C2  UNL     1      32.878   3.839  47.753  1.00  0.00     0.063 C 
HETATM   17  C1  UNL     1      32.858   2.347  47.801  1.00  0.00     0.070 C 
HETATM   18  C17 UNL     1      34.219   4.410  47.599  1.00  0.00     0.294 C 
HETATM   19  C16 UNL     1      34.232   5.910  47.772  1.00  0.00     0.315 C 
HETATM   20  N6  UNL     1      33.385   6.567  46.823  1.00  0.00     0.105 N 
HETATM   21  C14 UNL     1      32.077   6.873  47.311  1.00  0.00     0.421 C 
HETATM   22  C15 UNL     1      33.407   5.941  45.521  1.00  0.00     0.312 C 
BRANCH  18  23
HETATM   23  N7  UNL     1      35.069   3.798  48.595  1.00  0.00     0.090 N 
HETATM   24  H26 UNL     1      36.059   3.770  48.245  1.00  0.00     0.313 HD
HETATM   25  H27 UNL     1      34.766   2.806  48.715  1.00  0.00     0.313 HD
ENDBRANCH  18  23
ENDBRANCH  13  14
ENDBRANCH   1  12
BRANCH   4  26
HETATM   26  N4  UNL     1      24.404   8.447  50.120  1.00  0.00    -0.387 N 
HETATM   27  H7  UNL     1      24.553   9.023  50.979  1.00  0.00     0.157 HD
HETATM   28  H8  UNL     1      23.352   8.318  50.105  1.00  0.00     0.157 HD
ENDBRANCH   4  26
TORSDOF 4
ENDMDL
MODEL 3
REMARK VINA RESULT:      -7.4      4.850      7.721
REMARK  4 active torsions:
REMARK  status: ('A' for Active; 'I' for Inactive)
REMARK    1  A    between atoms: N2_4  and  C3_5 
REMARK    2  A    between atoms: C4_6  and  C5_7 
REMARK    3  A    between atoms: C7_10  and  N4_11 
REMARK    4  A    between atoms: C17_23  and  N7_24 
ROOT
HETATM    1  C5  UNL     1      27.552   6.283  48.259  1.00  0.00    -0.039 C 
HETATM    2  C6  UNL     1      27.044   5.136  48.789  1.00  0.00     0.125 C 
HETATM    3  N3  UNL     1      25.656   4.988  49.173  1.00  0.00    -0.247 NA
HETATM    4  C7  UNL     1      25.043   5.830  49.958  1.00  0.00     0.102 C 
HETATM    5  C8  UNL     1      24.888   7.057  50.830  1.00  0.00     0.124 C 
HETATM    6  C9  UNL     1      24.053   8.103  50.172  1.00  0.00     0.096 C 
HETATM    7  N5  UNL     1      24.595   8.484  49.164  1.00  0.00    -0.277 NA
HETATM    8  C10 UNL     1      24.614   9.277  48.075  1.00  0.00     0.112 C 
HETATM    9  C11 UNL     1      25.494   9.154  47.059  1.00  0.00    -0.007 C 
HETATM   10  C12 UNL     1      26.657   8.193  46.791  1.00  0.00     0.033 C 
HETATM   11  C13 UNL     1      26.622   7.371  48.056  1.00  0.00     0.044 C 
ENDROOT
BRANCH   1  12
HETATM   12  C4  UNL     1      28.941   6.358  47.905  1.00  0.00     0.027 C 
HETATM   13  C3  UNL     1      29.833   5.401  48.100  1.00  0.00     0.115 C 
BRANCH  13  14
HETATM   14  N2  UNL     1      31.197   5.477  47.750  1.00  0.00    -0.253 N 
HETATM   15  N1  UNL     1      31.771   4.235  47.420  1.00  0.00    -0.178 NA
HETATM   16  C2  UNL     1      33.007   3.893  47.452  1.00  0.00     0.063 C 
HETATM   17  C1  UNL     1      33.248   2.482  47.030  1.00  0.00     0.070 C 
HETATM   18  C17 UNL     1      34.226   4.618  47.824  1.00  0.00     0.294 C 
HETATM   19  C16 UNL     1      33.931   5.960  48.451  1.00  0.00     0.315 C 
HETATM   20  N6  UNL     1      33.188   6.811  47.571  1.00  0.00     0.105 N 
HETATM   21  C14 UNL     1      31.776   6.793  47.786  1.00  0.00     0.421 C 
HETATM   22  C15 UNL     1      33.585   6.677  46.188  1.00  0.00     0.312 C 
BRANCH  18  23
HETATM   23  N7  UNL     1      34.954   3.793  48.760  1.00  0.00     0.090 N 
HETATM   24  H26 UNL     1      35.971   3.778  48.500  1.00  0.00     0.313 HD
HETATM   25  H27 UNL     1      34.608   2.813  48.667  1.00  0.00     0.313 HD
ENDBRANCH  18  23
ENDBRANCH  13  14
ENDBRANCH   1  12
BRANCH   4  26
HETATM   26  N4  UNL     1      23.849   5.034  49.832  1.00  0.00    -0.387 N 
HETATM   27  H7  UNL     1      23.406   4.195  49.394  1.00  0.00     0.157 HD
HETATM   28  H8  UNL     1      23.061   5.435  50.416  1.00  0.00     0.157 HD
ENDBRANCH   4  26
TORSDOF 4
ENDMDL
MODEL 4
REMARK VINA RESULT:      -7.4      0.999      2.235
REMARK  4 active torsions:
REMARK  status: ('A' for Active; 'I' for Inactive)
REMARK    1  A    between atoms: N2_4  and  C3_5 
REMARK    2  A    between atoms: C4_6  and  C5_7 
REMARK    3  A    between atoms: C7_10  and  N4_11 
REMARK    4  A    between atoms: C17_23  and  N7_24 
ROOT
HETATM    1  C5  UNL     1      25.530   2.044  51.610  1.00  0.00    -0.039 C 
HETATM    2  C6  UNL     1      26.703   1.353  51.648  1.00  0.00     0.125 C 
HETATM    3  N3  UNL     1      26.796  -0.025  52.082  1.00  0.00    -0.247 NA
HETATM    4  C7  UNL     1      26.307  -0.447  53.214  1.00  0.00     0.102 C 
HETATM    5  C8  UNL     1      25.584  -0.347  54.540  1.00  0.00     0.124 C 
HETATM    6  C9  UNL     1      24.242  -0.998  54.492  1.00  0.00     0.096 C 
HETATM    7  N5  UNL     1      23.541  -0.429  53.692  1.00  0.00    -0.277 NA
HETATM    8  C10 UNL     1      22.361  -0.301  53.054  1.00  0.00     0.112 C 
HETATM    9  C11 UNL     1      22.152   0.507  51.994  1.00  0.00    -0.007 C 
HETATM   10  C12 UNL     1      23.058   1.466  51.213  1.00  0.00     0.033 C 
HETATM   11  C13 UNL     1      24.339   1.323  51.997  1.00  0.00     0.044 C 
ENDROOT
BRANCH   1  12
HETATM   12  C4  UNL     1      25.516   3.411  51.172  1.00  0.00     0.027 C 
HETATM   13  C3  UNL     1      26.112   3.873  50.086  1.00  0.00     0.115 C 
BRANCH  13  14
HETATM   14  N2  UNL     1      26.095   5.217  49.657  1.00  0.00    -0.253 N 
HETATM   15  N1  UNL     1      25.134   6.011  50.310  1.00  0.00    -0.178 NA
HETATM   16  C2  UNL     1      24.594   7.104  49.906  1.00  0.00     0.063 C 
HETATM   17  C1  UNL     1      23.607   7.674  50.869  1.00  0.00     0.070 C 
HETATM   18  C17 UNL     1      24.760   7.898  48.685  1.00  0.00     0.294 C 
HETATM   19  C16 UNL     1      25.593   7.189  47.643  1.00  0.00     0.315 C 
HETATM   20  N6  UNL     1      26.905   6.881  48.125  1.00  0.00     0.105 N 
HETATM   21  C14 UNL     1      27.051   5.555  48.637  1.00  0.00     0.421 C 
HETATM   22  C15 UNL     1      27.450   7.915  48.975  1.00  0.00     0.312 C 
BRANCH  18  23
HETATM   23  N7  UNL     1      23.441   8.162  48.156  1.00  0.00     0.090 N 
HETATM   24  H26 UNL     1      23.116   9.108  48.476  1.00  0.00     0.313 HD
HETATM   25  H27 UNL     1      22.781   7.465  48.567  1.00  0.00     0.313 HD
ENDBRANCH  18  23
ENDBRANCH  13  14
ENDBRANCH   1  12
BRANCH   4  26
HETATM   26  N4  UNL     1      26.776  -1.771  52.891  1.00  0.00    -0.387 N 
HETATM   27  H7  UNL     1      27.458  -2.530  53.116  1.00  0.00     0.157 HD
HETATM   28  H8  UNL     1      26.220  -2.186  52.090  1.00  0.00     0.157 HD
ENDBRANCH   4  26
TORSDOF 4
ENDMDL
MODEL 5
REMARK VINA RESULT:      -7.2      2.568      3.261
REMARK  4 active torsions:
REMARK  status: ('A' for Active; 'I' for Inactive)
REMARK    1  A    between atoms: N2_4  and  C3_5 
REMARK    2  A    between atoms: C4_6  and  C5_7 
REMARK    3  A    between atoms: C7_10  and  N4_11 
REMARK    4  A    between atoms: C17_23  and  N7_24 
ROOT
HETATM    1  C5  UNL     1      24.304   1.226  52.158  1.00  0.00    -0.039 C 
HETATM    2  C6  UNL     1      25.589   0.895  51.853  1.00  0.00     0.125 C 
HETATM    3  N3  UNL     1      26.269  -0.248  52.425  1.00  0.00    -0.247 NA
HETATM    4  C7  UNL     1      26.332  -0.466  53.709  1.00  0.00     0.102 C 
HETATM    5  C8  UNL     1      26.072  -0.208  55.178  1.00  0.00     0.124 C 
HETATM    6  C9  UNL     1      25.082  -1.171  55.744  1.00  0.00     0.096 C 
HETATM    7  N5  UNL     1      24.018  -1.033  55.195  1.00  0.00    -0.277 NA
HETATM    8  C10 UNL     1      22.727  -1.386  55.042  1.00  0.00     0.112 C 
HETATM    9  C11 UNL     1      21.938  -0.969  54.030  1.00  0.00    -0.007 C 
HETATM   10  C12 UNL     1      22.176  -0.052  52.825  1.00  0.00     0.033 C 
HETATM   11  C13 UNL     1      23.608   0.352  53.075  1.00  0.00     0.044 C 
ENDROOT
BRANCH   1  12
HETATM   12  C4  UNL     1      23.695   2.378  51.553  1.00  0.00     0.027 C 
HETATM   13  C3  UNL     1      24.108   2.966  50.443  1.00  0.00     0.115 C 
BRANCH  13  14
HETATM   14  N2  UNL     1      23.508   4.097  49.850  1.00  0.00    -0.253 N 
HETATM   15  N1  UNL     1      23.978   5.323  50.357  1.00  0.00    -0.178 NA
HETATM   16  C2  UNL     1      23.396   6.467  50.344  1.00  0.00     0.063 C 
HETATM   17  C1  UNL     1      24.200   7.553  50.977  1.00  0.00     0.070 C 
HETATM   18  C17 UNL     1      22.098   6.912  49.830  1.00  0.00     0.294 C 
HETATM   19  C16 UNL     1      21.222   5.761  49.397  1.00  0.00     0.315 C 
HETATM   20  N6  UNL     1      21.836   4.979  48.367  1.00  0.00     0.105 N 
HETATM   21  C14 UNL     1      22.526   3.819  48.836  1.00  0.00     0.421 C 
HETATM   22  C15 UNL     1      22.582   5.778  47.421  1.00  0.00     0.312 C 
BRANCH  18  23
HETATM   23  N7  UNL     1      21.443   7.652  50.885  1.00  0.00     0.090 N 
HETATM   24  H26 UNL     1      20.738   7.036  51.362  1.00  0.00     0.313 HD
HETATM   25  H27 UNL     1      20.908   8.435  50.449  1.00  0.00     0.313 HD
ENDBRANCH  18  23
ENDBRANCH  13  14
ENDBRANCH   1  12
BRANCH   4  26
HETATM   26  N4  UNL     1      27.090  -1.661  53.440  1.00  0.00    -0.387 N 
HETATM   27  H7  UNL     1      27.172  -2.692  53.593  1.00  0.00     0.157 HD
HETATM   28  H8  UNL     1      27.931  -1.448  52.831  1.00  0.00     0.157 HD
ENDBRANCH   4  26
TORSDOF 4
ENDMDL
MODEL 6
REMARK VINA RESULT:      -7.2      1.690      2.402
REMARK  4 active torsions:
REMARK  status: ('A' for Active; 'I' for Inactive)
REMARK    1  A    between atoms: N2_4  and  C3_5 
REMARK    2  A    between atoms: C4_6  and  C5_7 
REMARK    3  A    between atoms: C7_10  and  N4_11 
REMARK    4  A    between atoms: C17_23  and  N7_24 
ROOT
HETATM    1  C5  UNL     1      24.130   2.696  50.712  1.00  0.00    -0.039 C 
HETATM    2  C6  UNL     1      24.900   2.071  51.645  1.00  0.00     0.125 C 
HETATM    3  N3  UNL     1      24.512   0.837  52.295  1.00  0.00    -0.247 NA
HETATM    4  C7  UNL     1      23.360   0.677  52.884  1.00  0.00     0.102 C 
HETATM    5  C8  UNL     1      21.975   1.062  53.356  1.00  0.00     0.124 C 
HETATM    6  C9  UNL     1      20.909   0.375  52.571  1.00  0.00     0.096 C 
HETATM    7  N5  UNL     1      20.967   0.717  51.416  1.00  0.00    -0.277 NA
HETATM    8  C10 UNL     1      20.504   0.653  50.152  1.00  0.00     0.112 C 
HETATM    9  C11 UNL     1      21.134   1.183  49.082  1.00  0.00    -0.007 C 
HETATM   10  C12 UNL     1      22.444   1.960  48.917  1.00  0.00     0.033 C 
HETATM   11  C13 UNL     1      22.888   2.047  50.356  1.00  0.00     0.044 C 
ENDROOT
BRANCH   1  12
HETATM   12  C4  UNL     1      24.578   3.921  50.112  1.00  0.00     0.027 C 
HETATM   13  C3  UNL     1      25.816   4.173  49.723  1.00  0.00     0.115 C 
BRANCH  13  14
HETATM   14  N2  UNL     1      26.254   5.377  49.133  1.00  0.00    -0.253 N 
HETATM   15  N1  UNL     1      27.561   5.316  48.613  1.00  0.00    -0.178 NA
HETATM   16  C2  UNL     1      28.378   6.280  48.392  1.00  0.00     0.063 C 
HETATM   17  C1  UNL     1      29.688   5.837  47.833  1.00  0.00     0.070 C 
HETATM   18  C17 UNL     1      28.273   7.730  48.583  1.00  0.00     0.294 C 
HETATM   19  C16 UNL     1      27.032   8.125  49.348  1.00  0.00     0.315 C 
HETATM   20  N6  UNL     1      25.837   7.701  48.684  1.00  0.00     0.105 N 
HETATM   21  C14 UNL     1      25.307   6.460  49.154  1.00  0.00     0.421 C 
HETATM   22  C15 UNL     1      25.922   7.808  47.245  1.00  0.00     0.312 C 
BRANCH  18  23
HETATM   23  N7  UNL     1      29.448   8.159  49.307  1.00  0.00     0.090 N 
HETATM   24  H26 UNL     1      29.904   7.330  49.762  1.00  0.00     0.313 HD
HETATM   25  H27 UNL     1      29.141   8.791  50.079  1.00  0.00     0.313 HD
ENDBRANCH  18  23
ENDBRANCH  13  14
ENDBRANCH   1  12
BRANCH   4  26
HETATM   26  N4  UNL     1      23.750  -0.669  53.218  1.00  0.00    -0.387 N 
HETATM   27  H7  UNL     1      23.433  -1.611  53.542  1.00  0.00     0.157 HD
HETATM   28  H8  UNL     1      24.794  -0.803  53.097  1.00  0.00     0.157 HD
ENDBRANCH   4  26
TORSDOF 4
ENDMDL
MODEL 7
REMARK VINA RESULT:      -7.0      2.230      3.482
REMARK  4 active torsions:
REMARK  status: ('A' for Active; 'I' for Inactive)
REMARK    1  A    between atoms: N2_4  and  C3_5 
REMARK    2  A    between atoms: C4_6  and  C5_7 
REMARK    3  A    between atoms: C7_10  and  N4_11 
REMARK    4  A    between atoms: C17_23  and  N7_24 
ROOT
HETATM    1  C5  UNL     1      24.748   1.373  51.791  1.00  0.00    -0.039 C 
HETATM    2  C6  UNL     1      26.027   0.944  51.601  1.00  0.00     0.125 C 
HETATM    3  N3  UNL     1      26.570  -0.233  52.244  1.00  0.00    -0.247 NA
HETATM    4  C7  UNL     1      26.508  -0.432  53.531  1.00  0.00     0.102 C 
HETATM    5  C8  UNL     1      26.145  -0.129  54.969  1.00  0.00     0.124 C 
HETATM    6  C9  UNL     1      25.043  -1.007  55.460  1.00  0.00     0.096 C 
HETATM    7  N5  UNL     1      24.042  -0.804  54.820  1.00  0.00    -0.277 NA
HETATM    8  C10 UNL     1      22.746  -1.065  54.562  1.00  0.00     0.112 C 
HETATM    9  C11 UNL     1      22.078  -0.611  53.480  1.00  0.00    -0.007 C 
HETATM   10  C12 UNL     1      22.484   0.264  52.290  1.00  0.00     0.033 C 
HETATM   11  C13 UNL     1      23.915   0.568  52.656  1.00  0.00     0.044 C 
ENDROOT
BRANCH   1  12
HETATM   12  C4  UNL     1      24.279   2.554  51.122  1.00  0.00     0.027 C 
HETATM   13  C3  UNL     1      24.225   3.763  51.653  1.00  0.00     0.115 C 
BRANCH  13  14
HETATM   14  N2  UNL     1      23.764   4.922  50.992  1.00  0.00    -0.253 N 
HETATM   15  N1  UNL     1      22.366   4.976  50.845  1.00  0.00    -0.178 NA
HETATM   16  C2  UNL     1      21.679   5.637  49.986  1.00  0.00     0.063 C 
HETATM   17  C1  UNL     1      20.205   5.453  50.130  1.00  0.00     0.070 C 
HETATM   18  C17 UNL     1      22.061   6.538  48.894  1.00  0.00     0.294 C 
HETATM   19  C16 UNL     1      23.549   6.533  48.635  1.00  0.00     0.315 C 
HETATM   20  N6  UNL     1      24.295   6.933  49.790  1.00  0.00     0.105 N 
HETATM   21  C14 UNL     1      24.784   5.850  50.583  1.00  0.00     0.421 C 
HETATM   22  C15 UNL     1      23.647   7.982  50.544  1.00  0.00     0.312 C 
BRANCH  18  23
HETATM   23  N7  UNL     1      21.359   6.103  47.708  1.00  0.00     0.090 N 
HETATM   24  H26 UNL     1      20.386   5.804  47.963  1.00  0.00     0.313 HD
HETATM   25  H27 UNL     1      21.844   5.257  47.335  1.00  0.00     0.313 HD
ENDBRANCH  18  23
ENDBRANCH  13  14
ENDBRANCH   1  12
BRANCH   4  26
HETATM   26  N4  UNL     1      27.197  -1.683  53.343  1.00  0.00    -0.387 N 
HETATM   27  H7  UNL     1      27.190  -2.714  53.515  1.00  0.00     0.157 HD
HETATM   28  H8  UNL     1      28.100  -1.543  52.806  1.00  0.00     0.157 HD
ENDBRANCH   4  26
TORSDOF 4
ENDMDL
MODEL 8
REMARK VINA RESULT:      -6.8      1.759      2.462
REMARK  4 active torsions:
REMARK  status: ('A' for Active; 'I' for Inactive)
REMARK    1  A    between atoms: N2_4  and  C3_5 
REMARK    2  A    between atoms: C4_6  and  C5_7 
REMARK    3  A    between atoms: C7_10  and  N4_11 
REMARK    4  A    between atoms: C17_23  and  N7_24 
ROOT
HETATM    1  C5  UNL     1      25.687   3.427  50.155  1.00  0.00    -0.039 C 
HETATM    2  C6  UNL     1      26.633   2.707  50.820  1.00  0.00     0.125 C 
HETATM    3  N3  UNL     1      26.348   1.460  51.497  1.00  0.00    -0.247 NA
HETATM    4  C7  UNL     1      25.384   1.327  52.365  1.00  0.00     0.102 C 
HETATM    5  C8  UNL     1      24.202   1.758  53.207  1.00  0.00     0.124 C 
HETATM    6  C9  UNL     1      22.923   1.177  52.707  1.00  0.00     0.096 C 
HETATM    7  N5  UNL     1      22.697   1.584  51.594  1.00  0.00    -0.277 NA
HETATM    8  C10 UNL     1      21.913   1.620  50.499  1.00  0.00     0.112 C 
HETATM    9  C11 UNL     1      22.272   2.177  49.323  1.00  0.00    -0.007 C 
HETATM   10  C12 UNL     1      23.541   2.891  48.847  1.00  0.00     0.033 C 
HETATM   11  C13 UNL     1      24.355   2.869  50.117  1.00  0.00     0.044 C 
ENDROOT
BRANCH   1  12
HETATM   12  C4  UNL     1      26.044   4.659  49.510  1.00  0.00     0.027 C 
HETATM   13  C3  UNL     1      25.572   5.853  49.827  1.00  0.00     0.115 C 
BRANCH  13  14
HETATM   14  N2  UNL     1      25.925   7.062  49.192  1.00  0.00    -0.253 N 
HETATM   15  N1  UNL     1      27.301   7.183  48.919  1.00  0.00    -0.178 NA
HETATM   16  C2  UNL     1      27.988   8.252  48.738  1.00  0.00     0.063 C 
HETATM   17  C1  UNL     1      29.433   7.995  48.469  1.00  0.00     0.070 C 
HETATM   18  C17 UNL     1      27.628   9.673  48.744  1.00  0.00     0.294 C 
HETATM   19  C16 UNL     1      26.218   9.910  49.231  1.00  0.00     0.315 C 
HETATM   20  N6  UNL     1      25.251   9.236  48.420  1.00  0.00     0.105 N 
HETATM   21  C14 UNL     1      24.837   7.965  48.927  1.00  0.00     0.421 C 
HETATM   22  C15 UNL     1      25.591   9.238  47.016  1.00  0.00     0.312 C 
BRANCH  18  23
HETATM   23  N7  UNL     1      28.563  10.354  49.610  1.00  0.00     0.090 N 
HETATM   24  H26 UNL     1      29.197   9.652  50.067  1.00  0.00     0.313 HD
HETATM   25  H27 UNL     1      28.022  10.811  50.377  1.00  0.00     0.313 HD
ENDBRANCH  18  23
ENDBRANCH  13  14
ENDBRANCH   1  12
BRANCH   4  26
HETATM   26  N4  UNL     1      25.756  -0.055  52.525  1.00  0.00    -0.387 N 
HETATM   27  H7  UNL     1      25.618  -0.935  53.071  1.00  0.00     0.157 HD
HETATM   28  H8  UNL     1      26.473  -0.342  51.799  1.00  0.00     0.157 HD
ENDBRANCH   4  26
TORSDOF 4
ENDMDL
MODEL 9
REMARK VINA RESULT:      -6.8      2.632      8.537
REMARK  4 active torsions:
REMARK  status: ('A' for Active; 'I' for Inactive)
REMARK    1  A    between atoms: N2_4  and  C3_5 
REMARK    2  A    between atoms: C4_6  and  C5_7 
REMARK    3  A    between atoms: C7_10  and  N4_11 
REMARK    4  A    between atoms: C17_23  and  N7_24 
ROOT
HETATM    1  C5  UNL     1      26.546   6.326  48.571  1.00  0.00    -0.039 C 
HETATM    2  C6  UNL     1      25.815   7.363  48.077  1.00  0.00     0.125 C 
HETATM    3  N3  UNL     1      26.409   8.590  47.589  1.00  0.00    -0.247 NA
HETATM    4  C7  UNL     1      27.261   9.291  48.284  1.00  0.00     0.102 C 
HETATM    5  C8  UNL     1      28.140   9.637  49.467  1.00  0.00     0.124 C 
HETATM    6  C9  UNL     1      29.586   9.428  49.165  1.00  0.00     0.096 C 
HETATM    7  N5  UNL     1      29.791   8.263  48.935  1.00  0.00    -0.277 NA
HETATM    8  C10 UNL     1      30.638   7.265  48.615  1.00  0.00     0.112 C 
HETATM    9  C11 UNL     1      30.253   6.018  48.274  1.00  0.00    -0.007 C 
HETATM   10  C12 UNL     1      28.882   5.345  48.141  1.00  0.00     0.033 C 
HETATM   11  C13 UNL     1      27.983   6.482  48.559  1.00  0.00     0.044 C 
ENDROOT
BRANCH   1  12
HETATM   12  C4  UNL     1      25.886   5.141  49.041  1.00  0.00     0.027 C 
HETATM   13  C3  UNL     1      24.822   5.118  49.825  1.00  0.00     0.115 C 
BRANCH  13  14
HETATM   14  N2  UNL     1      24.175   3.952  50.285  1.00  0.00    -0.253 N 
HETATM   15  N1  UNL     1      23.549   3.208  49.267  1.00  0.00    -0.178 NA
HETATM   16  C2  UNL     1      22.582   2.370  49.370  1.00  0.00     0.063 C 
HETATM   17  C1  UNL     1      22.173   1.767  48.068  1.00  0.00     0.070 C 
HETATM   18  C17 UNL     1      21.804   1.893  50.517  1.00  0.00     0.294 C 
HETATM   19  C16 UNL     1      22.090   2.676  51.776  1.00  0.00     0.315 C 
HETATM   20  N6  UNL     1      23.470   2.607  52.148  1.00  0.00     0.105 N 
HETATM   21  C14 UNL     1      24.259   3.712  51.700  1.00  0.00     0.421 C 
HETATM   22  C15 UNL     1      24.058   1.311  51.896  1.00  0.00     0.312 C 
BRANCH  18  23
HETATM   23  N7  UNL     1      20.405   2.016  50.174  1.00  0.00     0.090 N 
HETATM   24  H26 UNL     1      19.822   1.506  50.883  1.00  0.00     0.313 HD
HETATM   25  H27 UNL     1      20.251   1.536  49.260  1.00  0.00     0.313 HD
ENDBRANCH  18  23
ENDBRANCH  13  14
ENDBRANCH   1  12
BRANCH   4  26
HETATM   26  N4  UNL     1      27.339  10.226  47.191  1.00  0.00    -0.387 N 
HETATM   27  H7  UNL     1      27.479  11.223  46.908  1.00  0.00     0.157 HD
HETATM   28  H8  UNL     1      27.201   9.737  46.261  1.00  0.00     0.157 HD
ENDBRANCH   4  26
TORSDOF 4
ENDMDL
