MODEL 1
REMARK VINA RESULT:      -7.1      0.000      0.000
REMARK  8 active torsions:
REMARK  status: ('A' for Active; 'I' for Inactive)
REMARK    1  A    between atoms: N2_5  and  C4_6 
REMARK    2  A    between atoms: C4_6  and  C5_7 
REMARK    3  A    between atoms: C5_7  and  O1_8 
REMARK    4  A    between atoms: O1_8  and  C6_9 
REMARK    5  A    between atoms: C9_12  and  N3_13 
REMARK    6  A    between atoms: N3_13  and  C10_14 
REMARK    7  A    between atoms: C11_15  and  C12_16 
REMARK    8  A    between atoms: C13_17  and  C14_18 
ROOT
HETATM    1  C6  UNL     1      22.401   1.969  52.619  1.00  0.00     0.104 C 
HETATM    2  C7  UNL     1      22.805   0.826  52.021  1.00  0.00     0.049 C 
HETATM    3  C8  UNL     1      21.668   1.417  50.894  1.00  0.00    -0.028 C 
HETATM    4  C9  UNL     1      21.297   2.579  50.149  1.00  0.00     0.030 C 
HETATM    5  C15 UNL     1      20.225   3.519  50.656  1.00  0.00     0.175 C 
HETATM    6  N4  UNL     1      19.794   3.811  51.915  1.00  0.00    -0.194 NA
HETATM    7  O2  UNL     1      20.150   2.945  53.049  1.00  0.00    -0.261 OA
HETATM    8  C16 UNL     1      20.909   1.699  52.664  1.00  0.00     0.121 C 
HETATM    9  C17 UNL     1      20.151   0.567  52.336  1.00  0.00     0.020 C 
HETATM   10  C18 UNL     1      20.540   0.359  50.860  1.00  0.00     0.071 C 
HETATM   11  H22 UNL     1      19.953   4.777  52.285  1.00  0.00     0.154 HD
ENDROOT
BRANCH   1  12
HETATM   12  O1  UNL     1      23.618   2.485  52.734  1.00  0.00    -0.346 OA
BRANCH  12  13
HETATM   13  C5  UNL     1      24.767   2.972  52.844  1.00  0.00     0.206 C 
BRANCH  13  14
HETATM   14  C4  UNL     1      25.761   2.299  53.799  1.00  0.00     0.299 C 
BRANCH  14  15
HETATM   15  N2  UNL     1      26.666   1.426  53.163  1.00  0.00     0.093 N 
HETATM   16  C3  UNL     1      26.356   0.016  53.284  1.00  0.00     0.302 C 
HETATM   17  C2  UNL     1      27.599  -0.830  53.028  1.00  0.00     0.302 C 
HETATM   18  N1  UNL     1      28.635  -0.615  53.989  1.00  0.00     0.087 N 
HETATM   19  C1  UNL     1      29.949  -0.899  53.495  1.00  0.00     0.310 C 
HETATM   20  C20 UNL     1      28.565   0.721  54.491  1.00  0.00     0.302 C 
HETATM   21  C19 UNL     1      28.055   1.619  53.365  1.00  0.00     0.302 C 
ENDBRANCH  14  15
ENDBRANCH  13  14
ENDBRANCH  12  13
ENDBRANCH   1  12
BRANCH   4  22
HETATM   22  N3  UNL     1      21.912   3.048  48.881  1.00  0.00    -0.368 N 
HETATM   23  H13 UNL     1      21.778   2.678  47.903  1.00  0.00     0.165 HD
BRANCH  22  24
HETATM   24  C10 UNL     1      22.722   4.120  49.343  1.00  0.00     0.088 C 
HETATM   25  C11 UNL     1      23.957   4.314  48.865  1.00  0.00     0.017 C 
BRANCH  25  26
HETATM   26  C12 UNL     1      24.755   5.423  49.363  1.00  0.00    -0.000 C 
HETATM   27  C13 UNL     1      26.070   5.378  49.423  1.00  0.00     0.004 C 
BRANCH  27  28
HETATM   28  C14 UNL     1      26.981   4.286  49.034  1.00  0.00     0.249 C 
HETATM   29  F1  UNL     1      28.194   4.793  48.607  1.00  0.00    -0.251 F 
ENDBRANCH  27  28
ENDBRANCH  25  26
ENDBRANCH  22  24
ENDBRANCH   4  22
TORSDOF 8
ENDMDL
MODEL 2
REMARK VINA RESULT:      -7.1      2.623      6.102
REMARK  8 active torsions:
REMARK  status: ('A' for Active; 'I' for Inactive)
REMARK    1  A    between atoms: N2_5  and  C4_6 
REMARK    2  A    between atoms: C4_6  and  C5_7 
REMARK    3  A    between atoms: C5_7  and  O1_8 
REMARK    4  A    between atoms: O1_8  and  C6_9 
REMARK    5  A    between atoms: C9_12  and  N3_13 
REMARK    6  A    between atoms: N3_13  and  C10_14 
REMARK    7  A    between atoms: C11_15  and  C12_16 
REMARK    8  A    between atoms: C13_17  and  C14_18 
ROOT
HETATM    1  C6  UNL     1      22.924   3.464  50.104  1.00  0.00     0.104 C 
HETATM    2  C7  UNL     1      23.655   3.072  49.037  1.00  0.00     0.049 C 
HETATM    3  C8  UNL     1      24.781   2.890  50.306  1.00  0.00    -0.028 C 
HETATM    4  C9  UNL     1      24.956   2.318  51.604  1.00  0.00     0.030 C 
HETATM    5  C15 UNL     1      24.748   3.145  52.854  1.00  0.00     0.175 C 
HETATM    6  N4  UNL     1      23.971   4.236  53.102  1.00  0.00    -0.194 NA
HETATM    7  O2  UNL     1      23.396   5.015  51.995  1.00  0.00    -0.261 OA
HETATM    8  C16 UNL     1      23.833   4.560  50.624  1.00  0.00     0.121 C 
HETATM    9  C17 UNL     1      25.006   5.131  50.109  1.00  0.00     0.020 C 
HETATM   10  C18 UNL     1      25.916   3.893  49.990  1.00  0.00     0.071 C 
HETATM   11  H22 UNL     1      23.175   4.140  53.774  1.00  0.00     0.154 HD
ENDROOT
BRANCH   1  12
HETATM   12  O1  UNL     1      21.938   2.599  49.903  1.00  0.00    -0.346 OA
BRANCH  12  13
HETATM   13  C5  UNL     1      21.007   1.782  49.713  1.00  0.00     0.206 C 
BRANCH  13  14
HETATM   14  C4  UNL     1      20.050   1.479  50.872  1.00  0.00     0.299 C 
BRANCH  14  15
HETATM   15  N2  UNL     1      20.394   0.333  51.617  1.00  0.00     0.093 N 
HETATM   16  C3  UNL     1      19.513   0.026  52.725  1.00  0.00     0.302 C 
HETATM   17  C2  UNL     1      20.216  -0.875  53.735  1.00  0.00     0.302 C 
HETATM   18  N1  UNL     1      21.350  -0.257  54.348  1.00  0.00     0.087 N 
HETATM   19  C1  UNL     1      22.334  -1.189  54.813  1.00  0.00     0.310 C 
HETATM   20  C20 UNL     1      21.936   0.687  53.450  1.00  0.00     0.302 C 
HETATM   21  C19 UNL     1      21.739   0.166  52.028  1.00  0.00     0.302 C 
ENDBRANCH  14  15
ENDBRANCH  13  14
ENDBRANCH  12  13
ENDBRANCH   1  12
BRANCH   4  22
HETATM   22  N3  UNL     1      25.282   0.901  51.906  1.00  0.00    -0.368 N 
HETATM   23  H13 UNL     1      24.954   0.026  51.418  1.00  0.00     0.165 HD
BRANCH  22  24
HETATM   24  C10 UNL     1      26.147   1.046  53.024  1.00  0.00     0.088 C 
HETATM   25  C11 UNL     1      26.623  -0.020  53.678  1.00  0.00     0.017 C 
BRANCH  25  26
HETATM   26  C12 UNL     1      27.506   0.169  54.817  1.00  0.00    -0.000 C 
HETATM   27  C13 UNL     1      28.810   0.006  54.737  1.00  0.00     0.004 C 
BRANCH  27  28
HETATM   28  C14 UNL     1      29.629  -0.376  53.572  1.00  0.00     0.249 C 
HETATM   29  F1  UNL     1      29.691  -1.752  53.451  1.00  0.00    -0.251 F 
ENDBRANCH  27  28
ENDBRANCH  25  26
ENDBRANCH  22  24
ENDBRANCH   4  22
TORSDOF 8
ENDMDL
MODEL 3
REMARK VINA RESULT:      -7.0      2.709      4.063
REMARK  8 active torsions:
REMARK  status: ('A' for Active; 'I' for Inactive)
REMARK    1  A    between atoms: N2_5  and  C4_6 
REMARK    2  A    between atoms: C4_6  and  C5_7 
REMARK    3  A    between atoms: C5_7  and  O1_8 
REMARK    4  A    between atoms: O1_8  and  C6_9 
REMARK    5  A    between atoms: C9_12  and  N3_13 
REMARK    6  A    between atoms: N3_13  and  C10_14 
REMARK    7  A    between atoms: C11_15  and  C12_16 
REMARK    8  A    between atoms: C13_17  and  C14_18 
ROOT
HETATM    1  C6  UNL     1      23.847   3.942  51.560  1.00  0.00     0.104 C 
HETATM    2  C7  UNL     1      23.563   2.976  50.658  1.00  0.00     0.049 C 
HETATM    3  C8  UNL     1      24.463   4.074  49.711  1.00  0.00    -0.028 C 
HETATM    4  C9  UNL     1      25.682   4.819  49.675  1.00  0.00     0.030 C 
HETATM    5  C15 UNL     1      25.723   6.265  50.121  1.00  0.00     0.175 C 
HETATM    6  N4  UNL     1      24.963   6.964  51.009  1.00  0.00    -0.194 NA
HETATM    7  O2  UNL     1      23.679   6.426  51.483  1.00  0.00    -0.261 OA
HETATM    8  C16 UNL     1      23.267   5.133  50.823  1.00  0.00     0.121 C 
HETATM    9  C17 UNL     1      22.523   5.232  49.638  1.00  0.00     0.020 C 
HETATM   10  C18 UNL     1      23.480   4.575  48.625  1.00  0.00     0.071 C 
HETATM   11  H22 UNL     1      25.416   7.322  51.882  1.00  0.00     0.154 HD
ENDROOT
BRANCH   1  12
HETATM   12  O1  UNL     1      24.421   3.128  52.437  1.00  0.00    -0.346 OA
BRANCH  12  13
HETATM   13  C5  UNL     1      24.963   2.360  53.265  1.00  0.00     0.206 C 
BRANCH  13  14
HETATM   14  C4  UNL     1      24.768   0.848  53.101  1.00  0.00     0.299 C 
BRANCH  14  15
HETATM   15  N2  UNL     1      25.852   0.076  53.562  1.00  0.00     0.093 N 
HETATM   16  C3  UNL     1      26.496   0.567  54.764  1.00  0.00     0.302 C 
HETATM   17  C2  UNL     1      27.904  -0.003  54.889  1.00  0.00     0.302 C 
HETATM   18  N1  UNL     1      28.775   0.407  53.832  1.00  0.00     0.087 N 
HETATM   19  C1  UNL     1      29.847  -0.509  53.578  1.00  0.00     0.310 C 
HETATM   20  C20 UNL     1      28.020   0.640  52.642  1.00  0.00     0.302 C 
HETATM   21  C19 UNL     1      26.843  -0.332  52.635  1.00  0.00     0.302 C 
ENDBRANCH  14  15
ENDBRANCH  13  14
ENDBRANCH  12  13
ENDBRANCH   1  12
BRANCH   4  22
HETATM   22  N3  UNL     1      27.019   4.305  49.284  1.00  0.00    -0.368 N 
HETATM   23  H13 UNL     1      27.449   3.362  49.477  1.00  0.00     0.165 HD
BRANCH  22  24
HETATM   24  C10 UNL     1      27.555   5.422  48.587  1.00  0.00     0.088 C 
HETATM   25  C11 UNL     1      28.856   5.492  48.282  1.00  0.00     0.017 C 
BRANCH  25  26
HETATM   26  C12 UNL     1      29.367   6.651  47.568  1.00  0.00    -0.000 C 
HETATM   27  C13 UNL     1      30.609   7.067  47.691  1.00  0.00     0.004 C 
BRANCH  27  28
HETATM   28  C14 UNL     1      31.700   6.510  48.512  1.00  0.00     0.249 C 
HETATM   29  F1  UNL     1      31.528   6.844  49.842  1.00  0.00    -0.251 F 
ENDBRANCH  27  28
ENDBRANCH  25  26
ENDBRANCH  22  24
ENDBRANCH   4  22
TORSDOF 8
ENDMDL
MODEL 4
REMARK VINA RESULT:      -6.8      2.806      4.631
REMARK  8 active torsions:
REMARK  status: ('A' for Active; 'I' for Inactive)
REMARK    1  A    between atoms: N2_5  and  C4_6 
REMARK    2  A    between atoms: C4_6  and  C5_7 
REMARK    3  A    between atoms: C5_7  and  O1_8 
REMARK    4  A    between atoms: O1_8  and  C6_9 
REMARK    5  A    between atoms: C9_12  and  N3_13 
REMARK    6  A    between atoms: N3_13  and  C10_14 
REMARK    7  A    between atoms: C11_15  and  C12_16 
REMARK    8  A    between atoms: C13_17  and  C14_18 
ROOT
HETATM    1  C6  UNL     1      22.928   3.292  51.062  1.00  0.00     0.104 C 
HETATM    2  C7  UNL     1      22.014   3.855  51.883  1.00  0.00     0.049 C 
HETATM    3  C8  UNL     1      21.017   3.183  50.672  1.00  0.00    -0.028 C 
HETATM    4  C9  UNL     1      20.754   1.979  49.947  1.00  0.00     0.030 C 
HETATM    5  C15 UNL     1      21.364   1.745  48.582  1.00  0.00     0.175 C 
HETATM    6  N4  UNL     1      22.510   2.204  48.008  1.00  0.00    -0.194 NA
HETATM    7  O2  UNL     1      23.236   3.343  48.590  1.00  0.00    -0.261 OA
HETATM    8  C16 UNL     1      22.543   3.983  49.768  1.00  0.00     0.121 C 
HETATM    9  C17 UNL     1      21.629   5.008  49.488  1.00  0.00     0.020 C 
HETATM   10  C18 UNL     1      20.315   4.390  50.006  1.00  0.00     0.071 C 
HETATM   11  H22 UNL     1      23.268   1.518  47.787  1.00  0.00     0.154 HD
ENDROOT
BRANCH   1  12
HETATM   12  O1  UNL     1      23.499   2.550  52.002  1.00  0.00    -0.346 OA
BRANCH  12  13
HETATM   13  C5  UNL     1      24.038   1.848  52.889  1.00  0.00     0.206 C 
BRANCH  13  14
HETATM   14  C4  UNL     1      25.447   2.222  53.364  1.00  0.00     0.299 C 
BRANCH  14  15
HETATM   15  N2  UNL     1      26.465   1.395  52.850  1.00  0.00     0.093 N 
HETATM   16  C3  UNL     1      26.209  -0.028  52.936  1.00  0.00     0.302 C 
HETATM   17  C2  UNL     1      27.513  -0.814  52.841  1.00  0.00     0.302 C 
HETATM   18  N1  UNL     1      28.409  -0.553  53.923  1.00  0.00     0.087 N 
HETATM   19  C1  UNL     1      29.786  -0.774  53.599  1.00  0.00     0.310 C 
HETATM   20  C20 UNL     1      28.213   0.777  54.408  1.00  0.00     0.302 C 
HETATM   21  C19 UNL     1      27.807   1.652  53.225  1.00  0.00     0.302 C 
ENDBRANCH  14  15
ENDBRANCH  13  14
ENDBRANCH  12  13
ENDBRANCH   1  12
BRANCH   4  22
HETATM   22  N3  UNL     1      19.951   0.823  50.419  1.00  0.00    -0.368 N 
HETATM   23  H13 UNL     1      19.496   0.057  49.855  1.00  0.00     0.165 HD
BRANCH  22  24
HETATM   24  C10 UNL     1      19.961   1.030  51.825  1.00  0.00     0.088 C 
HETATM   25  C11 UNL     1      20.697   0.260  52.636  1.00  0.00     0.017 C 
BRANCH  25  26
HETATM   26  C12 UNL     1      20.681   0.503  54.069  1.00  0.00    -0.000 C 
HETATM   27  C13 UNL     1      21.420  -0.186  54.912  1.00  0.00     0.004 C 
BRANCH  27  28
HETATM   28  C14 UNL     1      22.366  -1.283  54.637  1.00  0.00     0.249 C 
HETATM   29  F1  UNL     1      21.694  -2.407  54.196  1.00  0.00    -0.251 F 
ENDBRANCH  27  28
ENDBRANCH  25  26
ENDBRANCH  22  24
ENDBRANCH   4  22
TORSDOF 8
ENDMDL
MODEL 5
REMARK VINA RESULT:      -6.7      2.667      3.817
REMARK  8 active torsions:
REMARK  status: ('A' for Active; 'I' for Inactive)
REMARK    1  A    between atoms: N2_5  and  C4_6 
REMARK    2  A    between atoms: C4_6  and  C5_7 
REMARK    3  A    between atoms: C5_7  and  O1_8 
REMARK    4  A    between atoms: O1_8  and  C6_9 
REMARK    5  A    between atoms: C9_12  and  N3_13 
REMARK    6  A    between atoms: N3_13  and  C10_14 
REMARK    7  A    between atoms: C11_15  and  C12_16 
REMARK    8  A    between atoms: C13_17  and  C14_18 
ROOT
HETATM    1  C6  UNL     1      23.275   3.704  51.150  1.00  0.00     0.104 C 
HETATM    2  C7  UNL     1      23.831   3.061  50.099  1.00  0.00     0.049 C 
HETATM    3  C8  UNL     1      24.155   4.691  49.710  1.00  0.00    -0.028 C 
HETATM    4  C9  UNL     1      24.697   5.904  50.236  1.00  0.00     0.030 C 
HETATM    5  C15 UNL     1      23.796   6.963  50.834  1.00  0.00     0.175 C 
HETATM    6  N4  UNL     1      22.577   6.885  51.437  1.00  0.00    -0.194 NA
HETATM    7  O2  UNL     1      21.756   5.672  51.313  1.00  0.00    -0.261 OA
HETATM    8  C16 UNL     1      22.334   4.623  50.394  1.00  0.00     0.121 C 
HETATM    9  C17 UNL     1      21.998   4.711  49.036  1.00  0.00     0.020 C 
HETATM   10  C18 UNL     1      23.379   4.959  48.399  1.00  0.00     0.071 C 
HETATM   11  H22 UNL     1      22.507   7.125  52.453  1.00  0.00     0.154 HD
ENDROOT
BRANCH   1  12
HETATM   12  O1  UNL     1      23.962   3.047  52.075  1.00  0.00    -0.346 OA
BRANCH  12  13
HETATM   13  C5  UNL     1      24.610   2.426  52.949  1.00  0.00     0.206 C 
BRANCH  13  14
HETATM   14  C4  UNL     1      24.265   0.955  53.211  1.00  0.00     0.299 C 
BRANCH  14  15
HETATM   15  N2  UNL     1      25.311   0.215  53.797  1.00  0.00     0.093 N 
HETATM   16  C3  UNL     1      26.351   1.004  54.425  1.00  0.00     0.302 C 
HETATM   17  C2  UNL     1      27.631   0.188  54.566  1.00  0.00     0.302 C 
HETATM   18  N1  UNL     1      28.195  -0.199  53.311  1.00  0.00     0.087 N 
HETATM   19  C1  UNL     1      28.993  -1.387  53.378  1.00  0.00     0.310 C 
HETATM   20  C20 UNL     1      27.160  -0.341  52.336  1.00  0.00     0.302 C 
HETATM   21  C19 UNL     1      25.905  -0.834  53.053  1.00  0.00     0.302 C 
ENDBRANCH  14  15
ENDBRANCH  13  14
ENDBRANCH  12  13
ENDBRANCH   1  12
BRANCH   4  22
HETATM   22  N3  UNL     1      26.135   6.259  50.332  1.00  0.00    -0.368 N 
HETATM   23  H13 UNL     1      26.875   5.862  50.969  1.00  0.00     0.165 HD
BRANCH  22  24
HETATM   24  C10 UNL     1      26.240   7.271  49.340  1.00  0.00     0.088 C 
HETATM   25  C11 UNL     1      26.581   6.977  48.079  1.00  0.00     0.017 C 
BRANCH  25  26
HETATM   26  C12 UNL     1      26.677   8.040  47.093  1.00  0.00    -0.000 C 
HETATM   27  C13 UNL     1      25.656   8.411  46.349  1.00  0.00     0.004 C 
BRANCH  27  28
HETATM   28  C14 UNL     1      24.279   7.885  46.333  1.00  0.00     0.249 C 
HETATM   29  F1  UNL     1      23.599   8.262  47.476  1.00  0.00    -0.251 F 
ENDBRANCH  27  28
ENDBRANCH  25  26
ENDBRANCH  22  24
ENDBRANCH   4  22
TORSDOF 8
ENDMDL
MODEL 6
REMARK VINA RESULT:      -6.7      2.860      5.406
REMARK  8 active torsions:
REMARK  status: ('A' for Active; 'I' for Inactive)
REMARK    1  A    between atoms: N2_5  and  C4_6 
REMARK    2  A    between atoms: C4_6  and  C5_7 
REMARK    3  A    between atoms: C5_7  and  O1_8 
REMARK    4  A    between atoms: O1_8  and  C6_9 
REMARK    5  A    between atoms: C9_12  and  N3_13 
REMARK    6  A    between atoms: N3_13  and  C10_14 
REMARK    7  A    between atoms: C11_15  and  C12_16 
REMARK    8  A    between atoms: C13_17  and  C14_18 
ROOT
HETATM    1  C6  UNL     1      21.943   3.418  49.570  1.00  0.00     0.104 C 
HETATM    2  C7  UNL     1      22.981   2.750  49.021  1.00  0.00     0.049 C 
HETATM    3  C8  UNL     1      23.789   3.862  50.033  1.00  0.00    -0.028 C 
HETATM    4  C9  UNL     1      23.828   4.371  51.368  1.00  0.00     0.030 C 
HETATM    5  C15 UNL     1      23.099   5.646  51.736  1.00  0.00     0.175 C 
HETATM    6  N4  UNL     1      21.994   6.245  51.212  1.00  0.00    -0.194 NA
HETATM    7  O2  UNL     1      21.478   5.844  49.894  1.00  0.00    -0.261 OA
HETATM    8  C16 UNL     1      22.333   4.829  49.176  1.00  0.00     0.121 C 
HETATM    9  C17 UNL     1      23.363   5.325  48.364  1.00  0.00     0.020 C 
HETATM   10  C18 UNL     1      24.608   4.762  49.077  1.00  0.00     0.071 C 
HETATM   11  H22 UNL     1      21.133   6.308  51.803  1.00  0.00     0.154 HD
ENDROOT
BRANCH   1  12
HETATM   12  O1  UNL     1      21.337   2.338  50.047  1.00  0.00    -0.346 OA
BRANCH  12  13
HETATM   13  C5  UNL     1      20.766   1.318  50.497  1.00  0.00     0.206 C 
BRANCH  13  14
HETATM   14  C4  UNL     1      20.315   1.318  51.963  1.00  0.00     0.299 C 
BRANCH  14  15
HETATM   15  N2  UNL     1      21.344   1.029  52.881  1.00  0.00     0.093 N 
HETATM   16  C3  UNL     1      22.449   0.257  52.350  1.00  0.00     0.302 C 
HETATM   17  C2  UNL     1      23.222  -0.418  53.478  1.00  0.00     0.302 C 
HETATM   18  N1  UNL     1      22.443  -1.373  54.202  1.00  0.00     0.087 N 
HETATM   19  C1  UNL     1      22.887  -1.578  55.549  1.00  0.00     0.310 C 
HETATM   20  C20 UNL     1      21.065  -0.996  54.179  1.00  0.00     0.302 C 
HETATM   21  C19 UNL     1      20.996   0.529  54.160  1.00  0.00     0.302 C 
ENDBRANCH  14  15
ENDBRANCH  13  14
ENDBRANCH  12  13
ENDBRANCH   1  12
BRANCH   4  22
HETATM   22  N3  UNL     1      24.489   3.735  52.535  1.00  0.00    -0.368 N 
HETATM   23  H13 UNL     1      24.542   4.073  53.533  1.00  0.00     0.165 HD
BRANCH  22  24
HETATM   24  C10 UNL     1      25.024   2.558  51.947  1.00  0.00     0.088 C 
HETATM   25  C11 UNL     1      25.976   1.844  52.561  1.00  0.00     0.017 C 
BRANCH  25  26
HETATM   26  C12 UNL     1      26.499   0.646  51.925  1.00  0.00    -0.000 C 
HETATM   27  C13 UNL     1      27.283  -0.204  52.555  1.00  0.00     0.004 C 
BRANCH  27  28
HETATM   28  C14 UNL     1      27.784  -0.156  53.940  1.00  0.00     0.249 C 
HETATM   29  F1  UNL     1      26.759  -0.387  54.838  1.00  0.00    -0.251 F 
ENDBRANCH  27  28
ENDBRANCH  25  26
ENDBRANCH  22  24
ENDBRANCH   4  22
TORSDOF 8
ENDMDL
MODEL 7
REMARK VINA RESULT:      -6.6      2.769      6.658
REMARK  8 active torsions:
REMARK  status: ('A' for Active; 'I' for Inactive)
REMARK    1  A    between atoms: N2_5  and  C4_6 
REMARK    2  A    between atoms: C4_6  and  C5_7 
REMARK    3  A    between atoms: C5_7  and  O1_8 
REMARK    4  A    between atoms: O1_8  and  C6_9 
REMARK    5  A    between atoms: C9_12  and  N3_13 
REMARK    6  A    between atoms: N3_13  and  C10_14 
REMARK    7  A    between atoms: C11_15  and  C12_16 
REMARK    8  A    between atoms: C13_17  and  C14_18 
ROOT
HETATM    1  C6  UNL     1      23.104   4.434  49.476  1.00  0.00     0.104 C 
HETATM    2  C7  UNL     1      23.510   3.267  48.929  1.00  0.00     0.049 C 
HETATM    3  C8  UNL     1      23.937   3.042  50.566  1.00  0.00    -0.028 C 
HETATM    4  C9  UNL     1      23.432   3.125  51.900  1.00  0.00     0.030 C 
HETATM    5  C15 UNL     1      23.662   4.360  52.744  1.00  0.00     0.175 C 
HETATM    6  N4  UNL     1      23.859   5.666  52.409  1.00  0.00    -0.194 NA
HETATM    7  O2  UNL     1      24.203   6.042  51.030  1.00  0.00    -0.261 OA
HETATM    8  C16 UNL     1      24.415   4.871  50.101  1.00  0.00     0.121 C 
HETATM    9  C17 UNL     1      25.710   4.339  50.033  1.00  0.00     0.020 C 
HETATM   10  C18 UNL     1      25.479   2.913  50.569  1.00  0.00     0.071 C 
HETATM   11  H22 UNL     1      23.130   6.366  52.679  1.00  0.00     0.154 HD
ENDROOT
BRANCH   1  12
HETATM   12  O1  UNL     1      21.850   4.340  49.053  1.00  0.00    -0.346 OA
BRANCH  12  13
HETATM   13  C5  UNL     1      20.666   4.252  48.653  1.00  0.00     0.206 C 
BRANCH  13  14
HETATM   14  C4  UNL     1      19.571   3.911  49.671  1.00  0.00     0.299 C 
BRANCH  14  15
HETATM   15  N2  UNL     1      19.895   2.837  50.524  1.00  0.00     0.093 N 
HETATM   16  C3  UNL     1      20.176   1.581  49.859  1.00  0.00     0.302 C 
HETATM   17  C2  UNL     1      20.013   0.414  50.827  1.00  0.00     0.302 C 
HETATM   18  N1  UNL     1      18.675   0.264  51.309  1.00  0.00     0.087 N 
HETATM   19  C1  UNL     1      18.591  -0.379  52.587  1.00  0.00     0.310 C 
HETATM   20  C20 UNL     1      18.023   1.535  51.341  1.00  0.00     0.302 C 
HETATM   21  C19 UNL     1      19.077   2.595  51.655  1.00  0.00     0.302 C 
ENDBRANCH  14  15
ENDBRANCH  13  14
ENDBRANCH  12  13
ENDBRANCH   1  12
BRANCH   4  22
HETATM   22  N3  UNL     1      22.601   2.108  52.593  1.00  0.00    -0.368 N 
HETATM   23  H13 UNL     1      21.556   1.972  52.562  1.00  0.00     0.165 HD
BRANCH  22  24
HETATM   24  C10 UNL     1      23.590   1.377  53.304  1.00  0.00     0.088 C 
HETATM   25  C11 UNL     1      23.870   0.105  52.995  1.00  0.00     0.017 C 
BRANCH  25  26
HETATM   26  C12 UNL     1      24.890  -0.611  53.746  1.00  0.00    -0.000 C 
HETATM   27  C13 UNL     1      26.120  -0.762  53.302  1.00  0.00     0.004 C 
BRANCH  27  28
HETATM   28  C14 UNL     1      26.719  -0.286  52.042  1.00  0.00     0.249 C 
HETATM   29  F1  UNL     1      27.606   0.746  52.283  1.00  0.00    -0.251 F 
ENDBRANCH  27  28
ENDBRANCH  25  26
ENDBRANCH  22  24
ENDBRANCH   4  22
TORSDOF 8
ENDMDL
MODEL 8
REMARK VINA RESULT:      -6.6      1.461      2.030
REMARK  8 active torsions:
REMARK  status: ('A' for Active; 'I' for Inactive)
REMARK    1  A    between atoms: N2_5  and  C4_6 
REMARK    2  A    between atoms: C4_6  and  C5_7 
REMARK    3  A    between atoms: C5_7  and  O1_8 
REMARK    4  A    between atoms: O1_8  and  C6_9 
REMARK    5  A    between atoms: C9_12  and  N3_13 
REMARK    6  A    between atoms: N3_13  and  C10_14 
REMARK    7  A    between atoms: C11_15  and  C12_16 
REMARK    8  A    between atoms: C13_17  and  C14_18 
ROOT
HETATM    1  C6  UNL     1      22.415   1.493  51.465  1.00  0.00     0.104 C 
HETATM    2  C7  UNL     1      23.264   1.872  50.484  1.00  0.00     0.049 C 
HETATM    3  C8  UNL     1      22.191   3.198  50.538  1.00  0.00    -0.028 C 
HETATM    4  C9  UNL     1      21.579   4.137  51.425  1.00  0.00     0.030 C 
HETATM    5  C15 UNL     1      20.190   3.897  51.975  1.00  0.00     0.175 C 
HETATM    6  N4  UNL     1      19.492   2.751  52.213  1.00  0.00    -0.194 NA
HETATM    7  O2  UNL     1      19.929   1.473  51.632  1.00  0.00    -0.261 OA
HETATM    8  C16 UNL     1      21.109   1.587  50.699  1.00  0.00     0.121 C 
HETATM    9  C17 UNL     1      20.831   1.840  49.348  1.00  0.00     0.020 C 
HETATM   10  C18 UNL     1      21.497   3.216  49.155  1.00  0.00     0.071 C 
HETATM   11  H22 UNL     1      19.261   2.504  53.203  1.00  0.00     0.154 HD
ENDROOT
BRANCH   1  12
HETATM   12  O1  UNL     1      23.357   1.307  52.381  1.00  0.00    -0.346 OA
BRANCH  12  13
HETATM   13  C5  UNL     1      24.247   1.132  53.244  1.00  0.00     0.206 C 
BRANCH  13  14
HETATM   14  C4  UNL     1      25.372   2.169  53.358  1.00  0.00     0.299 C 
BRANCH  14  15
HETATM   15  N2  UNL     1      26.541   1.682  53.977  1.00  0.00     0.093 N 
HETATM   16  C3  UNL     1      27.779   2.279  53.520  1.00  0.00     0.302 C 
HETATM   17  C2  UNL     1      28.963   1.375  53.847  1.00  0.00     0.302 C 
HETATM   18  N1  UNL     1      28.912   0.114  53.176  1.00  0.00     0.087 N 
HETATM   19  C1  UNL     1      29.615  -0.931  53.858  1.00  0.00     0.310 C 
HETATM   20  C20 UNL     1      27.553  -0.261  52.945  1.00  0.00     0.302 C 
HETATM   21  C19 UNL     1      26.714   0.281  54.100  1.00  0.00     0.302 C 
ENDBRANCH  14  15
ENDBRANCH  13  14
ENDBRANCH  12  13
ENDBRANCH   1  12
BRANCH   4  22
HETATM   22  N3  UNL     1      22.197   5.376  51.961  1.00  0.00    -0.368 N 
HETATM   23  H13 UNL     1      22.044   5.845  52.892  1.00  0.00     0.165 HD
BRANCH  22  24
HETATM   24  C10 UNL     1      23.043   5.754  50.883  1.00  0.00     0.088 C 
HETATM   25  C11 UNL     1      24.341   6.020  51.077  1.00  0.00     0.017 C 
BRANCH  25  26
HETATM   26  C12 UNL     1      25.174   6.404  49.949  1.00  0.00    -0.000 C 
HETATM   27  C13 UNL     1      25.956   5.549  49.324  1.00  0.00     0.004 C 
BRANCH  27  28
HETATM   28  C14 UNL     1      26.165   4.114  49.588  1.00  0.00     0.249 C 
HETATM   29  F1  UNL     1      27.244   3.638  48.869  1.00  0.00    -0.251 F 
ENDBRANCH  27  28
ENDBRANCH  25  26
ENDBRANCH  22  24
ENDBRANCH   4  22
TORSDOF 8
ENDMDL
MODEL 9
REMARK VINA RESULT:      -6.6      1.919      2.351
REMARK  8 active torsions:
REMARK  status: ('A' for Active; 'I' for Inactive)
REMARK    1  A    between atoms: N2_5  and  C4_6 
REMARK    2  A    between atoms: C4_6  and  C5_7 
REMARK    3  A    between atoms: C5_7  and  O1_8 
REMARK    4  A    between atoms: O1_8  and  C6_9 
REMARK    5  A    between atoms: C9_12  and  N3_13 
REMARK    6  A    between atoms: N3_13  and  C10_14 
REMARK    7  A    between atoms: C11_15  and  C12_16 
REMARK    8  A    between atoms: C13_17  and  C14_18 
ROOT
HETATM    1  C6  UNL     1      21.265   1.201  52.577  1.00  0.00     0.104 C 
HETATM    2  C7  UNL     1      21.011  -0.065  52.178  1.00  0.00     0.049 C 
HETATM    3  C8  UNL     1      20.546   0.825  50.799  1.00  0.00    -0.028 C 
HETATM    4  C9  UNL     1      20.988   1.838  49.891  1.00  0.00     0.030 C 
HETATM    5  C15 UNL     1      20.591   3.285  50.088  1.00  0.00     0.175 C 
HETATM    6  N4  UNL     1      20.266   3.995  51.204  1.00  0.00    -0.194 NA
HETATM    7  O2  UNL     1      19.937   3.306  52.461  1.00  0.00    -0.261 OA
HETATM    8  C16 UNL     1      19.891   1.802  52.350  1.00  0.00     0.121 C 
HETATM    9  C17 UNL     1      18.665   1.228  51.985  1.00  0.00     0.020 C 
HETATM   10  C18 UNL     1      19.029   0.569  50.640  1.00  0.00     0.071 C 
HETATM   11  H22 UNL     1      20.903   4.768  51.507  1.00  0.00     0.154 HD
ENDROOT
BRANCH   1  12
HETATM   12  O1  UNL     1      22.537   0.982  52.883  1.00  0.00    -0.346 OA
BRANCH  12  13
HETATM   13  C5  UNL     1      23.739   0.775  53.171  1.00  0.00     0.206 C 
BRANCH  13  14
HETATM   14  C4  UNL     1      24.220  -0.674  53.309  1.00  0.00     0.299 C 
BRANCH  14  15
HETATM   15  N2  UNL     1      25.526  -0.798  53.824  1.00  0.00     0.093 N 
HETATM   16  C3  UNL     1      25.940   0.258  54.726  1.00  0.00     0.302 C 
HETATM   17  C2  UNL     1      27.461   0.318  54.818  1.00  0.00     0.302 C 
HETATM   18  N1  UNL     1      28.088   0.651  53.577  1.00  0.00     0.087 N 
HETATM   19  C1  UNL     1      29.430   0.163  53.460  1.00  0.00     0.310 C 
HETATM   20  C20 UNL     1      27.288   0.189  52.487  1.00  0.00     0.302 C 
HETATM   21  C19 UNL     1      26.586  -1.093  52.931  1.00  0.00     0.302 C 
ENDBRANCH  14  15
ENDBRANCH  13  14
ENDBRANCH  12  13
ENDBRANCH   1  12
BRANCH   4  22
HETATM   22  N3  UNL     1      21.896   1.648  48.733  1.00  0.00    -0.368 N 
HETATM   23  H13 UNL     1      21.842   0.938  47.956  1.00  0.00     0.165 HD
BRANCH  22  24
HETATM   24  C10 UNL     1      22.851   2.677  48.955  1.00  0.00     0.088 C 
HETATM   25  C11 UNL     1      23.759   2.583  49.935  1.00  0.00     0.017 C 
BRANCH  25  26
HETATM   26  C12 UNL     1      24.720   3.656  50.131  1.00  0.00    -0.000 C 
HETATM   27  C13 UNL     1      24.619   4.526  51.115  1.00  0.00     0.004 C 
BRANCH  27  28
HETATM   28  C14 UNL     1      23.595   4.620  52.171  1.00  0.00     0.249 C 
HETATM   29  F1  UNL     1      24.057   4.062  53.349  1.00  0.00    -0.251 F 
ENDBRANCH  27  28
ENDBRANCH  25  26
ENDBRANCH  22  24
ENDBRANCH   4  22
TORSDOF 8
ENDMDL
