MODEL 1
REMARK VINA RESULT:      -7.8      0.000      0.000
REMARK  3 active torsions:
REMARK  status: ('A' for Active; 'I' for Inactive)
REMARK    1  A    between atoms: C5_5  and  S1_6 
REMARK    2  A    between atoms: S1_6  and  N1_9 
REMARK       I    between atoms: N1_9  and  C6_10 
REMARK    3  A    between atoms: C6_10  and  C7_12 
ROOT
HETATM    1  N1  UNL     1      25.170   0.728  52.227  1.00  0.00    -0.250 N 
HETATM    2  C6  UNL     1      25.987   1.177  53.293  1.00  0.00     0.239 C 
HETATM    3  O3  UNL     1      25.775   2.409  53.557  1.00  0.00    -0.272 OA
HETATM    4  H6  UNL     1      25.250  -0.279  51.911  1.00  0.00     0.182 HD
ENDROOT
BRANCH   1   5
HETATM    5  S1  UNL     1      24.144   1.986  51.620  1.00  0.00     0.265 S 
HETATM    6  O1  UNL     1      23.034   1.458  50.774  1.00  0.00    -0.200 OA
HETATM    7  O2  UNL     1      23.502   2.616  52.836  1.00  0.00    -0.200 OA
BRANCH   5   8
HETATM    8  C5  UNL     1      25.055   3.164  50.704  1.00  0.00     0.080 A 
HETATM    9  C4  UNL     1      24.636   4.476  50.623  1.00  0.00     0.026 A 
HETATM   10  C3  UNL     1      25.335   5.429  49.907  1.00  0.00     0.008 A 
HETATM   11  C2  UNL     1      26.502   5.088  49.234  1.00  0.00    -0.062 A 
HETATM   12  C1  UNL     1      27.193   6.176  48.485  1.00  0.00     0.048 C 
HETATM   13  C14 UNL     1      26.924   3.786  49.308  1.00  0.00     0.008 A 
HETATM   14  C13 UNL     1      26.219   2.833  50.029  1.00  0.00     0.026 A 
ENDBRANCH   5   8
ENDBRANCH   1   5
BRANCH   2  15
HETATM   15  C7  UNL     1      26.962   0.318  54.007  1.00  0.00     0.107 A 
HETATM   16  C8  UNL     1      28.288   0.905  54.128  1.00  0.00    -0.012 A 
HETATM   17  C9  UNL     1      29.526   0.515  53.885  1.00  0.00    -0.001 A 
HETATM   18  C10 UNL     1      29.622  -0.840  53.363  1.00  0.00     0.037 A 
HETATM   19  C11 UNL     1      28.450  -1.429  53.230  1.00  0.00     0.095 A 
HETATM   20  F1  UNL     1      28.498  -2.711  52.740  1.00  0.00    -0.211 F 
HETATM   21  C12 UNL     1      27.037  -1.067  53.474  1.00  0.00     0.088 A 
ENDBRANCH   2  15
TORSDOF 3
ENDMDL
MODEL 2
REMARK VINA RESULT:      -7.6      1.719      2.513
REMARK  3 active torsions:
REMARK  status: ('A' for Active; 'I' for Inactive)
REMARK    1  A    between atoms: C5_5  and  S1_6 
REMARK    2  A    between atoms: S1_6  and  N1_9 
REMARK       I    between atoms: N1_9  and  C6_10 
REMARK    3  A    between atoms: C6_10  and  C7_12 
ROOT
HETATM    1  N1  UNL     1      26.230   3.095  51.420  1.00  0.00    -0.250 N 
HETATM    2  C6  UNL     1      25.482   2.021  51.960  1.00  0.00     0.239 C 
HETATM    3  O3  UNL     1      24.313   1.965  51.449  1.00  0.00    -0.272 OA
HETATM    4  H6  UNL     1      27.220   3.251  51.762  1.00  0.00     0.182 HD
ENDROOT
BRANCH   1   5
HETATM    5  S1  UNL     1      25.329   3.989  50.241  1.00  0.00     0.265 S 
HETATM    6  O1  UNL     1      24.570   3.103  49.310  1.00  0.00    -0.200 OA
HETATM    7  O2  UNL     1      24.302   4.779  51.023  1.00  0.00    -0.200 OA
BRANCH   5   8
HETATM    8  C5  UNL     1      26.367   5.046  49.312  1.00  0.00     0.080 A 
HETATM    9  C4  UNL     1      27.628   4.640  48.928  1.00  0.00     0.026 A 
HETATM   10  C3  UNL     1      28.471   5.452  48.193  1.00  0.00     0.008 A 
HETATM   11  C2  UNL     1      28.066   6.726  47.814  1.00  0.00    -0.062 A 
HETATM   12  C1  UNL     1      29.036   7.537  47.024  1.00  0.00     0.048 C 
HETATM   13  C14 UNL     1      26.815   7.137  48.194  1.00  0.00     0.008 A 
HETATM   14  C13 UNL     1      25.972   6.318  48.930  1.00  0.00     0.026 A 
ENDBRANCH   5   8
ENDBRANCH   1   5
BRANCH   2  15
HETATM   15  C7  UNL     1      25.998   1.087  52.988  1.00  0.00     0.107 A 
HETATM   16  C8  UNL     1      27.350   1.388  53.436  1.00  0.00    -0.012 A 
HETATM   17  C9  UNL     1      28.473   0.712  53.589  1.00  0.00    -0.001 A 
HETATM   18  C10 UNL     1      28.367  -0.692  53.225  1.00  0.00     0.037 A 
HETATM   19  C11 UNL     1      27.161  -1.030  52.810  1.00  0.00     0.095 A 
HETATM   20  F1  UNL     1      27.020  -2.350  52.458  1.00  0.00    -0.211 F 
HETATM   21  C12 UNL     1      25.867  -0.344  52.612  1.00  0.00     0.088 A 
ENDBRANCH   2  15
TORSDOF 3
ENDMDL
MODEL 3
REMARK VINA RESULT:      -7.6      3.594      6.778
REMARK  3 active torsions:
REMARK  status: ('A' for Active; 'I' for Inactive)
REMARK    1  A    between atoms: C5_5  and  S1_6 
REMARK    2  A    between atoms: S1_6  and  N1_9 
REMARK       I    between atoms: N1_9  and  C6_10 
REMARK    3  A    between atoms: C6_10  and  C7_12 
ROOT
HETATM    1  N1  UNL     1      25.636   3.239  51.939  1.00  0.00    -0.250 N 
HETATM    2  C6  UNL     1      26.173   3.182  50.631  1.00  0.00     0.239 C 
HETATM    3  O3  UNL     1      26.897   2.142  50.469  1.00  0.00    -0.272 OA
HETATM    4  H6  UNL     1      25.015   4.055  52.202  1.00  0.00     0.182 HD
ENDROOT
BRANCH   1   5
HETATM    5  S1  UNL     1      26.127   1.886  52.905  1.00  0.00     0.265 S 
HETATM    6  O1  UNL     1      27.167   1.053  52.232  1.00  0.00    -0.200 OA
HETATM    7  O2  UNL     1      26.775   2.477  54.139  1.00  0.00    -0.200 OA
BRANCH   5   8
HETATM    8  C5  UNL     1      24.765   0.876  53.327  1.00  0.00     0.080 A 
HETATM    9  C4  UNL     1      23.505   1.143  52.831  1.00  0.00     0.026 A 
HETATM   10  C3  UNL     1      22.409   0.362  53.147  1.00  0.00     0.008 A 
HETATM   11  C2  UNL     1      22.546  -0.734  53.990  1.00  0.00    -0.062 A 
HETATM   12  C1  UNL     1      21.314  -1.522  54.279  1.00  0.00     0.048 C 
HETATM   13  C14 UNL     1      23.794  -1.005  54.487  1.00  0.00     0.008 A 
HETATM   14  C13 UNL     1      24.891  -0.219  54.167  1.00  0.00     0.026 A 
ENDBRANCH   5   8
ENDBRANCH   1   5
BRANCH   2  15
HETATM   15  C7  UNL     1      25.921   4.204  49.587  1.00  0.00     0.107 A 
HETATM   16  C8  UNL     1      27.107   4.584  48.834  1.00  0.00    -0.012 A 
HETATM   17  C9  UNL     1      27.692   5.716  48.490  1.00  0.00    -0.001 A 
HETATM   18  C10 UNL     1      27.001   6.902  48.972  1.00  0.00     0.037 A 
HETATM   19  C11 UNL     1      25.914   6.625  49.664  1.00  0.00     0.095 A 
HETATM   20  F1  UNL     1      25.232   7.720  50.136  1.00  0.00    -0.211 F 
HETATM   21  C12 UNL     1      25.199   5.402  50.089  1.00  0.00     0.088 A 
ENDBRANCH   2  15
TORSDOF 3
ENDMDL
MODEL 4
REMARK VINA RESULT:      -7.5      3.053      6.774
REMARK  3 active torsions:
REMARK  status: ('A' for Active; 'I' for Inactive)
REMARK    1  A    between atoms: C5_5  and  S1_6 
REMARK    2  A    between atoms: S1_6  and  N1_9 
REMARK       I    between atoms: N1_9  and  C6_10 
REMARK    3  A    between atoms: C6_10  and  C7_12 
ROOT
HETATM    1  N1  UNL     1      25.852   3.568  50.937  1.00  0.00    -0.250 N 
HETATM    2  C6  UNL     1      24.866   4.550  50.673  1.00  0.00     0.239 C 
HETATM    3  O3  UNL     1      23.808   4.342  51.358  1.00  0.00    -0.272 OA
HETATM    4  H6  UNL     1      26.781   3.628  50.432  1.00  0.00     0.182 HD
ENDROOT
BRANCH   1   5
HETATM    5  S1  UNL     1      25.315   2.400  52.099  1.00  0.00     0.265 S 
HETATM    6  O1  UNL     1      24.723   3.034  53.313  1.00  0.00    -0.200 OA
HETATM    7  O2  UNL     1      24.200   1.632  51.423  1.00  0.00    -0.200 OA
BRANCH   5   8
HETATM    8  C5  UNL     1      26.616   1.336  52.582  1.00  0.00     0.080 A 
HETATM    9  C4  UNL     1      27.777   1.841  53.129  1.00  0.00     0.026 A 
HETATM   10  C3  UNL     1      28.822   1.026  53.520  1.00  0.00     0.008 A 
HETATM   11  C2  UNL     1      28.732  -0.353  53.369  1.00  0.00    -0.062 A 
HETATM   12  C1  UNL     1      29.904  -1.160  53.815  1.00  0.00     0.048 C 
HETATM   13  C14 UNL     1      27.582  -0.862  52.824  1.00  0.00     0.008 A 
HETATM   14  C13 UNL     1      26.536  -0.039  52.434  1.00  0.00     0.026 A 
ENDBRANCH   5   8
ENDBRANCH   1   5
BRANCH   2  15
HETATM   15  C7  UNL     1      25.049   5.672  49.723  1.00  0.00     0.107 A 
HETATM   16  C8  UNL     1      26.171   5.499  48.813  1.00  0.00    -0.012 A 
HETATM   17  C9  UNL     1      27.204   6.226  48.429  1.00  0.00    -0.001 A 
HETATM   18  C10 UNL     1      27.265   7.536  49.058  1.00  0.00     0.037 A 
HETATM   19  C11 UNL     1      26.271   7.756  49.898  1.00  0.00     0.095 A 
HETATM   20  F1  UNL     1      26.293   8.984  50.512  1.00  0.00    -0.211 F 
HETATM   21  C12 UNL     1      25.091   7.005  50.377  1.00  0.00     0.088 A 
ENDBRANCH   2  15
TORSDOF 3
ENDMDL
MODEL 5
REMARK VINA RESULT:      -7.5      3.378      4.585
REMARK  3 active torsions:
REMARK  status: ('A' for Active; 'I' for Inactive)
REMARK    1  A    between atoms: C5_5  and  S1_6 
REMARK    2  A    between atoms: S1_6  and  N1_9 
REMARK       I    between atoms: N1_9  and  C6_10 
REMARK    3  A    between atoms: C6_10  and  C7_12 
ROOT
HETATM    1  N1  UNL     1      25.050   2.977  51.156  1.00  0.00    -0.250 N 
HETATM    2  C6  UNL     1      25.666   2.326  52.252  1.00  0.00     0.239 C 
HETATM    3  O3  UNL     1      24.973   2.452  53.318  1.00  0.00    -0.272 OA
HETATM    4  H6  UNL     1      25.526   2.946  50.211  1.00  0.00     0.182 HD
ENDROOT
BRANCH   1   5
HETATM    5  S1  UNL     1      23.558   3.736  51.604  1.00  0.00     0.265 S 
HETATM    6  O1  UNL     1      23.651   4.451  52.911  1.00  0.00    -0.200 OA
HETATM    7  O2  UNL     1      23.302   4.791  50.550  1.00  0.00    -0.200 OA
BRANCH   5   8
HETATM    8  C5  UNL     1      22.250   2.579  51.673  1.00  0.00     0.080 A 
HETATM    9  C4  UNL     1      21.072   2.879  52.325  1.00  0.00     0.026 A 
HETATM   10  C3  UNL     1      20.021   1.986  52.395  1.00  0.00     0.008 A 
HETATM   11  C2  UNL     1      20.122   0.733  51.802  1.00  0.00    -0.062 A 
HETATM   12  C1  UNL     1      18.942  -0.171  51.926  1.00  0.00     0.048 C 
HETATM   13  C14 UNL     1      21.289   0.426  51.153  1.00  0.00     0.008 A 
HETATM   14  C13 UNL     1      22.341   1.327  51.085  1.00  0.00     0.026 A 
ENDBRANCH   5   8
ENDBRANCH   1   5
BRANCH   2  15
HETATM   15  C7  UNL     1      26.951   1.593  52.165  1.00  0.00     0.107 A 
HETATM   16  C8  UNL     1      26.808   0.145  52.184  1.00  0.00    -0.012 A 
HETATM   17  C9  UNL     1      27.350  -0.855  52.856  1.00  0.00    -0.001 A 
HETATM   18  C10 UNL     1      28.343  -0.435  53.832  1.00  0.00     0.037 A 
HETATM   19  C11 UNL     1      28.520   0.872  53.864  1.00  0.00     0.095 A 
HETATM   20  F1  UNL     1      29.452   1.308  54.774  1.00  0.00    -0.211 F 
HETATM   21  C12 UNL     1      27.963   2.044  53.156  1.00  0.00     0.088 A 
ENDBRANCH   2  15
TORSDOF 3
ENDMDL
MODEL 6
REMARK VINA RESULT:      -7.5      4.963      6.038
REMARK  3 active torsions:
REMARK  status: ('A' for Active; 'I' for Inactive)
REMARK    1  A    between atoms: C5_5  and  S1_6 
REMARK    2  A    between atoms: S1_6  and  N1_9 
REMARK       I    between atoms: N1_9  and  C6_10 
REMARK    3  A    between atoms: C6_10  and  C7_12 
ROOT
HETATM    1  N1  UNL     1      22.915   0.137  53.032  1.00  0.00    -0.250 N 
HETATM    2  C6  UNL     1      24.113  -0.201  53.707  1.00  0.00     0.239 C 
HETATM    3  O3  UNL     1      23.881  -0.934  54.727  1.00  0.00    -0.272 OA
HETATM    4  H6  UNL     1      22.971   0.743  52.165  1.00  0.00     0.182 HD
ENDROOT
BRANCH   1   5
HETATM    5  S1  UNL     1      21.520  -0.546  53.798  1.00  0.00     0.265 S 
HETATM    6  O1  UNL     1      21.703  -1.988  54.137  1.00  0.00    -0.200 OA
HETATM    7  O2  UNL     1      21.369   0.192  55.111  1.00  0.00    -0.200 OA
BRANCH   5   8
HETATM    8  C5  UNL     1      20.093  -0.366  52.804  1.00  0.00     0.080 A 
HETATM    9  C4  UNL     1      20.137   0.355  51.628  1.00  0.00     0.026 A 
HETATM   10  C3  UNL     1      19.027   0.514  50.821  1.00  0.00     0.008 A 
HETATM   11  C2  UNL     1      17.810  -0.056  51.177  1.00  0.00    -0.062 A 
HETATM   12  C1  UNL     1      16.663   0.165  50.251  1.00  0.00     0.048 C 
HETATM   13  C14 UNL     1      17.759  -0.772  52.345  1.00  0.00     0.008 A 
HETATM   14  C13 UNL     1      18.876  -0.930  53.151  1.00  0.00     0.026 A 
ENDBRANCH   5   8
ENDBRANCH   1   5
BRANCH   2  15
HETATM   15  C7  UNL     1      25.459   0.244  53.277  1.00  0.00     0.107 A 
HETATM   16  C8  UNL     1      26.167  -0.726  52.454  1.00  0.00    -0.012 A 
HETATM   17  C9  UNL     1      27.366  -1.279  52.455  1.00  0.00    -0.001 A 
HETATM   18  C10 UNL     1      28.220  -0.825  53.542  1.00  0.00     0.037 A 
HETATM   19  C11 UNL     1      27.634   0.059  54.327  1.00  0.00     0.095 A 
HETATM   20  F1  UNL     1      28.409   0.513  55.366  1.00  0.00    -0.211 F 
HETATM   21  C12 UNL     1      26.314   0.721  54.395  1.00  0.00     0.088 A 
ENDBRANCH   2  15
TORSDOF 3
ENDMDL
MODEL 7
REMARK VINA RESULT:      -7.4      2.459      3.604
REMARK  3 active torsions:
REMARK  status: ('A' for Active; 'I' for Inactive)
REMARK    1  A    between atoms: C5_5  and  S1_6 
REMARK    2  A    between atoms: S1_6  and  N1_9 
REMARK       I    between atoms: N1_9  and  C6_10 
REMARK    3  A    between atoms: C6_10  and  C7_12 
ROOT
HETATM    1  N1  UNL     1      25.595   3.686  51.236  1.00  0.00    -0.250 N 
HETATM    2  C6  UNL     1      24.534   3.011  51.886  1.00  0.00     0.239 C 
HETATM    3  O3  UNL     1      23.406   3.307  51.364  1.00  0.00    -0.272 OA
HETATM    4  H6  UNL     1      26.586   3.525  51.575  1.00  0.00     0.182 HD
ENDROOT
BRANCH   1   5
HETATM    5  S1  UNL     1      25.033   4.694  49.944  1.00  0.00     0.265 S 
HETATM    6  O1  UNL     1      24.201   3.946  48.957  1.00  0.00    -0.200 OA
HETATM    7  O2  UNL     1      24.126   5.719  50.589  1.00  0.00    -0.200 OA
BRANCH   5   8
HETATM    8  C5  UNL     1      26.364   5.462  49.110  1.00  0.00     0.080 A 
HETATM    9  C4  UNL     1      27.547   4.786  48.891  1.00  0.00     0.026 A 
HETATM   10  C3  UNL     1      28.615   5.366  48.235  1.00  0.00     0.008 A 
HETATM   11  C2  UNL     1      28.529   6.672  47.768  1.00  0.00    -0.062 A 
HETATM   12  C1  UNL     1      29.727   7.222  47.072  1.00  0.00     0.048 C 
HETATM   13  C14 UNL     1      27.358   7.351  47.982  1.00  0.00     0.008 A 
HETATM   14  C13 UNL     1      26.288   6.763  48.641  1.00  0.00     0.026 A 
ENDBRANCH   5   8
ENDBRANCH   1   5
BRANCH   2  15
HETATM   15  C7  UNL     1      24.717   2.083  53.026  1.00  0.00     0.107 A 
HETATM   16  C8  UNL     1      26.027   1.449  53.067  1.00  0.00    -0.012 A 
HETATM   17  C9  UNL     1      26.482   0.216  53.190  1.00  0.00    -0.001 A 
HETATM   18  C10 UNL     1      25.436  -0.786  53.317  1.00  0.00     0.037 A 
HETATM   19  C11 UNL     1      24.221  -0.274  53.287  1.00  0.00     0.095 A 
HETATM   20  F1  UNL     1      23.203  -1.190  53.405  1.00  0.00    -0.211 F 
HETATM   21  C12 UNL     1      23.632   1.076  53.154  1.00  0.00     0.088 A 
ENDBRANCH   2  15
TORSDOF 3
ENDMDL
MODEL 8
REMARK VINA RESULT:      -7.2      2.931      3.889
REMARK  3 active torsions:
REMARK  status: ('A' for Active; 'I' for Inactive)
REMARK    1  A    between atoms: C5_5  and  S1_6 
REMARK    2  A    between atoms: S1_6  and  N1_9 
REMARK       I    between atoms: N1_9  and  C6_10 
REMARK    3  A    between atoms: C6_10  and  C7_12 
ROOT
HETATM    1  N1  UNL     1      22.364   2.127  51.207  1.00  0.00    -0.250 N 
HETATM    2  C6  UNL     1      22.979   1.620  52.377  1.00  0.00     0.239 C 
HETATM    3  O3  UNL     1      23.560   2.547  53.036  1.00  0.00    -0.272 OA
HETATM    4  H6  UNL     1      21.846   1.457  50.571  1.00  0.00     0.182 HD
ENDROOT
BRANCH   1   5
HETATM    5  S1  UNL     1      22.592   3.836  51.039  1.00  0.00     0.265 S 
HETATM    6  O1  UNL     1      21.509   4.481  50.240  1.00  0.00    -0.200 OA
HETATM    7  O2  UNL     1      22.496   4.403  52.439  1.00  0.00    -0.200 OA
BRANCH   5   8
HETATM    8  C5  UNL     1      24.140   4.204  50.313  1.00  0.00     0.080 A 
HETATM    9  C4  UNL     1      25.053   3.205  50.049  1.00  0.00     0.026 A 
HETATM   10  C3  UNL     1      26.283   3.464  49.476  1.00  0.00     0.008 A 
HETATM   11  C2  UNL     1      26.644   4.765  49.144  1.00  0.00    -0.062 A 
HETATM   12  C1  UNL     1      27.989   4.957  48.530  1.00  0.00     0.048 C 
HETATM   13  C14 UNL     1      25.742   5.763  49.404  1.00  0.00     0.008 A 
HETATM   14  C13 UNL     1      24.508   5.497  49.979  1.00  0.00     0.026 A 
ENDBRANCH   5   8
ENDBRANCH   1   5
BRANCH   2  15
HETATM   15  C7  UNL     1      22.947   0.193  52.777  1.00  0.00     0.107 A 
HETATM   16  C8  UNL     1      21.799  -0.165  53.598  1.00  0.00    -0.012 A 
HETATM   17  C9  UNL     1      21.608  -0.799  54.739  1.00  0.00    -0.001 A 
HETATM   18  C10 UNL     1      22.835  -1.272  55.360  1.00  0.00     0.037 A 
HETATM   19  C11 UNL     1      23.916  -0.978  54.664  1.00  0.00     0.095 A 
HETATM   20  F1  UNL     1      25.097  -1.408  55.217  1.00  0.00    -0.211 F 
HETATM   21  C12 UNL     1      24.213  -0.281  53.394  1.00  0.00     0.088 A 
ENDBRANCH   2  15
TORSDOF 3
ENDMDL
MODEL 9
REMARK VINA RESULT:      -7.0      3.088      6.689
REMARK  3 active torsions:
REMARK  status: ('A' for Active; 'I' for Inactive)
REMARK    1  A    between atoms: C5_5  and  S1_6 
REMARK    2  A    between atoms: S1_6  and  N1_9 
REMARK       I    between atoms: N1_9  and  C6_10 
REMARK    3  A    between atoms: C6_10  and  C7_12 
ROOT
HETATM    1  N1  UNL     1      23.914   1.735  51.160  1.00  0.00    -0.250 N 
HETATM    2  C6  UNL     1      24.392   2.932  50.572  1.00  0.00     0.239 C 
HETATM    3  O3  UNL     1      25.024   3.647  51.422  1.00  0.00    -0.272 OA
HETATM    4  H6  UNL     1      23.372   1.053  50.559  1.00  0.00     0.182 HD
ENDROOT
BRANCH   1   5
HETATM    5  S1  UNL     1      24.333   1.620  52.837  1.00  0.00     0.265 S 
HETATM    6  O1  UNL     1      24.294   2.942  53.527  1.00  0.00    -0.200 OA
HETATM    7  O2  UNL     1      23.257   0.766  53.471  1.00  0.00    -0.200 OA
BRANCH   5   8
HETATM    8  C5  UNL     1      25.915   0.906  53.050  1.00  0.00     0.080 A 
HETATM    9  C4  UNL     1      26.156  -0.402  52.684  1.00  0.00     0.026 A 
HETATM   10  C3  UNL     1      27.395  -0.994  52.839  1.00  0.00     0.008 A 
HETATM   11  C2  UNL     1      28.454  -0.276  53.382  1.00  0.00    -0.062 A 
HETATM   12  C1  UNL     1      29.756  -0.989  53.516  1.00  0.00     0.048 C 
HETATM   13  C14 UNL     1      28.222   1.024  53.749  1.00  0.00     0.008 A 
HETATM   14  C13 UNL     1      26.976   1.613  53.590  1.00  0.00     0.026 A 
ENDBRANCH   5   8
ENDBRANCH   1   5
BRANCH   2  15
HETATM   15  C7  UNL     1      24.182   3.299  49.152  1.00  0.00     0.107 A 
HETATM   16  C8  UNL     1      24.212   4.732  48.901  1.00  0.00    -0.012 A 
HETATM   17  C9  UNL     1      23.442   5.603  48.276  1.00  0.00    -0.001 A 
HETATM   18  C10 UNL     1      22.255   5.013  47.677  1.00  0.00     0.037 A 
HETATM   19  C11 UNL     1      22.169   3.711  47.870  1.00  0.00     0.095 A 
HETATM   20  F1  UNL     1      21.061   3.116  47.317  1.00  0.00    -0.211 F 
HETATM   21  C12 UNL     1      22.977   2.675  48.548  1.00  0.00     0.088 A 
ENDBRANCH   2  15
TORSDOF 3
ENDMDL
