MODEL 1
REMARK VINA RESULT:      -8.6      0.000      0.000
REMARK  6 active torsions:
REMARK  status: ('A' for Active; 'I' for Inactive)
REMARK    1  A    between atoms: N1_2  and  C3_4 
REMARK    2  A    between atoms: C3_4  and  C4_5 
REMARK    3  A    between atoms: C5_6  and  C6_7 
REMARK       I    between atoms: C6_7  and  N2_9 
REMARK    4  A    between atoms: N2_9  and  C7_10 
REMARK    5  A    between atoms: C16_23  and  N5_24 
REMARK    6  A    between atoms: N5_24  and  C17_25 
ROOT
HETATM    1  C7  UNL     1      24.312   1.106  52.047  1.00  0.00     0.148 C 
HETATM    2  C8  UNL     1      25.840   1.189  52.328  1.00  0.00     0.199 C 
HETATM    3  O2  UNL     1      26.397  -0.046  52.030  1.00  0.00    -0.377 OA
HETATM    4  C9  UNL     1      27.422  -0.378  52.904  1.00  0.00     0.180 C 
HETATM    5  C10 UNL     1      28.482   0.682  53.058  1.00  0.00     0.065 C 
HETATM    6  C11 UNL     1      28.938   0.567  54.523  1.00  0.00     0.178 C 
HETATM    7  O3  UNL     1      27.954  -0.295  55.122  1.00  0.00    -0.353 OA
HETATM    8  C12 UNL     1      26.839  -0.344  54.299  1.00  0.00     0.077 C 
HETATM    9  C13 UNL     1      25.618  -0.348  54.876  1.00  0.00     0.067 C 
HETATM   10  C14 UNL     1      24.271  -0.392  54.248  1.00  0.00     0.072 A 
HETATM   11  N3  UNL     1      23.604  -1.189  55.104  1.00  0.00    -0.241 NA
HETATM   12  C15 UNL     1      22.319  -1.459  54.820  1.00  0.00     0.235 A 
HETATM   13  N4  UNL     1      21.824  -0.908  53.708  1.00  0.00    -0.224 NA
HETATM   14  C16 UNL     1      22.451  -0.119  52.844  1.00  0.00     0.140 A 
HETATM   15  C23 UNL     1      23.764   0.197  53.075  1.00  0.00     0.041 A 
ENDROOT
BRANCH   1  16
HETATM   16  N2  UNL     1      23.745   2.421  52.255  1.00  0.00    -0.347 N 
HETATM   17  C6  UNL     1      23.607   3.573  51.442  1.00  0.00     0.241 C 
HETATM   18  O1  UNL     1      24.063   3.487  50.271  1.00  0.00    -0.269 OA
HETATM   19  H11 UNL     1      23.338   2.580  53.227  1.00  0.00     0.163 HD
BRANCH  17  20
HETATM   20  C5  UNL     1      22.989   4.803  51.869  1.00  0.00     0.072 C 
HETATM   21  C4  UNL     1      22.482   5.536  50.897  1.00  0.00     0.008 C 
BRANCH  21  22
HETATM   22  C3  UNL     1      21.792   6.829  50.994  1.00  0.00     0.299 C 
BRANCH  22  23
HETATM   23  N1  UNL     1      22.325   7.753  50.037  1.00  0.00     0.083 N 
HETATM   24  C1  UNL     1      23.655   8.165  50.361  1.00  0.00     0.309 C 
HETATM   25  C2  UNL     1      22.261   7.229  48.681  1.00  0.00     0.309 C 
ENDBRANCH  22  23
ENDBRANCH  21  22
ENDBRANCH  17  20
ENDBRANCH   1  16
BRANCH  14  26
HETATM   26  N5  UNL     1      21.838   0.409  51.689  1.00  0.00    -0.340 N 
HETATM   27  H22 UNL     1      22.313   0.447  50.770  1.00  0.00     0.167 HD
BRANCH  26  28
HETATM   28  C17 UNL     1      20.532   0.942  51.544  1.00  0.00     0.035 A 
HETATM   29  C18 UNL     1      20.229   2.253  51.876  1.00  0.00     0.032 A 
HETATM   30  C19 UNL     1      18.984   2.832  51.766  1.00  0.00     0.046 A 
HETATM   31  C20 UNL     1      17.942   2.061  51.288  1.00  0.00     0.138 A 
HETATM   32  F1  UNL     1      16.683   2.524  51.139  1.00  0.00    -0.204 F 
HETATM   33  C21 UNL     1      18.183   0.758  50.943  1.00  0.00     0.074 A 
HETATM   34 CL1  UNL     1      16.890  -0.249  50.334  1.00  0.00    -0.081 Cl
HETATM   35  C22 UNL     1      19.437   0.253  51.077  1.00  0.00     0.056 A 
ENDBRANCH  26  28
ENDBRANCH  14  26
TORSDOF 6
ENDMDL
MODEL 2
REMARK VINA RESULT:      -8.5      4.275      7.203
REMARK  6 active torsions:
REMARK  status: ('A' for Active; 'I' for Inactive)
REMARK    1  A    between atoms: N1_2  and  C3_4 
REMARK    2  A    between atoms: C3_4  and  C4_5 
REMARK    3  A    between atoms: C5_6  and  C6_7 
REMARK       I    between atoms: C6_7  and  N2_9 
REMARK    4  A    between atoms: N2_9  and  C7_10 
REMARK    5  A    between atoms: C16_23  and  N5_24 
REMARK    6  A    between atoms: N5_24  and  C17_25 
ROOT
HETATM    1  C7  UNL     1      23.246   3.044  52.000  1.00  0.00     0.148 C 
HETATM    2  C8  UNL     1      21.987   3.653  51.321  1.00  0.00     0.199 C 
HETATM    3  O2  UNL     1      20.987   3.744  52.278  1.00  0.00    -0.377 OA
HETATM    4  C9  UNL     1      19.732   3.485  51.745  1.00  0.00     0.180 C 
HETATM    5  C10 UNL     1      19.395   4.289  50.517  1.00  0.00     0.065 C 
HETATM    6  C11 UNL     1      18.530   3.348  49.660  1.00  0.00     0.178 C 
HETATM    7  O3  UNL     1      18.683   2.067  50.296  1.00  0.00    -0.353 OA
HETATM    8  C12 UNL     1      19.795   2.107  51.124  1.00  0.00     0.077 C 
HETATM    9  C13 UNL     1      20.593   1.018  51.176  1.00  0.00     0.067 C 
HETATM   10  C14 UNL     1      21.834   0.787  51.962  1.00  0.00     0.072 A 
HETATM   11  N3  UNL     1      21.692  -0.505  52.310  1.00  0.00    -0.241 NA
HETATM   12  C15 UNL     1      22.662  -1.051  53.064  1.00  0.00     0.235 A 
HETATM   13  N4  UNL     1      23.679  -0.252  53.398  1.00  0.00    -0.224 NA
HETATM   14  C16 UNL     1      23.851   1.024  53.073  1.00  0.00     0.140 A 
HETATM   15  C23 UNL     1      22.899   1.641  52.304  1.00  0.00     0.041 A 
ENDROOT
BRANCH   1  16
HETATM   16  N2  UNL     1      24.323   3.046  51.033  1.00  0.00    -0.347 N 
HETATM   17  C6  UNL     1      25.082   4.066  50.408  1.00  0.00     0.241 C 
HETATM   18  O1  UNL     1      24.796   5.250  50.728  1.00  0.00    -0.269 OA
HETATM   19  H11 UNL     1      24.626   2.079  50.705  1.00  0.00     0.163 HD
BRANCH  17  20
HETATM   20  C5  UNL     1      26.136   3.828  49.453  1.00  0.00     0.072 C 
HETATM   21  C4  UNL     1      26.964   4.840  49.279  1.00  0.00     0.008 C 
BRANCH  21  22
HETATM   22  C3  UNL     1      28.130   4.922  48.389  1.00  0.00     0.299 C 
BRANCH  22  23
HETATM   23  N1  UNL     1      28.362   6.279  47.993  1.00  0.00     0.083 N 
HETATM   24  C1  UNL     1      27.497   7.196  48.665  1.00  0.00     0.309 C 
HETATM   25  C2  UNL     1      29.755   6.664  48.160  1.00  0.00     0.309 C 
ENDBRANCH  22  23
ENDBRANCH  21  22
ENDBRANCH  17  20
ENDBRANCH   1  16
BRANCH  14  26
HETATM   26  N5  UNL     1      24.964   1.786  53.485  1.00  0.00    -0.340 N 
HETATM   27  H22 UNL     1      24.877   2.748  53.858  1.00  0.00     0.167 HD
BRANCH  26  28
HETATM   28  C17 UNL     1      26.334   1.421  53.493  1.00  0.00     0.035 A 
HETATM   29  C18 UNL     1      27.346   2.353  53.656  1.00  0.00     0.032 A 
HETATM   30  C19 UNL     1      28.693   2.069  53.667  1.00  0.00     0.046 A 
HETATM   31  C20 UNL     1      29.088   0.755  53.505  1.00  0.00     0.138 A 
HETATM   32  F1  UNL     1      30.379   0.361  53.500  1.00  0.00    -0.204 F 
HETATM   33  C21 UNL     1      28.131  -0.210  53.340  1.00  0.00     0.074 A 
HETATM   34 CL1  UNL     1      28.590  -1.885  53.133  1.00  0.00    -0.081 Cl
HETATM   35  C22 UNL     1      26.819   0.143  53.340  1.00  0.00     0.056 A 
ENDBRANCH  26  28
ENDBRANCH  14  26
TORSDOF 6
ENDMDL
MODEL 3
REMARK VINA RESULT:      -8.4      2.594      7.016
REMARK  6 active torsions:
REMARK  status: ('A' for Active; 'I' for Inactive)
REMARK    1  A    between atoms: N1_2  and  C3_4 
REMARK    2  A    between atoms: C3_4  and  C4_5 
REMARK    3  A    between atoms: C5_6  and  C6_7 
REMARK       I    between atoms: C6_7  and  N2_9 
REMARK    4  A    between atoms: N2_9  and  C7_10 
REMARK    5  A    between atoms: C16_23  and  N5_24 
REMARK    6  A    between atoms: N5_24  and  C17_25 
ROOT
HETATM    1  C7  UNL     1      23.867   3.982  51.336  1.00  0.00     0.148 C 
HETATM    2  C8  UNL     1      24.025   5.511  51.100  1.00  0.00     0.199 C 
HETATM    3  O2  UNL     1      22.760   6.079  51.116  1.00  0.00    -0.377 OA
HETATM    4  C9  UNL     1      22.644   7.116  50.202  1.00  0.00     0.180 C 
HETATM    5  C10 UNL     1      23.720   8.165  50.304  1.00  0.00     0.065 C 
HETATM    6  C11 UNL     1      23.945   8.636  48.856  1.00  0.00     0.178 C 
HETATM    7  O3  UNL     1      23.232   7.668  48.066  1.00  0.00    -0.353 OA
HETATM    8  C12 UNL     1      22.988   6.546  48.844  1.00  0.00     0.077 C 
HETATM    9  C13 UNL     1      23.103   5.330  48.267  1.00  0.00     0.067 C 
HETATM   10  C14 UNL     1      22.906   3.978  48.853  1.00  0.00     0.072 A 
HETATM   11  N3  UNL     1      22.318   3.328  47.832  1.00  0.00    -0.241 NA
HETATM   12  C15 UNL     1      21.979   2.043  48.032  1.00  0.00     0.235 A 
HETATM   13  N4  UNL     1      22.260   1.531  49.234  1.00  0.00    -0.224 NA
HETATM   14  C16 UNL     1      22.838   2.142  50.262  1.00  0.00     0.140 A 
HETATM   15  C23 UNL     1      23.210   3.454  50.123  1.00  0.00     0.041 A 
ENDROOT
BRANCH   1  16
HETATM   16  N2  UNL     1      25.190   3.402  51.425  1.00  0.00    -0.347 N 
HETATM   17  C6  UNL     1      25.873   2.658  52.418  1.00  0.00     0.241 C 
HETATM   18  O1  UNL     1      25.235   2.423  53.478  1.00  0.00    -0.269 OA
HETATM   19  H11 UNL     1      25.801   3.559  50.567  1.00  0.00     0.163 HD
BRANCH  17  20
HETATM   20  C5  UNL     1      27.223   2.168  52.285  1.00  0.00     0.072 C 
HETATM   21  C4  UNL     1      27.834   1.908  53.424  1.00  0.00     0.008 C 
BRANCH  21  22
HETATM   22  C3  UNL     1      29.196   1.401  53.635  1.00  0.00     0.299 C 
BRANCH  22  23
HETATM   23  N1  UNL     1      29.166   0.193  54.404  1.00  0.00     0.083 N 
HETATM   24  C1  UNL     1      27.892  -0.035  55.010  1.00  0.00     0.309 C 
HETATM   25  C2  UNL     1      29.581  -0.961  53.622  1.00  0.00     0.309 C 
ENDBRANCH  22  23
ENDBRANCH  21  22
ENDBRANCH  17  20
ENDBRANCH   1  16
BRANCH  14  26
HETATM   26  N5  UNL     1      23.085   1.513  51.499  1.00  0.00    -0.340 N 
HETATM   27  H22 UNL     1      23.959   1.654  52.036  1.00  0.00     0.167 HD
BRANCH  26  28
HETATM   28  C17 UNL     1      22.246   0.632  52.229  1.00  0.00     0.035 A 
HETATM   29  C18 UNL     1      22.744  -0.248  53.175  1.00  0.00     0.032 A 
HETATM   30  C19 UNL     1      21.989  -1.133  53.913  1.00  0.00     0.046 A 
HETATM   31  C20 UNL     1      20.623  -1.159  53.707  1.00  0.00     0.138 A 
HETATM   32  F1  UNL     1      19.787  -1.983  54.372  1.00  0.00    -0.204 F 
HETATM   33  C21 UNL     1      20.074  -0.310  52.783  1.00  0.00     0.074 A 
HETATM   34 CL1  UNL     1      18.349  -0.313  52.495  1.00  0.00    -0.081 Cl
HETATM   35  C22 UNL     1      20.880   0.536  52.092  1.00  0.00     0.056 A 
ENDBRANCH  26  28
ENDBRANCH  14  26
TORSDOF 6
ENDMDL
MODEL 4
REMARK VINA RESULT:      -8.0      2.459      6.165
REMARK  6 active torsions:
REMARK  status: ('A' for Active; 'I' for Inactive)
REMARK    1  A    between atoms: N1_2  and  C3_4 
REMARK    2  A    between atoms: C3_4  and  C4_5 
REMARK    3  A    between atoms: C5_6  and  C6_7 
REMARK       I    between atoms: C6_7  and  N2_9 
REMARK    4  A    between atoms: N2_9  and  C7_10 
REMARK    5  A    between atoms: C16_23  and  N5_24 
REMARK    6  A    between atoms: N5_24  and  C17_25 
ROOT
HETATM    1  C7  UNL     1      22.694   3.195  52.186  1.00  0.00     0.148 C 
HETATM    2  C8  UNL     1      23.589   4.434  51.900  1.00  0.00     0.199 C 
HETATM    3  O2  UNL     1      22.803   5.395  51.280  1.00  0.00    -0.377 OA
HETATM    4  C9  UNL     1      23.508   6.103  50.318  1.00  0.00     0.180 C 
HETATM    5  C10 UNL     1      24.813   6.683  50.798  1.00  0.00     0.065 C 
HETATM    6  C11 UNL     1      25.744   6.615  49.575  1.00  0.00     0.178 C 
HETATM    7  O3  UNL     1      25.029   5.782  48.645  1.00  0.00    -0.353 OA
HETATM    8  C12 UNL     1      24.042   5.089  49.331  1.00  0.00     0.077 C 
HETATM    9  C13 UNL     1      23.813   3.801  48.991  1.00  0.00     0.067 C 
HETATM   10  C14 UNL     1      22.835   2.832  49.551  1.00  0.00     0.072 A 
HETATM   11  N3  UNL     1      22.448   2.173  48.444  1.00  0.00    -0.241 NA
HETATM   12  C15 UNL     1      21.528   1.205  48.591  1.00  0.00     0.235 A 
HETATM   13  N4  UNL     1      21.082   0.989  49.832  1.00  0.00    -0.224 NA
HETATM   14  C16 UNL     1      21.441   1.618  50.945  1.00  0.00     0.140 A 
HETATM   15  C23 UNL     1      22.377   2.615  50.865  1.00  0.00     0.041 A 
ENDROOT
BRANCH   1  16
HETATM   16  N2  UNL     1      23.483   2.233  52.926  1.00  0.00    -0.347 N 
HETATM   17  C6  UNL     1      24.725   1.592  52.693  1.00  0.00     0.241 C 
HETATM   18  O1  UNL     1      25.313   1.888  51.620  1.00  0.00    -0.269 OA
HETATM   19  H11 UNL     1      23.052   1.924  53.850  1.00  0.00     0.163 HD
BRANCH  17  20
HETATM   20  C5  UNL     1      25.335   0.647  53.595  1.00  0.00     0.072 C 
HETATM   21  C4  UNL     1      26.578   0.927  53.933  1.00  0.00     0.008 C 
BRANCH  21  22
HETATM   22  C3  UNL     1      27.473   0.176  54.824  1.00  0.00     0.299 C 
BRANCH  22  23
HETATM   23  N1  UNL     1      28.838   0.535  54.579  1.00  0.00     0.083 N 
HETATM   24  C1  UNL     1      29.538  -0.465  53.836  1.00  0.00     0.309 C 
HETATM   25  C2  UNL     1      28.953   1.834  53.935  1.00  0.00     0.309 C 
ENDBRANCH  22  23
ENDBRANCH  21  22
ENDBRANCH  17  20
ENDBRANCH   1  16
BRANCH  14  26
HETATM   26  N5  UNL     1      20.901   1.318  52.213  1.00  0.00    -0.340 N 
HETATM   27  H22 UNL     1      21.134   1.860  53.064  1.00  0.00     0.167 HD
BRANCH  26  28
HETATM   28  C17 UNL     1      19.981   0.299  52.567  1.00  0.00     0.035 A 
HETATM   29  C18 UNL     1      20.271  -0.659  53.524  1.00  0.00     0.032 A 
HETATM   30  C19 UNL     1      19.428  -1.677  53.910  1.00  0.00     0.046 A 
HETATM   31  C20 UNL     1      18.188  -1.767  53.306  1.00  0.00     0.138 A 
HETATM   32  F1  UNL     1      17.283  -2.721  53.605  1.00  0.00    -0.204 F 
HETATM   33  C21 UNL     1      17.846  -0.846  52.352  1.00  0.00     0.074 A 
HETATM   34 CL1  UNL     1      16.287  -0.925  51.565  1.00  0.00    -0.081 Cl
HETATM   35  C22 UNL     1      18.728   0.132  52.022  1.00  0.00     0.056 A 
ENDBRANCH  26  28
ENDBRANCH  14  26
TORSDOF 6
ENDMDL
MODEL 5
REMARK VINA RESULT:      -7.9      4.343      6.458
REMARK  6 active torsions:
REMARK  status: ('A' for Active; 'I' for Inactive)
REMARK    1  A    between atoms: N1_2  and  C3_4 
REMARK    2  A    between atoms: C3_4  and  C4_5 
REMARK    3  A    between atoms: C5_6  and  C6_7 
REMARK       I    between atoms: C6_7  and  N2_9 
REMARK    4  A    between atoms: N2_9  and  C7_10 
REMARK    5  A    between atoms: C16_23  and  N5_24 
REMARK    6  A    between atoms: N5_24  and  C17_25 
ROOT
HETATM    1  C7  UNL     1      22.503   2.366  51.737  1.00  0.00     0.148 C 
HETATM    2  C8  UNL     1      21.336   1.430  52.164  1.00  0.00     0.199 C 
HETATM    3  O2  UNL     1      21.138   1.589  53.527  1.00  0.00    -0.377 OA
HETATM    4  C9  UNL     1      20.792   0.395  54.145  1.00  0.00     0.180 C 
HETATM    5  C10 UNL     1      19.640  -0.331  53.501  1.00  0.00     0.065 C 
HETATM    6  C11 UNL     1      19.965  -1.823  53.692  1.00  0.00     0.178 C 
HETATM    7  O3  UNL     1      21.332  -1.823  54.139  1.00  0.00    -0.353 OA
HETATM    8  C12 UNL     1      21.899  -0.591  53.846  1.00  0.00     0.077 C 
HETATM    9  C13 UNL     1      23.176  -0.563  53.407  1.00  0.00     0.067 C 
HETATM   10  C14 UNL     1      24.023   0.597  53.022  1.00  0.00     0.072 A 
HETATM   11  N3  UNL     1      25.223   0.223  53.501  1.00  0.00    -0.241 NA
HETATM   12  C15 UNL     1      26.248   1.075  53.333  1.00  0.00     0.235 A 
HETATM   13  N4  UNL     1      25.975   2.220  52.702  1.00  0.00    -0.224 NA
HETATM   14  C16 UNL     1      24.805   2.621  52.216  1.00  0.00     0.140 A 
HETATM   15  C23 UNL     1      23.719   1.798  52.354  1.00  0.00     0.041 A 
ENDROOT
BRANCH   1  16
HETATM   16  N2  UNL     1      22.642   2.283  50.298  1.00  0.00    -0.347 N 
HETATM   17  C6  UNL     1      22.038   2.961  49.211  1.00  0.00     0.241 C 
HETATM   18  O1  UNL     1      21.184   3.838  49.505  1.00  0.00    -0.269 OA
HETATM   19  H11 UNL     1      23.347   1.558  49.963  1.00  0.00     0.163 HD
BRANCH  17  20
HETATM   20  C5  UNL     1      22.342   2.708  47.824  1.00  0.00     0.072 C 
HETATM   21  C4  UNL     1      21.853   3.595  46.980  1.00  0.00     0.008 C 
BRANCH  21  22
HETATM   22  C3  UNL     1      21.979   3.629  45.516  1.00  0.00     0.299 C 
BRANCH  22  23
HETATM   23  N1  UNL     1      22.009   4.983  45.049  1.00  0.00     0.083 N 
HETATM   24  C1  UNL     1      20.927   5.276  44.162  1.00  0.00     0.309 C 
HETATM   25  C2  UNL     1      22.052   5.937  46.146  1.00  0.00     0.309 C 
ENDBRANCH  22  23
ENDBRANCH  21  22
ENDBRANCH  17  20
ENDBRANCH   1  16
BRANCH  14  26
HETATM   26  N5  UNL     1      24.618   3.860  51.569  1.00  0.00    -0.340 N 
HETATM   27  H22 UNL     1      23.824   4.489  51.781  1.00  0.00     0.167 HD
BRANCH  26  28
HETATM   28  C17 UNL     1      25.426   4.473  50.578  1.00  0.00     0.035 A 
HETATM   29  C18 UNL     1      26.415   3.780  49.898  1.00  0.00     0.032 A 
HETATM   30  C19 UNL     1      27.237   4.315  48.931  1.00  0.00     0.046 A 
HETATM   31  C20 UNL     1      27.078   5.646  48.598  1.00  0.00     0.138 A 
HETATM   32  F1  UNL     1      27.827   6.274  47.666  1.00  0.00    -0.204 F 
HETATM   33  C21 UNL     1      26.116   6.381  49.237  1.00  0.00     0.074 A 
HETATM   34 CL1  UNL     1      25.884   8.069  48.843  1.00  0.00    -0.081 Cl
HETATM   35  C22 UNL     1      25.340   5.788  50.181  1.00  0.00     0.056 A 
ENDBRANCH  26  28
ENDBRANCH  14  26
TORSDOF 6
ENDMDL
MODEL 6
REMARK VINA RESULT:      -7.9      2.842      3.699
REMARK  6 active torsions:
REMARK  status: ('A' for Active; 'I' for Inactive)
REMARK    1  A    between atoms: N1_2  and  C3_4 
REMARK    2  A    between atoms: C3_4  and  C4_5 
REMARK    3  A    between atoms: C5_6  and  C6_7 
REMARK       I    between atoms: C6_7  and  N2_9 
REMARK    4  A    between atoms: N2_9  and  C7_10 
REMARK    5  A    between atoms: C16_23  and  N5_24 
REMARK    6  A    between atoms: N5_24  and  C17_25 
ROOT
HETATM    1  C7  UNL     1      25.405   2.445  50.900  1.00  0.00     0.148 C 
HETATM    2  C8  UNL     1      26.586   1.989  51.804  1.00  0.00     0.199 C 
HETATM    3  O2  UNL     1      26.849   0.656  51.523  1.00  0.00    -0.377 OA
HETATM    4  C9  UNL     1      27.218  -0.052  52.658  1.00  0.00     0.180 C 
HETATM    5  C10 UNL     1      28.334   0.575  53.453  1.00  0.00     0.065 C 
HETATM    6  C11 UNL     1      28.010   0.233  54.918  1.00  0.00     0.178 C 
HETATM    7  O3  UNL     1      26.665  -0.276  54.862  1.00  0.00    -0.353 OA
HETATM    8  C12 UNL     1      26.092   0.102  53.657  1.00  0.00     0.077 C 
HETATM    9  C13 UNL     1      24.795   0.482  53.656  1.00  0.00     0.067 C 
HETATM   10  C14 UNL     1      23.938   0.932  52.528  1.00  0.00     0.072 A 
HETATM   11  N3  UNL     1      22.760   0.364  52.845  1.00  0.00    -0.241 NA
HETATM   12  C15 UNL     1      21.733   0.563  52.001  1.00  0.00     0.235 A 
HETATM   13  N4  UNL     1      21.982   1.309  50.922  1.00  0.00    -0.224 NA
HETATM   14  C16 UNL     1      23.130   1.884  50.579  1.00  0.00     0.140 A 
HETATM   15  C23 UNL     1      24.217   1.722  51.397  1.00  0.00     0.041 A 
ENDROOT
BRANCH   1  16
HETATM   16  N2  UNL     1      25.197   3.861  51.114  1.00  0.00    -0.347 N 
HETATM   17  C6  UNL     1      25.296   5.006  50.285  1.00  0.00     0.241 C 
HETATM   18  O1  UNL     1      25.638   4.802  49.091  1.00  0.00    -0.269 OA
HETATM   19  H11 UNL     1      24.907   4.122  52.106  1.00  0.00     0.163 HD
BRANCH  17  20
HETATM   20  C5  UNL     1      25.032   6.354  50.723  1.00  0.00     0.072 C 
HETATM   21  C4  UNL     1      25.368   7.293  49.861  1.00  0.00     0.008 C 
BRANCH  21  22
HETATM   22  C3  UNL     1      25.231   8.749  49.997  1.00  0.00     0.299 C 
BRANCH  22  23
HETATM   23  N1  UNL     1      26.345   9.415  49.389  1.00  0.00     0.083 N 
HETATM   24  C1  UNL     1      27.526   9.340  50.190  1.00  0.00     0.309 C 
HETATM   25  C2  UNL     1      26.600   8.928  48.043  1.00  0.00     0.309 C 
ENDBRANCH  22  23
ENDBRANCH  21  22
ENDBRANCH  17  20
ENDBRANCH   1  16
BRANCH  14  26
HETATM   26  N5  UNL     1      23.293   2.650  49.407  1.00  0.00    -0.340 N 
HETATM   27  H22 UNL     1      24.174   2.663  48.863  1.00  0.00     0.167 HD
BRANCH  26  28
HETATM   28  C17 UNL     1      22.352   3.491  48.759  1.00  0.00     0.035 A 
HETATM   29  C18 UNL     1      22.015   3.332  47.425  1.00  0.00     0.032 A 
HETATM   30  C19 UNL     1      21.117   4.115  46.734  1.00  0.00     0.046 A 
HETATM   31  C20 UNL     1      20.491   5.146  47.409  1.00  0.00     0.138 A 
HETATM   32  F1  UNL     1      19.594   5.974  46.833  1.00  0.00    -0.204 F 
HETATM   33  C21 UNL     1      20.785   5.350  48.730  1.00  0.00     0.074 A 
HETATM   34 CL1  UNL     1      20.012   6.643  49.618  1.00  0.00    -0.081 Cl
HETATM   35  C22 UNL     1      21.681   4.538  49.348  1.00  0.00     0.056 A 
ENDBRANCH  26  28
ENDBRANCH  14  26
TORSDOF 6
ENDMDL
MODEL 7
REMARK VINA RESULT:      -7.9      2.237      2.940
REMARK  6 active torsions:
REMARK  status: ('A' for Active; 'I' for Inactive)
REMARK    1  A    between atoms: N1_2  and  C3_4 
REMARK    2  A    between atoms: C3_4  and  C4_5 
REMARK    3  A    between atoms: C5_6  and  C6_7 
REMARK       I    between atoms: C6_7  and  N2_9 
REMARK    4  A    between atoms: N2_9  and  C7_10 
REMARK    5  A    between atoms: C16_23  and  N5_24 
REMARK    6  A    between atoms: N5_24  and  C17_25 
ROOT
HETATM    1  C7  UNL     1      25.399   2.147  50.922  1.00  0.00     0.148 C 
HETATM    2  C8  UNL     1      26.659   1.755  51.745  1.00  0.00     0.199 C 
HETATM    3  O2  UNL     1      26.850   0.388  51.610  1.00  0.00    -0.377 OA
HETATM    4  C9  UNL     1      27.322  -0.189  52.781  1.00  0.00     0.180 C 
HETATM    5  C10 UNL     1      28.538   0.482  53.364  1.00  0.00     0.065 C 
HETATM    6  C11 UNL     1      28.371   0.338  54.886  1.00  0.00     0.178 C 
HETATM    7  O3  UNL     1      27.014  -0.114  55.041  1.00  0.00    -0.353 OA
HETATM    8  C12 UNL     1      26.321   0.137  53.866  1.00  0.00     0.077 C 
HETATM    9  C13 UNL     1      25.044   0.569  53.957  1.00  0.00     0.067 C 
HETATM   10  C14 UNL     1      24.080   0.913  52.879  1.00  0.00     0.072 A 
HETATM   11  N3  UNL     1      22.928   0.441  53.390  1.00  0.00    -0.241 NA
HETATM   12  C15 UNL     1      21.819   0.578  52.644  1.00  0.00     0.235 A 
HETATM   13  N4  UNL     1      21.968   1.173  51.457  1.00  0.00    -0.224 NA
HETATM   14  C16 UNL     1      23.086   1.650  50.922  1.00  0.00     0.140 A 
HETATM   15  C23 UNL     1      24.253   1.543  51.632  1.00  0.00     0.041 A 
ENDROOT
BRANCH   1  16
HETATM   16  N2  UNL     1      25.259   3.586  50.974  1.00  0.00    -0.347 N 
HETATM   17  C6  UNL     1      25.642   4.643  50.112  1.00  0.00     0.241 C 
HETATM   18  O1  UNL     1      26.241   4.313  49.055  1.00  0.00    -0.269 OA
HETATM   19  H11 UNL     1      24.763   3.952  51.843  1.00  0.00     0.163 HD
BRANCH  17  20
HETATM   20  C5  UNL     1      25.388   6.039  50.372  1.00  0.00     0.072 C 
HETATM   21  C4  UNL     1      24.113   6.364  50.456  1.00  0.00     0.008 C 
BRANCH  21  22
HETATM   22  C3  UNL     1      23.523   7.686  50.709  1.00  0.00     0.299 C 
BRANCH  22  23
HETATM   23  N1  UNL     1      22.095   7.589  50.784  1.00  0.00     0.083 N 
HETATM   24  C1  UNL     1      21.456   8.061  49.597  1.00  0.00     0.309 C 
HETATM   25  C2  UNL     1      21.657   6.240  51.108  1.00  0.00     0.309 C 
ENDBRANCH  22  23
ENDBRANCH  21  22
ENDBRANCH  17  20
ENDBRANCH   1  16
BRANCH  14  26
HETATM   26  N5  UNL     1      23.139   2.257  49.651  1.00  0.00    -0.340 N 
HETATM   27  H22 UNL     1      23.923   2.109  48.990  1.00  0.00     0.167 HD
BRANCH  26  28
HETATM   28  C17 UNL     1      22.195   3.123  49.041  1.00  0.00     0.035 A 
HETATM   29  C18 UNL     1      22.566   4.087  48.118  1.00  0.00     0.032 A 
HETATM   30  C19 UNL     1      21.704   4.962  47.494  1.00  0.00     0.046 A 
HETATM   31  C20 UNL     1      20.358   4.887  47.800  1.00  0.00     0.138 A 
HETATM   32  F1  UNL     1      19.425   5.692  47.251  1.00  0.00    -0.204 F 
HETATM   33  C21 UNL     1      19.934   3.952  48.706  1.00  0.00     0.074 A 
HETATM   34 CL1  UNL     1      18.240   3.826  49.119  1.00  0.00    -0.081 Cl
HETATM   35  C22 UNL     1      20.841   3.121  49.282  1.00  0.00     0.056 A 
ENDBRANCH  26  28
ENDBRANCH  14  26
TORSDOF 6
ENDMDL
MODEL 8
REMARK VINA RESULT:      -7.8      5.010      9.316
REMARK  6 active torsions:
REMARK  status: ('A' for Active; 'I' for Inactive)
REMARK    1  A    between atoms: N1_2  and  C3_4 
REMARK    2  A    between atoms: C3_4  and  C4_5 
REMARK    3  A    between atoms: C5_6  and  C6_7 
REMARK       I    between atoms: C6_7  and  N2_9 
REMARK    4  A    between atoms: N2_9  and  C7_10 
REMARK    5  A    between atoms: C16_23  and  N5_24 
REMARK    6  A    between atoms: N5_24  and  C17_25 
ROOT
HETATM    1  C7  UNL     1      24.262   3.872  49.717  1.00  0.00     0.148 C 
HETATM    2  C8  UNL     1      22.861   3.198  49.677  1.00  0.00     0.199 C 
HETATM    3  O2  UNL     1      22.158   3.737  48.610  1.00  0.00    -0.377 OA
HETATM    4  C9  UNL     1      20.807   3.881  48.896  1.00  0.00     0.180 C 
HETATM    5  C10 UNL     1      20.143   2.635  49.421  1.00  0.00     0.065 C 
HETATM    6  C11 UNL     1      19.084   3.146  50.414  1.00  0.00     0.178 C 
HETATM    7  O3  UNL     1      19.415   4.536  50.582  1.00  0.00    -0.353 OA
HETATM    8  C12 UNL     1      20.709   4.747  50.131  1.00  0.00     0.077 C 
HETATM    9  C13 UNL     1      21.500   5.591  50.830  1.00  0.00     0.067 C 
HETATM   10  C14 UNL     1      22.909   5.996  50.583  1.00  0.00     0.072 A 
HETATM   11  N3  UNL     1      22.877   7.296  50.926  1.00  0.00    -0.241 NA
HETATM   12  C15 UNL     1      24.019   7.994  50.806  1.00  0.00     0.235 A 
HETATM   13  N4  UNL     1      25.083   7.325  50.353  1.00  0.00    -0.224 NA
HETATM   14  C16 UNL     1      25.150   6.045  50.006  1.00  0.00     0.140 A 
HETATM   15  C23 UNL     1      24.021   5.276  50.107  1.00  0.00     0.041 A 
ENDROOT
BRANCH   1  16
HETATM   16  N2  UNL     1      25.035   3.237  50.763  1.00  0.00    -0.347 N 
HETATM   17  C6  UNL     1      26.293   2.585  50.798  1.00  0.00     0.241 C 
HETATM   18  O1  UNL     1      26.915   2.513  49.706  1.00  0.00    -0.269 OA
HETATM   19  H11 UNL     1      24.576   3.250  51.724  1.00  0.00     0.163 HD
BRANCH  17  20
HETATM   20  C5  UNL     1      26.882   2.016  51.985  1.00  0.00     0.072 C 
HETATM   21  C4  UNL     1      26.799   0.703  52.070  1.00  0.00     0.008 C 
BRANCH  21  22
HETATM   22  C3  UNL     1      27.294  -0.176  53.138  1.00  0.00     0.299 C 
BRANCH  22  23
HETATM   23  N1  UNL     1      28.635   0.180  53.496  1.00  0.00     0.083 N 
HETATM   24  C1  UNL     1      28.729   0.667  54.836  1.00  0.00     0.309 C 
HETATM   25  C2  UNL     1      29.565  -0.917  53.278  1.00  0.00     0.309 C 
ENDBRANCH  22  23
ENDBRANCH  21  22
ENDBRANCH  17  20
ENDBRANCH   1  16
BRANCH  14  26
HETATM   26  N5  UNL     1      26.327   5.432  49.529  1.00  0.00    -0.340 N 
HETATM   27  H22 UNL     1      26.571   4.448  49.738  1.00  0.00     0.167 HD
BRANCH  26  28
HETATM   28  C17 UNL     1      27.344   5.983  48.709  1.00  0.00     0.035 A 
HETATM   29  C18 UNL     1      27.156   7.146  47.980  1.00  0.00     0.032 A 
HETATM   30  C19 UNL     1      28.096   7.730  47.161  1.00  0.00     0.046 A 
HETATM   31  C20 UNL     1      29.332   7.124  47.044  1.00  0.00     0.138 A 
HETATM   32  F1  UNL     1      30.328   7.608  46.271  1.00  0.00    -0.204 F 
HETATM   33  C21 UNL     1      29.575   5.972  47.742  1.00  0.00     0.074 A 
HETATM   34 CL1  UNL     1      31.127   5.175  47.621  1.00  0.00    -0.081 Cl
HETATM   35  C22 UNL     1      28.601   5.451  48.532  1.00  0.00     0.056 A 
ENDBRANCH  26  28
ENDBRANCH  14  26
TORSDOF 6
ENDMDL
MODEL 9
REMARK VINA RESULT:      -7.5      3.033      6.011
REMARK  6 active torsions:
REMARK  status: ('A' for Active; 'I' for Inactive)
REMARK    1  A    between atoms: N1_2  and  C3_4 
REMARK    2  A    between atoms: C3_4  and  C4_5 
REMARK    3  A    between atoms: C5_6  and  C6_7 
REMARK       I    between atoms: C6_7  and  N2_9 
REMARK    4  A    between atoms: N2_9  and  C7_10 
REMARK    5  A    between atoms: C16_23  and  N5_24 
REMARK    6  A    between atoms: N5_24  and  C17_25 
ROOT
HETATM    1  C7  UNL     1      23.372   3.149  52.342  1.00  0.00     0.148 C 
HETATM    2  C8  UNL     1      24.154   2.035  53.095  1.00  0.00     0.199 C 
HETATM    3  O2  UNL     1      25.160   2.642  53.831  1.00  0.00    -0.377 OA
HETATM    4  C9  UNL     1      26.316   1.875  53.865  1.00  0.00     0.180 C 
HETATM    5  C10 UNL     1      26.105   0.445  54.293  1.00  0.00     0.065 C 
HETATM    6  C11 UNL     1      27.140  -0.359  53.486  1.00  0.00     0.178 C 
HETATM    7  O3  UNL     1      27.622   0.582  52.511  1.00  0.00    -0.353 OA
HETATM    8  C12 UNL     1      26.730   1.640  52.429  1.00  0.00     0.077 C 
HETATM    9  C13 UNL     1      26.466   2.161  51.211  1.00  0.00     0.067 C 
HETATM   10  C14 UNL     1      25.562   3.280  50.832  1.00  0.00     0.072 A 
HETATM   11  N3  UNL     1      26.271   3.877  49.857  1.00  0.00    -0.241 NA
HETATM   12  C15 UNL     1      25.735   4.968  49.284  1.00  0.00     0.235 A 
HETATM   13  N4  UNL     1      24.543   5.359  49.743  1.00  0.00    -0.224 NA
HETATM   14  C16 UNL     1      23.816   4.795  50.701  1.00  0.00     0.140 A 
HETATM   15  C23 UNL     1      24.305   3.677  51.325  1.00  0.00     0.041 A 
ENDROOT
BRANCH   1  16
HETATM   16  N2  UNL     1      22.257   2.531  51.657  1.00  0.00    -0.347 N 
HETATM   17  C6  UNL     1      20.851   2.573  51.828  1.00  0.00     0.241 C 
HETATM   18  O1  UNL     1      20.426   3.292  52.771  1.00  0.00    -0.269 OA
HETATM   19  H11 UNL     1      22.531   1.899  50.844  1.00  0.00     0.163 HD
BRANCH  17  20
HETATM   20  C5  UNL     1      19.908   1.860  51.004  1.00  0.00     0.072 C 
HETATM   21  C4  UNL     1      19.314   0.842  51.596  1.00  0.00     0.008 C 
BRANCH  21  22
HETATM   22  C3  UNL     1      18.312  -0.079  51.041  1.00  0.00     0.299 C 
BRANCH  22  23
HETATM   23  N1  UNL     1      17.689  -0.830  52.090  1.00  0.00     0.083 N 
HETATM   24  C1  UNL     1      18.546  -0.997  53.221  1.00  0.00     0.309 C 
HETATM   25  C2  UNL     1      16.413  -0.256  52.486  1.00  0.00     0.309 C 
ENDBRANCH  22  23
ENDBRANCH  21  22
ENDBRANCH  17  20
ENDBRANCH   1  16
BRANCH  14  26
HETATM   26  N5  UNL     1      22.565   5.292  51.120  1.00  0.00    -0.340 N 
HETATM   27  H22 UNL     1      22.249   5.256  52.105  1.00  0.00     0.167 HD
BRANCH  26  28
HETATM   28  C17 UNL     1      21.555   5.916  50.345  1.00  0.00     0.035 A 
HETATM   29  C18 UNL     1      20.896   5.256  49.321  1.00  0.00     0.032 A 
HETATM   30  C19 UNL     1      19.913   5.803  48.527  1.00  0.00     0.046 A 
HETATM   31  C20 UNL     1      19.539   7.114  48.755  1.00  0.00     0.138 A 
HETATM   32  F1  UNL     1      18.588   7.751  48.040  1.00  0.00    -0.204 F 
HETATM   33  C21 UNL     1      20.156   7.815  49.756  1.00  0.00     0.074 A 
HETATM   34 CL1  UNL     1      19.710   9.476  50.076  1.00  0.00    -0.081 Cl
HETATM   35  C22 UNL     1      21.118   7.211  50.500  1.00  0.00     0.056 A 
ENDBRANCH  26  28
ENDBRANCH  14  26
TORSDOF 6
ENDMDL
