MODEL 1
REMARK VINA RESULT:      -6.7      0.000      0.000
REMARK  8 active torsions:
REMARK  status: ('A' for Active; 'I' for Inactive)
REMARK    1  A    between atoms: O1_2  and  C2_3 
REMARK    2  A    between atoms: C2_3  and  C3_4 
REMARK    3  A    between atoms: C5_6  and  N1_7 
REMARK    4  A    between atoms: N1_7  and  C6_8 
REMARK    5  A    between atoms: C8_10  and  O2_11 
REMARK    6  A    between atoms: C11_14  and  O3_15 
REMARK    7  A    between atoms: C15_21  and  C16_22 
REMARK    8  A    between atoms: C16_22  and  O4_23 
ROOT
HETATM    1  C3  UNL     1      25.576   4.384  50.282  1.00  0.00     0.011 C 
HETATM    2  C4  UNL     1      24.374   4.597  50.727  1.00  0.00    -0.004 C 
HETATM    3  C5  UNL     1      23.983   4.004  51.997  1.00  0.00     0.130 C 
HETATM    4  N2  UNL     1      22.771   3.976  52.423  1.00  0.00    -0.268 NA
HETATM    5  C14 UNL     1      21.632   4.498  51.757  1.00  0.00     0.182 C 
HETATM    6  P1  UNL     1      22.153   6.075  50.880  1.00  0.00    -0.097 P 
HETATM    7  C15 UNL     1      23.575   5.461  49.801  1.00  0.00     0.073 C 
HETATM    8  H19 UNL     1      21.063   6.544  50.036  1.00  0.00     0.060 HD
ENDROOT
BRANCH   3   9
HETATM    9  N1  UNL     1      24.929   3.405  52.864  1.00  0.00    -0.341 N 
HETATM   10  H7  UNL     1      25.686   4.044  53.248  1.00  0.00     0.167 HD
BRANCH   9  11
HETATM   11  C6  UNL     1      24.952   2.045  53.263  1.00  0.00     0.038 A 
HETATM   12  C7  UNL     1      23.970   1.117  53.016  1.00  0.00     0.066 A 
HETATM   13  C8  UNL     1      24.015  -0.198  53.410  1.00  0.00     0.073 A 
HETATM   14  C10 UNL     1      25.111  -0.662  54.108  1.00  0.00     0.073 A 
HETATM   15  C11 UNL     1      26.117   0.238  54.376  1.00  0.00     0.073 A 
HETATM   16  C13 UNL     1      26.029   1.548  53.962  1.00  0.00     0.066 A 
BRANCH  13  17
HETATM   17  O2  UNL     1      22.983  -1.087  53.126  1.00  0.00    -0.356 OA
HETATM   18  C9  UNL     1      21.868  -1.259  53.958  1.00  0.00     0.210 C 
ENDBRANCH  13  17
BRANCH  15  19
HETATM   19  O3  UNL     1      27.247  -0.163  55.075  1.00  0.00    -0.356 OA
HETATM   20  C12 UNL     1      28.553   0.227  54.652  1.00  0.00     0.210 C 
ENDBRANCH  15  19
ENDBRANCH   9  11
ENDBRANCH   3   9
BRANCH   1  21
HETATM   21  C2  UNL     1      26.248   4.847  49.041  1.00  0.00     0.195 C 
BRANCH  21  22
HETATM   22  O1  UNL     1      27.552   4.362  49.004  1.00  0.00    -0.392 OA
HETATM   23  C1  UNL     1      28.459   5.240  48.428  1.00  0.00     0.201 C 
ENDBRANCH  21  22
ENDBRANCH   1  21
BRANCH   7  24
HETATM   24  C16 UNL     1      22.930   4.559  48.785  1.00  0.00     0.178 C 
BRANCH  24  25
HETATM   25  O4  UNL     1      22.893   5.218  47.554  1.00  0.00    -0.400 OA
HETATM   26  H23 UNL     1      23.842   5.528  47.409  1.00  0.00     0.209 HD
ENDBRANCH  24  25
ENDBRANCH   7  24
TORSDOF 8
ENDMDL
MODEL 2
REMARK VINA RESULT:      -6.6      0.595      2.733
REMARK  8 active torsions:
REMARK  status: ('A' for Active; 'I' for Inactive)
REMARK    1  A    between atoms: O1_2  and  C2_3 
REMARK    2  A    between atoms: C2_3  and  C3_4 
REMARK    3  A    between atoms: C5_6  and  N1_7 
REMARK    4  A    between atoms: N1_7  and  C6_8 
REMARK    5  A    between atoms: C8_10  and  O2_11 
REMARK    6  A    between atoms: C11_14  and  O3_15 
REMARK    7  A    between atoms: C15_21  and  C16_22 
REMARK    8  A    between atoms: C16_22  and  O4_23 
ROOT
HETATM    1  C3  UNL     1      25.691   3.482  50.540  1.00  0.00     0.011 C 
HETATM    2  C4  UNL     1      24.557   4.065  50.786  1.00  0.00    -0.004 C 
HETATM    3  C5  UNL     1      23.987   3.955  52.120  1.00  0.00     0.130 C 
HETATM    4  N2  UNL     1      22.787   4.309  52.410  1.00  0.00    -0.268 NA
HETATM    5  C14 UNL     1      21.829   4.851  51.515  1.00  0.00     0.182 C 
HETATM    6  P1  UNL     1      22.739   5.965  50.307  1.00  0.00    -0.097 P 
HETATM    7  C15 UNL     1      24.019   4.780  49.585  1.00  0.00     0.073 C 
HETATM    8  H19 UNL     1      21.824   6.397  49.261  1.00  0.00     0.060 HD
ENDROOT
BRANCH   3   9
HETATM    9  N1  UNL     1      24.731   3.439  53.209  1.00  0.00    -0.341 N 
HETATM   10  H7  UNL     1      25.168   4.155  53.861  1.00  0.00     0.167 HD
BRANCH   9  11
HETATM   11  C6  UNL     1      24.939   2.068  53.504  1.00  0.00     0.038 A 
HETATM   12  C7  UNL     1      26.059   1.532  54.093  1.00  0.00     0.066 A 
HETATM   13  C8  UNL     1      26.237   0.199  54.372  1.00  0.00     0.073 A 
HETATM   14  C10 UNL     1      25.242  -0.702  54.054  1.00  0.00     0.073 A 
HETATM   15  C11 UNL     1      24.103  -0.204  53.461  1.00  0.00     0.073 A 
HETATM   16  C13 UNL     1      23.968   1.141  53.199  1.00  0.00     0.066 A 
BRANCH  13  17
HETATM   17  O2  UNL     1      27.398  -0.278  54.971  1.00  0.00    -0.356 OA
HETATM   18  C9  UNL     1      28.671   0.241  54.697  1.00  0.00     0.210 C 
ENDBRANCH  13  17
BRANCH  15  19
HETATM   19  O3  UNL     1      23.064  -1.056  53.115  1.00  0.00    -0.356 OA
HETATM   20  C12 UNL     1      21.854  -1.090  53.872  1.00  0.00     0.210 C 
ENDBRANCH  15  19
ENDBRANCH   9  11
ENDBRANCH   3   9
BRANCH   1  21
HETATM   21  C2  UNL     1      26.502   3.419  49.298  1.00  0.00     0.195 C 
BRANCH  21  22
HETATM   22  O1  UNL     1      27.601   4.265  49.410  1.00  0.00    -0.392 OA
HETATM   23  C1  UNL     1      27.570   5.342  48.536  1.00  0.00     0.201 C 
ENDBRANCH  21  22
ENDBRANCH   1  21
BRANCH   7  24
HETATM   24  C16 UNL     1      23.222   3.787  48.785  1.00  0.00     0.178 C 
BRANCH  24  25
HETATM   25  O4  UNL     1      22.384   4.480  47.909  1.00  0.00    -0.400 OA
HETATM   26  H23 UNL     1      22.854   5.360  47.759  1.00  0.00     0.209 HD
ENDBRANCH  24  25
ENDBRANCH   7  24
TORSDOF 8
ENDMDL
MODEL 3
REMARK VINA RESULT:      -6.6      3.466      5.341
REMARK  8 active torsions:
REMARK  status: ('A' for Active; 'I' for Inactive)
REMARK    1  A    between atoms: O1_2  and  C2_3 
REMARK    2  A    between atoms: C2_3  and  C3_4 
REMARK    3  A    between atoms: C5_6  and  N1_7 
REMARK    4  A    between atoms: N1_7  and  C6_8 
REMARK    5  A    between atoms: C8_10  and  O2_11 
REMARK    6  A    between atoms: C11_14  and  O3_15 
REMARK    7  A    between atoms: C15_21  and  C16_22 
REMARK    8  A    between atoms: C16_22  and  O4_23 
ROOT
HETATM    1  C3  UNL     1      21.680   0.120  53.619  1.00  0.00     0.011 C 
HETATM    2  C4  UNL     1      21.692   0.751  52.483  1.00  0.00    -0.004 C 
HETATM    3  C5  UNL     1      22.642   1.837  52.296  1.00  0.00     0.130 C 
HETATM    4  N2  UNL     1      22.600   2.654  51.306  1.00  0.00    -0.268 NA
HETATM    5  C14 UNL     1      21.651   2.649  50.251  1.00  0.00     0.182 C 
HETATM    6  P1  UNL     1      21.247   0.859  49.850  1.00  0.00    -0.097 P 
HETATM    7  C15 UNL     1      20.673   0.213  51.527  1.00  0.00     0.073 C 
HETATM    8  H19 UNL     1      20.145   0.811  48.901  1.00  0.00     0.060 HD
ENDROOT
BRANCH   3   9
HETATM    9  N1  UNL     1      23.697   2.072  53.212  1.00  0.00    -0.341 N 
HETATM   10  H7  UNL     1      23.498   2.770  53.988  1.00  0.00     0.167 HD
BRANCH   9  11
HETATM   11  C6  UNL     1      24.977   1.464  53.186  1.00  0.00     0.038 A 
HETATM   12  C7  UNL     1      25.246   0.169  52.811  1.00  0.00     0.066 A 
HETATM   13  C8  UNL     1      26.496  -0.398  52.791  1.00  0.00     0.073 A 
HETATM   14  C10 UNL     1      27.590   0.352  53.167  1.00  0.00     0.073 A 
HETATM   15  C11 UNL     1      27.363   1.655  53.550  1.00  0.00     0.073 A 
HETATM   16  C13 UNL     1      26.091   2.183  53.555  1.00  0.00     0.066 A 
BRANCH  13  17
HETATM   17  O2  UNL     1      26.698  -1.718  52.399  1.00  0.00    -0.356 OA
HETATM   18  C9  UNL     1      27.847  -2.450  52.732  1.00  0.00     0.210 C 
ENDBRANCH  13  17
BRANCH  15  19
HETATM   19  O3  UNL     1      28.420   2.464  53.940  1.00  0.00    -0.356 OA
HETATM   20  C12 UNL     1      29.543   1.926  54.639  1.00  0.00     0.210 C 
ENDBRANCH  15  19
ENDBRANCH   9  11
ENDBRANCH   3   9
BRANCH   1  21
HETATM   21  C2  UNL     1      20.839  -1.009  54.093  1.00  0.00     0.195 C 
BRANCH  21  22
HETATM   22  O1  UNL     1      21.598  -1.856  54.895  1.00  0.00    -0.392 OA
HETATM   23  C1  UNL     1      22.841  -1.340  55.233  1.00  0.00     0.201 C 
ENDBRANCH  21  22
ENDBRANCH   1  21
BRANCH   7  24
HETATM   24  C16 UNL     1      19.377   0.928  51.797  1.00  0.00     0.178 C 
BRANCH  24  25
HETATM   25  O4  UNL     1      18.365   0.329  51.046  1.00  0.00    -0.400 OA
HETATM   26  H23 UNL     1      17.535   0.852  51.283  1.00  0.00     0.209 HD
ENDBRANCH  24  25
ENDBRANCH   7  24
TORSDOF 8
ENDMDL
MODEL 4
REMARK VINA RESULT:      -6.6      2.894      4.261
REMARK  8 active torsions:
REMARK  status: ('A' for Active; 'I' for Inactive)
REMARK    1  A    between atoms: O1_2  and  C2_3 
REMARK    2  A    between atoms: C2_3  and  C3_4 
REMARK    3  A    between atoms: C5_6  and  N1_7 
REMARK    4  A    between atoms: N1_7  and  C6_8 
REMARK    5  A    between atoms: C8_10  and  O2_11 
REMARK    6  A    between atoms: C11_14  and  O3_15 
REMARK    7  A    between atoms: C15_21  and  C16_22 
REMARK    8  A    between atoms: C16_22  and  O4_23 
ROOT
HETATM    1  C3  UNL     1      21.982   1.284  50.782  1.00  0.00     0.011 C 
HETATM    2  C4  UNL     1      22.355   2.474  51.147  1.00  0.00    -0.004 C 
HETATM    3  C5  UNL     1      23.733   2.677  51.567  1.00  0.00     0.130 C 
HETATM    4  N2  UNL     1      24.148   3.749  52.141  1.00  0.00    -0.268 NA
HETATM    5  C14 UNL     1      23.367   4.890  52.460  1.00  0.00     0.182 C 
HETATM    6  P1  UNL     1      22.117   5.134  51.081  1.00  0.00    -0.097 P 
HETATM    7  C15 UNL     1      21.236   3.466  51.063  1.00  0.00     0.073 C 
HETATM    8  H19 UNL     1      21.179   6.182  51.456  1.00  0.00     0.060 HD
ENDROOT
BRANCH   3   9
HETATM    9  N1  UNL     1      24.728   1.688  51.371  1.00  0.00    -0.341 N 
HETATM   10  H7  UNL     1      24.929   1.419  50.363  1.00  0.00     0.167 HD
BRANCH   9  11
HETATM   11  C6  UNL     1      25.471   1.038  52.387  1.00  0.00     0.038 A 
HETATM   12  C7  UNL     1      24.954   0.234  53.374  1.00  0.00     0.066 A 
HETATM   13  C8  UNL     1      25.696  -0.389  54.347  1.00  0.00     0.073 A 
HETATM   14  C10 UNL     1      27.064  -0.223  54.371  1.00  0.00     0.073 A 
HETATM   15  C11 UNL     1      27.622   0.576  53.398  1.00  0.00     0.073 A 
HETATM   16  C13 UNL     1      26.839   1.182  52.441  1.00  0.00     0.066 A 
BRANCH  13  17
HETATM   17  O2  UNL     1      25.106  -1.191  55.319  1.00  0.00    -0.356 OA
HETATM   18  C9  UNL     1      23.719  -1.287  55.497  1.00  0.00     0.210 C 
ENDBRANCH  13  17
BRANCH  15  19
HETATM   19  O3  UNL     1      28.993   0.785  53.365  1.00  0.00    -0.356 OA
HETATM   20  C12 UNL     1      29.909  -0.291  53.565  1.00  0.00     0.210 C 
ENDBRANCH  15  19
ENDBRANCH   9  11
ENDBRANCH   3   9
BRANCH   1  21
HETATM   21  C2  UNL     1      20.667   0.779  50.312  1.00  0.00     0.195 C 
BRANCH  21  22
HETATM   22  O1  UNL     1      20.023   0.109  51.348  1.00  0.00    -0.392 OA
HETATM   23  C1  UNL     1      18.639   0.162  51.273  1.00  0.00     0.201 C 
ENDBRANCH  21  22
ENDBRANCH   1  21
BRANCH   7  24
HETATM   24  C16 UNL     1      20.482   3.410  52.364  1.00  0.00     0.178 C 
BRANCH  24  25
HETATM   25  O4  UNL     1      19.120   3.574  52.104  1.00  0.00    -0.400 OA
HETATM   26  H23 UNL     1      18.685   3.519  53.013  1.00  0.00     0.209 HD
ENDBRANCH  24  25
ENDBRANCH   7  24
TORSDOF 8
ENDMDL
MODEL 5
REMARK VINA RESULT:      -6.5      2.890      5.020
REMARK  8 active torsions:
REMARK  status: ('A' for Active; 'I' for Inactive)
REMARK    1  A    between atoms: O1_2  and  C2_3 
REMARK    2  A    between atoms: C2_3  and  C3_4 
REMARK    3  A    between atoms: C5_6  and  N1_7 
REMARK    4  A    between atoms: N1_7  and  C6_8 
REMARK    5  A    between atoms: C8_10  and  O2_11 
REMARK    6  A    between atoms: C11_14  and  O3_15 
REMARK    7  A    between atoms: C15_21  and  C16_22 
REMARK    8  A    between atoms: C16_22  and  O4_23 
ROOT
HETATM    1  C3  UNL     1      21.871   1.013  51.136  1.00  0.00     0.011 C 
HETATM    2  C4  UNL     1      22.331   2.225  51.216  1.00  0.00    -0.004 C 
HETATM    3  C5  UNL     1      23.756   2.420  51.434  1.00  0.00     0.130 C 
HETATM    4  N2  UNL     1      24.279   3.555  51.735  1.00  0.00    -0.268 NA
HETATM    5  C14 UNL     1      23.587   4.782  51.906  1.00  0.00     0.182 C 
HETATM    6  P1  UNL     1      22.191   4.833  50.651  1.00  0.00    -0.097 P 
HETATM    7  C15 UNL     1      21.250   3.250  51.061  1.00  0.00     0.073 C 
HETATM    8  H19 UNL     1      21.346   5.989  50.912  1.00  0.00     0.060 HD
ENDROOT
BRANCH   3   9
HETATM    9  N1  UNL     1      24.681   1.353  51.329  1.00  0.00    -0.341 N 
HETATM   10  H7  UNL     1      24.743   0.877  50.381  1.00  0.00     0.167 HD
BRANCH   9  11
HETATM   11  C6  UNL     1      25.523   0.872  52.362  1.00  0.00     0.038 A 
HETATM   12  C7  UNL     1      26.886   1.034  52.431  1.00  0.00     0.066 A 
HETATM   13  C8  UNL     1      27.682   0.562  53.446  1.00  0.00     0.073 A 
HETATM   14  C10 UNL     1      27.111  -0.131  54.493  1.00  0.00     0.073 A 
HETATM   15  C11 UNL     1      25.747  -0.315  54.460  1.00  0.00     0.073 A 
HETATM   16  C13 UNL     1      24.987   0.176  53.422  1.00  0.00     0.066 A 
BRANCH  13  17
HETATM   17  O2  UNL     1      29.058   0.762  53.454  1.00  0.00    -0.356 OA
HETATM   18  C9  UNL     1      29.985  -0.286  53.555  1.00  0.00     0.210 C 
ENDBRANCH  13  17
BRANCH  15  19
HETATM   19  O3  UNL     1      25.109  -1.004  55.482  1.00  0.00    -0.356 OA
HETATM   20  C12 UNL     1      23.714  -1.300  55.414  1.00  0.00     0.210 C 
ENDBRANCH  15  19
ENDBRANCH   9  11
ENDBRANCH   3   9
BRANCH   1  21
HETATM   21  C2  UNL     1      20.490   0.510  50.923  1.00  0.00     0.195 C 
BRANCH  21  22
HETATM   22  O1  UNL     1      19.903   0.214  52.150  1.00  0.00    -0.392 OA
HETATM   23  C1  UNL     1      18.626  -0.318  52.044  1.00  0.00     0.201 C 
ENDBRANCH  21  22
ENDBRANCH   1  21
BRANCH   7  24
HETATM   24  C16 UNL     1      20.656   3.491  52.421  1.00  0.00     0.178 C 
BRANCH  24  25
HETATM   25  O4  UNL     1      19.276   3.286  52.355  1.00  0.00    -0.400 OA
HETATM   26  H23 UNL     1      19.172   2.485  51.750  1.00  0.00     0.209 HD
ENDBRANCH  24  25
ENDBRANCH   7  24
TORSDOF 8
ENDMDL
MODEL 6
REMARK VINA RESULT:      -6.5      3.335      6.777
REMARK  8 active torsions:
REMARK  status: ('A' for Active; 'I' for Inactive)
REMARK    1  A    between atoms: O1_2  and  C2_3 
REMARK    2  A    between atoms: C2_3  and  C3_4 
REMARK    3  A    between atoms: C5_6  and  N1_7 
REMARK    4  A    between atoms: N1_7  and  C6_8 
REMARK    5  A    between atoms: C8_10  and  O2_11 
REMARK    6  A    between atoms: C11_14  and  O3_15 
REMARK    7  A    between atoms: C15_21  and  C16_22 
REMARK    8  A    between atoms: C16_22  and  O4_23 
ROOT
HETATM    1  C3  UNL     1      24.163  -0.153  54.111  1.00  0.00     0.011 C 
HETATM    2  C4  UNL     1      25.053   0.524  53.451  1.00  0.00    -0.004 C 
HETATM    3  C5  UNL     1      24.609   1.609  52.589  1.00  0.00     0.130 C 
HETATM    4  N2  UNL     1      25.373   2.199  51.740  1.00  0.00    -0.268 NA
HETATM    5  C14 UNL     1      26.740   1.910  51.496  1.00  0.00     0.182 C 
HETATM    6  P1  UNL     1      27.535   1.463  53.137  1.00  0.00    -0.097 P 
HETATM    7  C15 UNL     1      26.444   0.036  53.714  1.00  0.00     0.073 C 
HETATM    8  H19 UNL     1      28.890   0.984  52.905  1.00  0.00     0.060 HD
ENDROOT
BRANCH   3   9
HETATM    9  N1  UNL     1      23.280   2.097  52.626  1.00  0.00    -0.341 N 
HETATM   10  H7  UNL     1      23.089   2.891  53.306  1.00  0.00     0.167 HD
BRANCH   9  11
HETATM   11  C6  UNL     1      22.195   1.627  51.844  1.00  0.00     0.038 A 
HETATM   12  C7  UNL     1      20.966   1.241  52.321  1.00  0.00     0.066 A 
HETATM   13  C8  UNL     1      19.927   0.792  51.542  1.00  0.00     0.073 A 
HETATM   14  C10 UNL     1      20.090   0.706  50.175  1.00  0.00     0.073 A 
HETATM   15  C11 UNL     1      21.309   1.083  49.658  1.00  0.00     0.073 A 
HETATM   16  C13 UNL     1      22.322   1.528  50.477  1.00  0.00     0.066 A 
BRANCH  13  17
HETATM   17  O2  UNL     1      18.706   0.417  52.091  1.00  0.00    -0.356 OA
HETATM   18  C9  UNL     1      18.541  -0.724  52.890  1.00  0.00     0.210 C 
ENDBRANCH  13  17
BRANCH  15  19
HETATM   19  O3  UNL     1      21.538   1.020  48.291  1.00  0.00    -0.356 OA
HETATM   20  C12 UNL     1      22.368   1.980  47.637  1.00  0.00     0.210 C 
ENDBRANCH  15  19
ENDBRANCH   9  11
ENDBRANCH   3   9
BRANCH   1  21
HETATM   21  C2  UNL     1      24.311  -1.294  55.050  1.00  0.00     0.195 C 
BRANCH  21  22
HETATM   22  O1  UNL     1      23.085  -1.574  55.647  1.00  0.00    -0.392 OA
HETATM   23  C1  UNL     1      21.994  -1.329  54.825  1.00  0.00     0.201 C 
ENDBRANCH  21  22
ENDBRANCH   1  21
BRANCH   7  24
HETATM   24  C16 UNL     1      26.722  -1.082  52.748  1.00  0.00     0.178 C 
BRANCH  24  25
HETATM   25  O4  UNL     1      27.582  -2.000  53.354  1.00  0.00    -0.400 OA
HETATM   26  H23 UNL     1      27.877  -1.542  54.203  1.00  0.00     0.209 HD
ENDBRANCH  24  25
ENDBRANCH   7  24
TORSDOF 8
ENDMDL
MODEL 7
REMARK VINA RESULT:      -6.5      2.855      7.089
REMARK  8 active torsions:
REMARK  status: ('A' for Active; 'I' for Inactive)
REMARK    1  A    between atoms: O1_2  and  C2_3 
REMARK    2  A    between atoms: C2_3  and  C3_4 
REMARK    3  A    between atoms: C5_6  and  N1_7 
REMARK    4  A    between atoms: N1_7  and  C6_8 
REMARK    5  A    between atoms: C8_10  and  O2_11 
REMARK    6  A    between atoms: C11_14  and  O3_15 
REMARK    7  A    between atoms: C15_21  and  C16_22 
REMARK    8  A    between atoms: C16_22  and  O4_23 
ROOT
HETATM    1  C3  UNL     1      24.147   0.377  53.469  1.00  0.00     0.011 C 
HETATM    2  C4  UNL     1      25.407   0.677  53.569  1.00  0.00    -0.004 C 
HETATM    3  C5  UNL     1      25.811   2.064  53.403  1.00  0.00     0.130 C 
HETATM    4  N2  UNL     1      27.035   2.436  53.274  1.00  0.00    -0.268 NA
HETATM    5  C14 UNL     1      28.175   1.592  53.269  1.00  0.00     0.182 C 
HETATM    6  P1  UNL     1      27.868   0.205  54.498  1.00  0.00    -0.097 P 
HETATM    7  C15 UNL     1      26.252  -0.526  53.853  1.00  0.00     0.073 C 
HETATM    8  H19 UNL     1      28.932  -0.782  54.392  1.00  0.00     0.060 HD
ENDROOT
BRANCH   3   9
HETATM    9  N1  UNL     1      24.866   3.119  53.369  1.00  0.00    -0.341 N 
HETATM   10  H7  UNL     1      24.701   3.631  54.284  1.00  0.00     0.167 HD
BRANCH   9  11
HETATM   11  C6  UNL     1      24.133   3.547  52.234  1.00  0.00     0.038 A 
HETATM   12  C7  UNL     1      24.193   2.990  50.979  1.00  0.00     0.066 A 
HETATM   13  C8  UNL     1      23.470   3.420  49.894  1.00  0.00     0.073 A 
HETATM   14  C10 UNL     1      22.608   4.488  50.030  1.00  0.00     0.073 A 
HETATM   15  C11 UNL     1      22.520   5.074  51.273  1.00  0.00     0.073 A 
HETATM   16  C13 UNL     1      23.264   4.610  52.334  1.00  0.00     0.066 A 
BRANCH  13  17
HETATM   17  O2  UNL     1      23.579   2.809  48.649  1.00  0.00    -0.356 OA
HETATM   18  C9  UNL     1      22.473   2.350  47.919  1.00  0.00     0.210 C 
ENDBRANCH  13  17
BRANCH  15  19
HETATM   19  O3  UNL     1      21.671   6.153  51.478  1.00  0.00    -0.356 OA
HETATM   20  C12 UNL     1      21.457   7.128  50.458  1.00  0.00     0.210 C 
ENDBRANCH  15  19
ENDBRANCH   9  11
ENDBRANCH   3   9
BRANCH   1  21
HETATM   21  C2  UNL     1      23.447  -0.928  53.588  1.00  0.00     0.195 C 
BRANCH  21  22
HETATM   22  O1  UNL     1      22.725  -0.967  54.777  1.00  0.00    -0.392 OA
HETATM   23  C1  UNL     1      21.393  -1.316  54.611  1.00  0.00     0.201 C 
ENDBRANCH  21  22
ENDBRANCH   1  21
BRANCH   7  24
HETATM   24  C16 UNL     1      26.609  -1.152  52.533  1.00  0.00     0.178 C 
BRANCH  24  25
HETATM   25  O4  UNL     1      27.165  -2.411  52.764  1.00  0.00    -0.400 OA
HETATM   26  H23 UNL     1      27.721  -2.593  51.941  1.00  0.00     0.209 HD
ENDBRANCH  24  25
ENDBRANCH   7  24
TORSDOF 8
ENDMDL
MODEL 8
REMARK VINA RESULT:      -6.4      1.958      2.359
REMARK  8 active torsions:
REMARK  status: ('A' for Active; 'I' for Inactive)
REMARK    1  A    between atoms: O1_2  and  C2_3 
REMARK    2  A    between atoms: C2_3  and  C3_4 
REMARK    3  A    between atoms: C5_6  and  N1_7 
REMARK    4  A    between atoms: N1_7  and  C6_8 
REMARK    5  A    between atoms: C8_10  and  O2_11 
REMARK    6  A    between atoms: C11_14  and  O3_15 
REMARK    7  A    between atoms: C15_21  and  C16_22 
REMARK    8  A    between atoms: C16_22  and  O4_23 
ROOT
HETATM    1  C3  UNL     1      27.139   4.871  48.910  1.00  0.00     0.011 C 
HETATM    2  C4  UNL     1      26.019   5.238  49.455  1.00  0.00    -0.004 C 
HETATM    3  C5  UNL     1      25.140   4.217  50.005  1.00  0.00     0.130 C 
HETATM    4  N2  UNL     1      23.930   4.445  50.372  1.00  0.00    -0.268 NA
HETATM    5  C14 UNL     1      23.252   5.690  50.309  1.00  0.00     0.182 C 
HETATM    6  P1  UNL     1      24.494   7.041  50.706  1.00  0.00    -0.097 P 
HETATM    7  C15 UNL     1      25.831   6.723  49.413  1.00  0.00     0.073 C 
HETATM    8  H19 UNL     1      23.885   8.343  50.475  1.00  0.00     0.060 HD
ENDROOT
BRANCH   3   9
HETATM    9  N1  UNL     1      25.567   2.877  50.174  1.00  0.00    -0.341 N 
HETATM   10  H7  UNL     1      25.751   2.327  49.284  1.00  0.00     0.167 HD
BRANCH   9  11
HETATM   11  C6  UNL     1      25.771   2.215  51.411  1.00  0.00     0.038 A 
HETATM   12  C7  UNL     1      24.962   1.242  51.945  1.00  0.00     0.066 A 
HETATM   13  C8  UNL     1      25.182   0.611  53.146  1.00  0.00     0.073 A 
HETATM   14  C10 UNL     1      26.284   0.950  53.901  1.00  0.00     0.073 A 
HETATM   15  C11 UNL     1      27.120   1.923  53.399  1.00  0.00     0.073 A 
HETATM   16  C13 UNL     1      26.861   2.529  52.191  1.00  0.00     0.066 A 
BRANCH  13  17
HETATM   17  O2  UNL     1      24.320  -0.368  53.629  1.00  0.00    -0.356 OA
HETATM   18  C9  UNL     1      22.926  -0.220  53.654  1.00  0.00     0.210 C 
ENDBRANCH  13  17
BRANCH  15  19
HETATM   19  O3  UNL     1      28.247   2.312  54.109  1.00  0.00    -0.356 OA
HETATM   20  C12 UNL     1      29.281   1.379  54.420  1.00  0.00     0.210 C 
ENDBRANCH  15  19
ENDBRANCH   9  11
ENDBRANCH   3   9
BRANCH   1  21
HETATM   21  C2  UNL     1      28.219   5.670  48.276  1.00  0.00     0.195 C 
BRANCH  21  22
HETATM   22  O1  UNL     1      29.457   5.115  48.583  1.00  0.00    -0.392 OA
HETATM   23  C1  UNL     1      30.520   5.722  47.929  1.00  0.00     0.201 C 
ENDBRANCH  21  22
ENDBRANCH   1  21
BRANCH   7  24
HETATM   24  C16 UNL     1      25.187   7.062  48.096  1.00  0.00     0.178 C 
BRANCH  24  25
HETATM   25  O4  UNL     1      25.861   8.144  47.528  1.00  0.00    -0.400 OA
HETATM   26  H23 UNL     1      25.530   8.944  48.047  1.00  0.00     0.209 HD
ENDBRANCH  24  25
ENDBRANCH   7  24
TORSDOF 8
ENDMDL
MODEL 9
REMARK VINA RESULT:      -6.4      2.596      7.326
REMARK  8 active torsions:
REMARK  status: ('A' for Active; 'I' for Inactive)
REMARK    1  A    between atoms: O1_2  and  C2_3 
REMARK    2  A    between atoms: C2_3  and  C3_4 
REMARK    3  A    between atoms: C5_6  and  N1_7 
REMARK    4  A    between atoms: N1_7  and  C6_8 
REMARK    5  A    between atoms: C8_10  and  O2_11 
REMARK    6  A    between atoms: C11_14  and  O3_15 
REMARK    7  A    between atoms: C15_21  and  C16_22 
REMARK    8  A    between atoms: C16_22  and  O4_23 
ROOT
HETATM    1  C3  UNL     1      23.958   0.387  53.079  1.00  0.00     0.011 C 
HETATM    2  C4  UNL     1      25.219   0.662  53.227  1.00  0.00    -0.004 C 
HETATM    3  C5  UNL     1      25.693   1.989  52.865  1.00  0.00     0.130 C 
HETATM    4  N2  UNL     1      26.937   2.297  52.773  1.00  0.00    -0.268 NA
HETATM    5  C14 UNL     1      28.038   1.430  52.999  1.00  0.00     0.182 C 
HETATM    6  P1  UNL     1      27.583   0.281  54.412  1.00  0.00    -0.097 P 
HETATM    7  C15 UNL     1      25.989  -0.501  53.772  1.00  0.00     0.073 C 
HETATM    8  H19 UNL     1      28.610  -0.742  54.555  1.00  0.00     0.060 HD
ENDROOT
BRANCH   3   9
HETATM    9  N1  UNL     1      24.798   3.050  52.583  1.00  0.00    -0.341 N 
HETATM   10  H7  UNL     1      24.316   3.493  53.419  1.00  0.00     0.167 HD
BRANCH   9  11
HETATM   11  C6  UNL     1      24.497   3.568  51.298  1.00  0.00     0.038 A 
HETATM   12  C7  UNL     1      24.830   4.819  50.836  1.00  0.00     0.066 A 
HETATM   13  C8  UNL     1      24.530   5.299  49.585  1.00  0.00     0.073 A 
HETATM   14  C10 UNL     1      23.845   4.499  48.695  1.00  0.00     0.073 A 
HETATM   15  C11 UNL     1      23.492   3.237  49.121  1.00  0.00     0.073 A 
HETATM   16  C13 UNL     1      23.814   2.797  50.385  1.00  0.00     0.066 A 
BRANCH  13  17
HETATM   17  O2  UNL     1      24.898   6.578  49.181  1.00  0.00    -0.356 OA
HETATM   18  C9  UNL     1      25.593   7.473  50.007  1.00  0.00     0.210 C 
ENDBRANCH  13  17
BRANCH  15  19
HETATM   19  O3  UNL     1      22.801   2.381  48.275  1.00  0.00    -0.356 OA
HETATM   20  C12 UNL     1      21.796   1.501  48.777  1.00  0.00     0.210 C 
ENDBRANCH  15  19
ENDBRANCH   9  11
ENDBRANCH   3   9
BRANCH   1  21
HETATM   21  C2  UNL     1      23.196  -0.857  53.357  1.00  0.00     0.195 C 
BRANCH  21  22
HETATM   22  O1  UNL     1      22.388  -0.674  54.475  1.00  0.00    -0.392 OA
HETATM   23  C1  UNL     1      21.226  -1.432  54.456  1.00  0.00     0.201 C 
ENDBRANCH  21  22
ENDBRANCH   1  21
BRANCH   7  24
HETATM   24  C16 UNL     1      26.414  -1.350  52.606  1.00  0.00     0.178 C 
BRANCH  24  25
HETATM   25  O4  UNL     1      27.348  -2.289  53.046  1.00  0.00    -0.400 OA
HETATM   26  H23 UNL     1      26.802  -3.118  53.230  1.00  0.00     0.209 HD
ENDBRANCH  24  25
ENDBRANCH   7  24
TORSDOF 8
ENDMDL
