MODEL 1
REMARK VINA RESULT:      -6.9      0.000      0.000
REMARK  4 active torsions:
REMARK  status: ('A' for Active; 'I' for Inactive)
REMARK    1  A    between atoms: C3_3  and  S1_8 
REMARK    2  A    between atoms: C4_4  and  C5_5 
REMARK    3  A    between atoms: S1_8  and  N1_11 
REMARK       I    between atoms: N1_11  and  C7_12 
REMARK    4  A    between atoms: C7_12  and  C8_14 
ROOT
HETATM    1  C1  UNL     1      22.675   3.153  48.200  1.00  0.00     0.019 C 
HETATM    2  C2  UNL     1      22.922   2.910  49.373  1.00  0.00    -0.064 C 
HETATM    3  C3  UNL     1      23.200   2.598  50.768  1.00  0.00     0.132 C 
HETATM    4  C4  UNL     1      22.748   1.469  51.286  1.00  0.00     0.036 C 
ENDROOT
BRANCH   3   5
HETATM    5  S1  UNL     1      24.127   3.804  51.603  1.00  0.00     0.273 S 
HETATM    6  O1  UNL     1      23.251   4.621  52.533  1.00  0.00    -0.199 OA
HETATM    7  O2  UNL     1      24.749   4.760  50.655  1.00  0.00    -0.199 OA
BRANCH   5   8
HETATM    8  N1  UNL     1      25.358   3.074  52.554  1.00  0.00    -0.245 N 
HETATM    9  C7  UNL     1      26.443   2.328  52.017  1.00  0.00     0.266 C 
HETATM   10  O3  UNL     1      26.414   2.251  50.745  1.00  0.00    -0.267 OA
HETATM   11  H5  UNL     1      25.321   3.176  53.601  1.00  0.00     0.182 HD
BRANCH   9  12
HETATM   12  C8  UNL     1      27.482   1.712  52.835  1.00  0.00     0.051 A 
HETATM   13  C9  UNL     1      28.290   2.364  53.746  1.00  0.00     0.133 A 
HETATM   14  N2  UNL     1      29.225   1.717  54.459  1.00  0.00    -0.271 NA
HETATM   15  C10 UNL     1      29.411   0.393  54.310  1.00  0.00     0.135 A 
HETATM   16  C11 UNL     1      28.630  -0.326  53.408  1.00  0.00     0.029 A 
HETATM   17 BR1  UNL     1      28.907  -2.210  53.207  1.00  0.00    -0.050 Br
HETATM   18  C12 UNL     1      27.670   0.354  52.680  1.00  0.00     0.039 A 
ENDBRANCH   9  12
ENDBRANCH   5   8
ENDBRANCH   3   5
BRANCH   4  19
HETATM   19  C5  UNL     1      22.864   0.904  52.609  1.00  0.00     0.031 C 
HETATM   20  C6  UNL     1      23.527  -0.165  53.017  1.00  0.00     0.188 C 
HETATM   21  F1  UNL     1      23.480  -0.494  54.330  1.00  0.00    -0.219 F 
ENDBRANCH   4  19
TORSDOF 4
ENDMDL
MODEL 2
REMARK VINA RESULT:      -6.9      4.680      7.159
REMARK  4 active torsions:
REMARK  status: ('A' for Active; 'I' for Inactive)
REMARK    1  A    between atoms: C3_3  and  S1_8 
REMARK    2  A    between atoms: C4_4  and  C5_5 
REMARK    3  A    between atoms: S1_8  and  N1_11 
REMARK       I    between atoms: N1_11  and  C7_12 
REMARK    4  A    between atoms: C7_12  and  C8_14 
ROOT
HETATM    1  C1  UNL     1      24.903   3.031  53.216  1.00  0.00     0.019 C 
HETATM    2  C2  UNL     1      25.617   2.089  53.530  1.00  0.00    -0.064 C 
HETATM    3  C3  UNL     1      26.489   0.983  53.899  1.00  0.00     0.132 C 
HETATM    4  C4  UNL     1      27.794   1.180  53.980  1.00  0.00     0.036 C 
ENDROOT
BRANCH   3   5
HETATM    5  S1  UNL     1      25.664  -0.514  54.198  1.00  0.00     0.273 S 
HETATM    6  O1  UNL     1      25.649  -0.845  55.678  1.00  0.00    -0.199 OA
HETATM    7  O2  UNL     1      26.336  -1.647  53.516  1.00  0.00    -0.199 OA
BRANCH   5   8
HETATM    8  N1  UNL     1      24.032  -0.426  53.667  1.00  0.00    -0.245 N 
HETATM    9  C7  UNL     1      22.923  -0.898  54.423  1.00  0.00     0.266 C 
HETATM   10  O3  UNL     1      23.261  -1.398  55.546  1.00  0.00    -0.267 OA
HETATM   11  H5  UNL     1      23.824  -0.001  52.728  1.00  0.00     0.182 HD
BRANCH   9  12
HETATM   12  C8  UNL     1      21.541  -0.818  53.962  1.00  0.00     0.051 A 
HETATM   13  C9  UNL     1      20.555  -1.758  54.187  1.00  0.00     0.133 A 
HETATM   14  N2  UNL     1      19.305  -1.603  53.724  1.00  0.00    -0.271 NA
HETATM   15  C10 UNL     1      18.964  -0.512  53.015  1.00  0.00     0.135 A 
HETATM   16  C11 UNL     1      19.909   0.476  52.751  1.00  0.00     0.029 A 
HETATM   17 BR1  UNL     1      19.408   2.023  51.741  1.00  0.00    -0.050 Br
HETATM   18  C12 UNL     1      21.194   0.303  53.236  1.00  0.00     0.039 A 
ENDBRANCH   9  12
ENDBRANCH   5   8
ENDBRANCH   3   5
BRANCH   4  19
HETATM   19  C5  UNL     1      28.881   0.293  54.314  1.00  0.00     0.031 C 
HETATM   20  C6  UNL     1      29.571  -0.529  53.540  1.00  0.00     0.188 C 
HETATM   21  F1  UNL     1      30.558  -1.269  54.098  1.00  0.00    -0.219 F 
ENDBRANCH   4  19
TORSDOF 4
ENDMDL
MODEL 3
REMARK VINA RESULT:      -6.8      3.718      6.249
REMARK  4 active torsions:
REMARK  status: ('A' for Active; 'I' for Inactive)
REMARK    1  A    between atoms: C3_3  and  S1_8 
REMARK    2  A    between atoms: C4_4  and  C5_5 
REMARK    3  A    between atoms: S1_8  and  N1_11 
REMARK       I    between atoms: N1_11  and  C7_12 
REMARK    4  A    between atoms: C7_12  and  C8_14 
ROOT
HETATM    1  C1  UNL     1      23.267  -0.039  53.134  1.00  0.00     0.019 C 
HETATM    2  C2  UNL     1      24.483   0.086  53.100  1.00  0.00    -0.064 C 
HETATM    3  C3  UNL     1      25.933   0.209  53.061  1.00  0.00     0.132 C 
HETATM    4  C4  UNL     1      26.679  -0.881  53.010  1.00  0.00     0.036 C 
ENDROOT
BRANCH   3   5
HETATM    5  S1  UNL     1      26.517   1.843  53.090  1.00  0.00     0.273 S 
HETATM    6  O1  UNL     1      27.536   2.080  51.991  1.00  0.00    -0.199 OA
HETATM    7  O2  UNL     1      27.196   2.153  54.371  1.00  0.00    -0.199 OA
BRANCH   5   8
HETATM    8  N1  UNL     1      25.228   2.955  52.852  1.00  0.00    -0.245 N 
HETATM    9  C7  UNL     1      24.620   3.210  51.592  1.00  0.00     0.266 C 
HETATM   10  O3  UNL     1      25.129   2.527  50.644  1.00  0.00    -0.267 OA
HETATM   11  H5  UNL     1      24.856   3.487  53.679  1.00  0.00     0.182 HD
BRANCH   9  12
HETATM   12  C8  UNL     1      23.525   4.156  51.402  1.00  0.00     0.051 A 
HETATM   13  C9  UNL     1      23.655   5.513  51.180  1.00  0.00     0.133 A 
HETATM   14  N2  UNL     1      22.590   6.312  51.016  1.00  0.00    -0.271 NA
HETATM   15  C10 UNL     1      21.341   5.814  51.062  1.00  0.00     0.135 A 
HETATM   16  C11 UNL     1      21.138   4.454  51.283  1.00  0.00     0.029 A 
HETATM   17 BR1  UNL     1      19.355   3.759  51.347  1.00  0.00    -0.050 Br
HETATM   18  C12 UNL     1      22.246   3.641  51.450  1.00  0.00     0.039 A 
ENDBRANCH   9  12
ENDBRANCH   5   8
ENDBRANCH   3   5
BRANCH   4  19
HETATM   19  C5  UNL     1      28.110  -1.066  52.965  1.00  0.00     0.031 C 
HETATM   20  C6  UNL     1      29.043  -0.651  53.805  1.00  0.00     0.188 C 
HETATM   21  F1  UNL     1      30.335  -0.955  53.539  1.00  0.00    -0.219 F 
ENDBRANCH   4  19
TORSDOF 4
ENDMDL
MODEL 4
REMARK VINA RESULT:      -6.7      3.947      6.359
REMARK  4 active torsions:
REMARK  status: ('A' for Active; 'I' for Inactive)
REMARK    1  A    between atoms: C3_3  and  S1_8 
REMARK    2  A    between atoms: C4_4  and  C5_5 
REMARK    3  A    between atoms: S1_8  and  N1_11 
REMARK       I    between atoms: N1_11  and  C7_12 
REMARK    4  A    between atoms: C7_12  and  C8_14 
ROOT
HETATM    1  C1  UNL     1      22.999   0.435  53.310  1.00  0.00     0.019 C 
HETATM    2  C2  UNL     1      24.217   0.454  53.191  1.00  0.00    -0.064 C 
HETATM    3  C3  UNL     1      25.666   0.450  53.051  1.00  0.00     0.132 C 
HETATM    4  C4  UNL     1      26.311  -0.701  52.973  1.00  0.00     0.036 C 
ENDROOT
BRANCH   3   5
HETATM    5  S1  UNL     1      26.388   2.028  53.005  1.00  0.00     0.273 S 
HETATM    6  O1  UNL     1      27.397   2.135  51.878  1.00  0.00    -0.199 OA
HETATM    7  O2  UNL     1      27.119   2.325  54.260  1.00  0.00    -0.199 OA
BRANCH   5   8
HETATM    8  N1  UNL     1      25.193   3.236  52.749  1.00  0.00    -0.245 N 
HETATM    9  C7  UNL     1      24.557   3.475  51.499  1.00  0.00     0.266 C 
HETATM   10  O3  UNL     1      24.963   2.696  50.575  1.00  0.00    -0.267 OA
HETATM   11  H5  UNL     1      24.904   3.846  53.556  1.00  0.00     0.182 HD
BRANCH   9  12
HETATM   12  C8  UNL     1      23.544   4.505  51.293  1.00  0.00     0.051 A 
HETATM   13  C9  UNL     1      22.210   4.411  51.638  1.00  0.00     0.133 A 
HETATM   14  N2  UNL     1      21.345   5.410  51.411  1.00  0.00    -0.271 NA
HETATM   15  C10 UNL     1      21.750   6.555  50.833  1.00  0.00     0.135 A 
HETATM   16  C11 UNL     1      23.083   6.717  50.460  1.00  0.00     0.029 A 
HETATM   17 BR1  UNL     1      23.646   8.352  49.638  1.00  0.00    -0.050 Br
HETATM   18  C12 UNL     1      23.965   5.678  50.700  1.00  0.00     0.039 A 
ENDBRANCH   9  12
ENDBRANCH   5   8
ENDBRANCH   3   5
BRANCH   4  19
HETATM   19  C5  UNL     1      27.713  -1.010  52.835  1.00  0.00     0.031 C 
HETATM   20  C6  UNL     1      28.714  -0.791  53.672  1.00  0.00     0.188 C 
HETATM   21  F1  UNL     1      29.959  -1.178  53.308  1.00  0.00    -0.219 F 
ENDBRANCH   4  19
TORSDOF 4
ENDMDL
MODEL 5
REMARK VINA RESULT:      -6.7      3.299      6.128
REMARK  4 active torsions:
REMARK  status: ('A' for Active; 'I' for Inactive)
REMARK    1  A    between atoms: C3_3  and  S1_8 
REMARK    2  A    between atoms: C4_4  and  C5_5 
REMARK    3  A    between atoms: S1_8  and  N1_11 
REMARK       I    between atoms: N1_11  and  C7_12 
REMARK    4  A    between atoms: C7_12  and  C8_14 
ROOT
HETATM    1  C1  UNL     1      29.915  -0.978  53.461  1.00  0.00     0.019 C 
HETATM    2  C2  UNL     1      28.790  -0.508  53.361  1.00  0.00    -0.064 C 
HETATM    3  C3  UNL     1      27.441   0.027  53.240  1.00  0.00     0.132 C 
HETATM    4  C4  UNL     1      26.411  -0.802  53.211  1.00  0.00     0.036 C 
ENDROOT
BRANCH   3   5
HETATM    5  S1  UNL     1      27.360   1.758  53.145  1.00  0.00     0.273 S 
HETATM    6  O1  UNL     1      28.743   2.364  53.008  1.00  0.00    -0.199 OA
HETATM    7  O2  UNL     1      26.761   2.339  54.370  1.00  0.00    -0.199 OA
BRANCH   5   8
HETATM    8  N1  UNL     1      26.439   2.250  51.780  1.00  0.00    -0.245 N 
HETATM    9  C7  UNL     1      25.117   2.771  51.858  1.00  0.00     0.266 C 
HETATM   10  O3  UNL     1      24.677   2.839  53.052  1.00  0.00    -0.267 OA
HETATM   11  H5  UNL     1      26.863   2.166  50.822  1.00  0.00     0.182 HD
BRANCH   9  12
HETATM   12  C8  UNL     1      24.344   3.186  50.692  1.00  0.00     0.051 A 
HETATM   13  C9  UNL     1      23.333   2.464  50.090  1.00  0.00     0.133 A 
HETATM   14  N2  UNL     1      22.672   2.923  49.016  1.00  0.00    -0.271 NA
HETATM   15  C10 UNL     1      22.976   4.119  48.481  1.00  0.00     0.135 A 
HETATM   16  C11 UNL     1      23.986   4.900  49.038  1.00  0.00     0.029 A 
HETATM   17 BR1  UNL     1      24.406   6.600  48.264  1.00  0.00    -0.050 Br
HETATM   18  C12 UNL     1      24.658   4.414  50.145  1.00  0.00     0.039 A 
ENDBRANCH   9  12
ENDBRANCH   5   8
ENDBRANCH   3   5
BRANCH   4  19
HETATM   19  C5  UNL     1      24.992  -0.567  53.099  1.00  0.00     0.031 C 
HETATM   20  C6  UNL     1      24.060  -0.560  54.038  1.00  0.00     0.188 C 
HETATM   21  F1  UNL     1      22.779  -0.310  53.677  1.00  0.00    -0.219 F 
ENDBRANCH   4  19
TORSDOF 4
ENDMDL
MODEL 6
REMARK VINA RESULT:      -6.5      3.763      5.811
REMARK  4 active torsions:
REMARK  status: ('A' for Active; 'I' for Inactive)
REMARK    1  A    between atoms: C3_3  and  S1_8 
REMARK    2  A    between atoms: C4_4  and  C5_5 
REMARK    3  A    between atoms: S1_8  and  N1_11 
REMARK       I    between atoms: N1_11  and  C7_12 
REMARK    4  A    between atoms: C7_12  and  C8_14 
ROOT
HETATM    1  C1  UNL     1      27.063  -1.871  52.420  1.00  0.00     0.019 C 
HETATM    2  C2  UNL     1      26.429  -0.839  52.589  1.00  0.00    -0.064 C 
HETATM    3  C3  UNL     1      25.651   0.376  52.784  1.00  0.00     0.132 C 
HETATM    4  C4  UNL     1      24.330   0.315  52.762  1.00  0.00     0.036 C 
ENDROOT
BRANCH   3   5
HETATM    5  S1  UNL     1      26.601   1.807  53.030  1.00  0.00     0.273 S 
HETATM    6  O1  UNL     1      28.048   1.578  52.636  1.00  0.00    -0.199 OA
HETATM    7  O2  UNL     1      26.609   2.213  54.456  1.00  0.00    -0.199 OA
BRANCH   5   8
HETATM    8  N1  UNL     1      26.003   3.106  52.078  1.00  0.00    -0.245 N 
HETATM    9  C7  UNL     1      26.160   3.198  50.667  1.00  0.00     0.266 C 
HETATM   10  O3  UNL     1      26.795   2.211  50.170  1.00  0.00    -0.267 OA
HETATM   11  H5  UNL     1      25.487   3.890  52.553  1.00  0.00     0.182 HD
BRANCH   9  12
HETATM   12  C8  UNL     1      25.647   4.306  49.869  1.00  0.00     0.051 A 
HETATM   13  C9  UNL     1      24.317   4.589  49.632  1.00  0.00     0.133 A 
HETATM   14  N2  UNL     1      23.933   5.633  48.882  1.00  0.00    -0.271 NA
HETATM   15  C10 UNL     1      24.843   6.454  48.328  1.00  0.00     0.135 A 
HETATM   16  C11 UNL     1      26.203   6.227  48.526  1.00  0.00     0.029 A 
HETATM   17 BR1  UNL     1      27.487   7.404  47.730  1.00  0.00    -0.050 Br
HETATM   18  C12 UNL     1      26.584   5.147  49.302  1.00  0.00     0.039 A 
ENDBRANCH   9  12
ENDBRANCH   5   8
ENDBRANCH   3   5
BRANCH   4  19
HETATM   19  C5  UNL     1      23.318   1.332  52.921  1.00  0.00     0.031 C 
HETATM   20  C6  UNL     1      22.730   2.089  52.011  1.00  0.00     0.188 C 
HETATM   21  F1  UNL     1      21.798   2.984  52.416  1.00  0.00    -0.219 F 
ENDBRANCH   4  19
TORSDOF 4
ENDMDL
MODEL 7
REMARK VINA RESULT:      -6.4      4.085      5.488
REMARK  4 active torsions:
REMARK  status: ('A' for Active; 'I' for Inactive)
REMARK    1  A    between atoms: C3_3  and  S1_8 
REMARK    2  A    between atoms: C4_4  and  C5_5 
REMARK    3  A    between atoms: S1_8  and  N1_11 
REMARK       I    between atoms: N1_11  and  C7_12 
REMARK    4  A    between atoms: C7_12  and  C8_14 
ROOT
HETATM    1  C1  UNL     1      27.013   0.497  52.717  1.00  0.00     0.019 C 
HETATM    2  C2  UNL     1      25.794   0.575  52.663  1.00  0.00    -0.064 C 
HETATM    3  C3  UNL     1      24.340   0.646  52.612  1.00  0.00     0.132 C 
HETATM    4  C4  UNL     1      23.621  -0.238  53.281  1.00  0.00     0.036 C 
ENDROOT
BRANCH   3   5
HETATM    5  S1  UNL     1      23.717   1.938  51.636  1.00  0.00     0.273 S 
HETATM    6  O1  UNL     1      22.931   2.928  52.474  1.00  0.00    -0.199 OA
HETATM    7  O2  UNL     1      22.789   1.431  50.596  1.00  0.00    -0.199 OA
BRANCH   5   8
HETATM    8  N1  UNL     1      24.996   2.799  50.877  1.00  0.00    -0.245 N 
HETATM    9  C7  UNL     1      24.804   3.920  50.023  1.00  0.00     0.266 C 
HETATM   10  O3  UNL     1      23.576   4.228  49.872  1.00  0.00    -0.267 OA
HETATM   11  H5  UNL     1      25.988   2.490  51.044  1.00  0.00     0.182 HD
BRANCH   9  12
HETATM   12  C8  UNL     1      25.898   4.644  49.384  1.00  0.00     0.051 A 
HETATM   13  C9  UNL     1      27.177   4.167  49.181  1.00  0.00     0.133 A 
HETATM   14  N2  UNL     1      28.126   4.903  48.582  1.00  0.00    -0.271 NA
HETATM   15  C10 UNL     1      27.860   6.150  48.153  1.00  0.00     0.135 A 
HETATM   16  C11 UNL     1      26.590   6.694  48.325  1.00  0.00     0.029 A 
HETATM   17 BR1  UNL     1      26.226   8.470  47.708  1.00  0.00    -0.050 Br
HETATM   18  C12 UNL     1      25.621   5.922  48.943  1.00  0.00     0.039 A 
ENDBRANCH   9  12
ENDBRANCH   5   8
ENDBRANCH   3   5
BRANCH   4  19
HETATM   19  C5  UNL     1      22.195  -0.413  53.415  1.00  0.00     0.031 C 
HETATM   20  C6  UNL     1      21.341   0.193  54.223  1.00  0.00     0.188 C 
HETATM   21  F1  UNL     1      20.032  -0.151  54.158  1.00  0.00    -0.219 F 
ENDBRANCH   4  19
TORSDOF 4
ENDMDL
MODEL 8
REMARK VINA RESULT:      -6.3      3.197      3.517
REMARK  4 active torsions:
REMARK  status: ('A' for Active; 'I' for Inactive)
REMARK    1  A    between atoms: C3_3  and  S1_8 
REMARK    2  A    between atoms: C4_4  and  C5_5 
REMARK    3  A    between atoms: S1_8  and  N1_11 
REMARK       I    between atoms: N1_11  and  C7_12 
REMARK    4  A    between atoms: C7_12  and  C8_14 
ROOT
HETATM    1  C1  UNL     1      23.053   2.513  49.688  1.00  0.00     0.019 C 
HETATM    2  C2  UNL     1      22.350   1.795  50.385  1.00  0.00    -0.064 C 
HETATM    3  C3  UNL     1      21.492   0.945  51.199  1.00  0.00     0.132 C 
HETATM    4  C4  UNL     1      20.256   0.696  50.802  1.00  0.00     0.036 C 
ENDROOT
BRANCH   3   5
HETATM    5  S1  UNL     1      22.239   0.345  52.646  1.00  0.00     0.273 S 
HETATM    6  O1  UNL     1      22.244  -1.171  52.672  1.00  0.00    -0.199 OA
HETATM    7  O2  UNL     1      21.505   0.788  53.856  1.00  0.00    -0.199 OA
BRANCH   5   8
HETATM    8  N1  UNL     1      23.870   0.873  52.753  1.00  0.00    -0.245 N 
HETATM    9  C7  UNL     1      24.832   0.313  53.639  1.00  0.00     0.266 C 
HETATM   10  O3  UNL     1      24.361  -0.630  54.356  1.00  0.00    -0.267 OA
HETATM   11  H5  UNL     1      24.194   1.658  52.132  1.00  0.00     0.182 HD
BRANCH   9  12
HETATM   12  C8  UNL     1      26.215   0.769  53.721  1.00  0.00     0.051 A 
HETATM   13  C9  UNL     1      26.631   2.078  53.865  1.00  0.00     0.133 A 
HETATM   14  N2  UNL     1      27.929   2.410  53.931  1.00  0.00    -0.271 NA
HETATM   15  C10 UNL     1      28.885   1.466  53.860  1.00  0.00     0.135 A 
HETATM   16  C11 UNL     1      28.536   0.125  53.716  1.00  0.00     0.029 A 
HETATM   17 BR1  UNL     1      29.909  -1.207  53.616  1.00  0.00    -0.050 Br
HETATM   18  C12 UNL     1      27.193  -0.202  53.649  1.00  0.00     0.039 A 
ENDBRANCH   9  12
ENDBRANCH   5   8
ENDBRANCH   3   5
BRANCH   4  19
HETATM   19  C5  UNL     1      19.199  -0.092  51.389  1.00  0.00     0.031 C 
HETATM   20  C6  UNL     1      18.234   0.271  52.218  1.00  0.00     0.188 C 
HETATM   21  F1  UNL     1      17.350  -0.667  52.633  1.00  0.00    -0.219 F 
ENDBRANCH   4  19
TORSDOF 4
ENDMDL
MODEL 9
REMARK VINA RESULT:      -6.3      3.365      4.140
REMARK  4 active torsions:
REMARK  status: ('A' for Active; 'I' for Inactive)
REMARK    1  A    between atoms: C3_3  and  S1_8 
REMARK    2  A    between atoms: C4_4  and  C5_5 
REMARK    3  A    between atoms: S1_8  and  N1_11 
REMARK       I    between atoms: N1_11  and  C7_12 
REMARK    4  A    between atoms: C7_12  and  C8_14 
ROOT
HETATM    1  C1  UNL     1      22.012   7.104  50.523  1.00  0.00     0.019 C 
HETATM    2  C2  UNL     1      22.840   6.261  50.207  1.00  0.00    -0.064 C 
HETATM    3  C3  UNL     1      23.843   5.278  49.825  1.00  0.00     0.132 C 
HETATM    4  C4  UNL     1      25.062   5.680  49.505  1.00  0.00     0.036 C 
ENDROOT
BRANCH   3   5
HETATM    5  S1  UNL     1      23.283   3.636  49.840  1.00  0.00     0.273 S 
HETATM    6  O1  UNL     1      23.172   3.082  48.433  1.00  0.00    -0.199 OA
HETATM    7  O2  UNL     1      21.933   3.531  50.446  1.00  0.00    -0.199 OA
BRANCH   5   8
HETATM    8  N1  UNL     1      24.370   2.629  50.711  1.00  0.00    -0.245 N 
HETATM    9  C7  UNL     1      24.592   2.722  52.113  1.00  0.00     0.266 C 
HETATM   10  O3  UNL     1      23.898   3.635  52.669  1.00  0.00    -0.267 OA
HETATM   11  H5  UNL     1      24.913   1.895  50.189  1.00  0.00     0.182 HD
BRANCH   9  12
HETATM   12  C8  UNL     1      25.518   1.862  52.841  1.00  0.00     0.051 A 
HETATM   13  C9  UNL     1      26.221   2.205  53.979  1.00  0.00     0.133 A 
HETATM   14  N2  UNL     1      27.055   1.348  54.586  1.00  0.00    -0.271 NA
HETATM   15  C10 UNL     1      27.239   0.107  54.102  1.00  0.00     0.135 A 
HETATM   16  C11 UNL     1      26.561  -0.306  52.958  1.00  0.00     0.029 A 
HETATM   17 BR1  UNL     1      26.833  -2.077  52.281  1.00  0.00    -0.050 Br
HETATM   18  C12 UNL     1      25.704   0.588  52.342  1.00  0.00     0.039 A 
ENDBRANCH   9  12
ENDBRANCH   5   8
ENDBRANCH   3   5
BRANCH   4  19
HETATM   19  C5  UNL     1      26.237   4.950  49.095  1.00  0.00     0.031 C 
HETATM   20  C6  UNL     1      27.382   5.398  48.607  1.00  0.00     0.188 C 
HETATM   21  F1  UNL     1      28.347   4.501  48.293  1.00  0.00    -0.219 F 
ENDBRANCH   4  19
TORSDOF 4
ENDMDL
