MODEL 1
REMARK VINA RESULT:      -7.2      0.000      0.000
REMARK  6 active torsions:
REMARK  status: ('A' for Active; 'I' for Inactive)
REMARK    1  A    between atoms: C4_5  and  C5_6 
REMARK    2  A    between atoms: C5_6  and  C6_7 
REMARK    3  A    between atoms: N1_8  and  C7_9 
REMARK    4  A    between atoms: C8_10  and  C9_11 
REMARK    5  A    between atoms: C10_12  and  N2_13 
REMARK    6  A    between atoms: N2_13  and  C11_14 
ROOT
HETATM    1  C6  UNL     1      22.857   3.273  51.504  1.00  0.00     0.093 C 
HETATM    2  N1  UNL     1      22.985   2.360  52.392  1.00  0.00    -0.277 NA
ENDROOT
BRANCH   2   3
HETATM    3  C7  UNL     1      23.403   1.040  52.128  1.00  0.00     0.116 C 
HETATM    4  C8  UNL     1      24.601   0.971  52.709  1.00  0.00     0.021 C 
BRANCH   4   5
HETATM    5  C9  UNL     1      25.165   2.114  53.405  1.00  0.00     0.018 C 
HETATM    6  C10 UNL     1      26.492   2.208  53.541  1.00  0.00     0.084 C 
BRANCH   6   7
HETATM    7  N2  UNL     1      27.428   1.273  53.058  1.00  0.00    -0.388 N 
HETATM    8  H10 UNL     1      27.717   1.389  52.075  1.00  0.00     0.159 HD
BRANCH   7   9
HETATM    9  C11 UNL     1      27.949   0.210  53.916  1.00  0.00     0.127 A 
HETATM   10  C12 UNL     1      29.439   0.302  54.011  1.00  0.00     0.002 A 
HETATM   11  C13 UNL     1      29.993  -0.798  53.537  1.00  0.00    -0.002 A 
HETATM   12  C14 UNL     1      28.938  -1.712  53.088  1.00  0.00    -0.002 A 
HETATM   13  C15 UNL     1      27.783  -1.131  53.307  1.00  0.00     0.002 A 
ENDBRANCH   7   9
ENDBRANCH   6   7
ENDBRANCH   4   5
ENDBRANCH   2   3
BRANCH   1  14
HETATM   14  C5  UNL     1      22.967   3.641  50.076  1.00  0.00     0.087 C 
BRANCH  14  15
HETATM   15  C4  UNL     1      24.333   4.046  49.683  1.00  0.00    -0.032 A 
HETATM   16  C3  UNL     1      25.434   3.228  49.861  1.00  0.00     0.011 A 
HETATM   17  C2  UNL     1      26.709   3.607  49.492  1.00  0.00     0.024 A 
HETATM   18  C1  UNL     1      26.930   4.855  48.914  1.00  0.00     0.035 A 
HETATM   19 CL1  UNL     1      28.509   5.429  48.410  1.00  0.00    -0.084 Cl
HETATM   20  C17 UNL     1      25.822   5.659  48.742  1.00  0.00     0.048 A 
HETATM   21  C16 UNL     1      24.543   5.295  49.106  1.00  0.00     0.042 A 
HETATM   22 CL2  UNL     1      23.143   6.329  48.882  1.00  0.00    -0.084 Cl
ENDBRANCH  14  15
ENDBRANCH   1  14
TORSDOF 6
ENDMDL
MODEL 2
REMARK VINA RESULT:      -7.1      3.483      5.428
REMARK  6 active torsions:
REMARK  status: ('A' for Active; 'I' for Inactive)
REMARK    1  A    between atoms: C4_5  and  C5_6 
REMARK    2  A    between atoms: C5_6  and  C6_7 
REMARK    3  A    between atoms: N1_8  and  C7_9 
REMARK    4  A    between atoms: C8_10  and  C9_11 
REMARK    5  A    between atoms: C10_12  and  N2_13 
REMARK    6  A    between atoms: N2_13  and  C11_14 
ROOT
HETATM    1  C6  UNL     1      22.228   1.742  49.776  1.00  0.00     0.093 C 
HETATM    2  N1  UNL     1      23.043   2.698  49.531  1.00  0.00    -0.277 NA
ENDROOT
BRANCH   2   3
HETATM    3  C7  UNL     1      23.146   3.878  50.294  1.00  0.00     0.116 C 
HETATM    4  C8  UNL     1      24.450   4.155  50.263  1.00  0.00     0.021 C 
BRANCH   4   5
HETATM    5  C9  UNL     1      25.382   3.303  49.546  1.00  0.00     0.018 C 
HETATM    6  C10 UNL     1      26.470   2.848  50.177  1.00  0.00     0.084 C 
BRANCH   6   7
HETATM    7  N2  UNL     1      26.811   3.124  51.515  1.00  0.00    -0.388 N 
HETATM    8  H10 UNL     1      27.204   4.060  51.698  1.00  0.00     0.159 HD
BRANCH   7   9
HETATM    9  C11 UNL     1      26.612   2.129  52.568  1.00  0.00     0.127 A 
HETATM   10  C12 UNL     1      27.776   2.127  53.508  1.00  0.00     0.002 A 
HETATM   11  C13 UNL     1      28.362   0.945  53.501  1.00  0.00    -0.002 A 
HETATM   12  C14 UNL     1      27.653   0.062  52.570  1.00  0.00    -0.002 A 
HETATM   13  C15 UNL     1      26.662   0.744  52.046  1.00  0.00     0.002 A 
ENDBRANCH   7   9
ENDBRANCH   6   7
ENDBRANCH   4   5
ENDBRANCH   2   3
BRANCH   1  14
HETATM   14  C5  UNL     1      21.156   1.217  50.649  1.00  0.00     0.087 C 
BRANCH  14  15
HETATM   15  C4  UNL     1      21.670   0.564  51.872  1.00  0.00    -0.032 A 
HETATM   16  C3  UNL     1      23.001   0.616  52.243  1.00  0.00     0.011 A 
HETATM   17  C2  UNL     1      23.479   0.007  53.387  1.00  0.00     0.024 A 
HETATM   18  C1  UNL     1      22.612  -0.694  54.221  1.00  0.00     0.035 A 
HETATM   19 CL1  UNL     1      23.119  -1.500  55.694  1.00  0.00    -0.084 Cl
HETATM   20  C17 UNL     1      21.287  -0.736  53.839  1.00  0.00     0.048 A 
HETATM   21  C16 UNL     1      20.796  -0.133  52.700  1.00  0.00     0.042 A 
HETATM   22 CL2  UNL     1      19.108  -0.197  52.225  1.00  0.00    -0.084 Cl
ENDBRANCH  14  15
ENDBRANCH   1  14
TORSDOF 6
ENDMDL
MODEL 3
REMARK VINA RESULT:      -7.0      3.176      6.223
REMARK  6 active torsions:
REMARK  status: ('A' for Active; 'I' for Inactive)
REMARK    1  A    between atoms: C4_5  and  C5_6 
REMARK    2  A    between atoms: C5_6  and  C6_7 
REMARK    3  A    between atoms: N1_8  and  C7_9 
REMARK    4  A    between atoms: C8_10  and  C9_11 
REMARK    5  A    between atoms: C10_12  and  N2_13 
REMARK    6  A    between atoms: N2_13  and  C11_14 
ROOT
HETATM    1  C6  UNL     1      25.287   2.544  51.523  1.00  0.00     0.093 C 
HETATM    2  N1  UNL     1      24.404   3.123  50.799  1.00  0.00    -0.277 NA
ENDROOT
BRANCH   2   3
HETATM    3  C7  UNL     1      23.330   3.884  51.302  1.00  0.00     0.116 C 
HETATM    4  C8  UNL     1      22.288   3.059  51.197  1.00  0.00     0.021 C 
BRANCH   4   5
HETATM    5  C9  UNL     1      22.442   1.720  50.659  1.00  0.00     0.018 C 
HETATM    6  C10 UNL     1      21.676   0.732  51.133  1.00  0.00     0.084 C 
BRANCH   6   7
HETATM    7  N2  UNL     1      20.700   0.869  52.139  1.00  0.00    -0.388 N 
HETATM    8  H10 UNL     1      19.786   1.237  51.835  1.00  0.00     0.159 HD
BRANCH   7   9
HETATM    9  C11 UNL     1      20.985   0.505  53.526  1.00  0.00     0.127 A 
HETATM   10  C12 UNL     1      22.452   0.277  53.712  1.00  0.00     0.002 A 
HETATM   11  C13 UNL     1      22.672  -0.965  54.099  1.00  0.00    -0.002 A 
HETATM   12  C14 UNL     1      21.392  -1.670  54.204  1.00  0.00    -0.002 A 
HETATM   13  C15 UNL     1      20.441  -0.828  53.877  1.00  0.00     0.002 A 
ENDBRANCH   7   9
ENDBRANCH   6   7
ENDBRANCH   4   5
ENDBRANCH   2   3
BRANCH   1  14
HETATM   14  C5  UNL     1      25.783   2.259  52.886  1.00  0.00     0.087 C 
BRANCH  14  15
HETATM   15  C4  UNL     1      26.567   1.008  52.970  1.00  0.00    -0.032 A 
HETATM   16  C3  UNL     1      26.018  -0.236  52.713  1.00  0.00     0.011 A 
HETATM   17  C2  UNL     1      26.752  -1.402  52.790  1.00  0.00     0.024 A 
HETATM   18  C1  UNL     1      28.100  -1.361  53.136  1.00  0.00     0.035 A 
HETATM   19 CL1  UNL     1      29.118  -2.784  53.260  1.00  0.00    -0.084 Cl
HETATM   20  C17 UNL     1      28.634  -0.114  53.388  1.00  0.00     0.048 A 
HETATM   21  C16 UNL     1      27.914   1.060  53.316  1.00  0.00     0.042 A 
HETATM   22 CL2  UNL     1      28.606   2.639  53.641  1.00  0.00    -0.084 Cl
ENDBRANCH  14  15
ENDBRANCH   1  14
TORSDOF 6
ENDMDL
MODEL 4
REMARK VINA RESULT:      -7.0      3.463      6.824
REMARK  6 active torsions:
REMARK  status: ('A' for Active; 'I' for Inactive)
REMARK    1  A    between atoms: C4_5  and  C5_6 
REMARK    2  A    between atoms: C5_6  and  C6_7 
REMARK    3  A    between atoms: N1_8  and  C7_9 
REMARK    4  A    between atoms: C8_10  and  C9_11 
REMARK    5  A    between atoms: C10_12  and  N2_13 
REMARK    6  A    between atoms: N2_13  and  C11_14 
ROOT
HETATM    1  C6  UNL     1      24.835   0.952  53.228  1.00  0.00     0.093 C 
HETATM    2  N1  UNL     1      23.846   0.275  53.677  1.00  0.00    -0.277 NA
ENDROOT
BRANCH   2   3
HETATM    3  C7  UNL     1      23.499  -1.019  53.241  1.00  0.00     0.116 C 
HETATM    4  C8  UNL     1      22.295  -1.216  53.778  1.00  0.00     0.021 C 
BRANCH   4   5
HETATM    5  C9  UNL     1      21.662  -0.197  54.597  1.00  0.00     0.018 C 
HETATM    6  C10 UNL     1      20.559   0.412  54.148  1.00  0.00     0.084 C 
BRANCH   6   7
HETATM    7  N2  UNL     1      19.930   0.151  52.915  1.00  0.00    -0.388 N 
HETATM    8  H10 UNL     1      19.367  -0.712  52.869  1.00  0.00     0.159 HD
BRANCH   7   9
HETATM    9  C11 UNL     1      20.077   1.062  51.781  1.00  0.00     0.127 A 
HETATM   10  C12 UNL     1      21.013   0.483  50.767  1.00  0.00     0.002 A 
HETATM   11  C13 UNL     1      22.058   1.274  50.611  1.00  0.00    -0.002 A 
HETATM   12  C14 UNL     1      21.917   2.436  51.494  1.00  0.00    -0.002 A 
HETATM   13  C15 UNL     1      20.791   2.306  52.153  1.00  0.00     0.002 A 
ENDBRANCH   7   9
ENDBRANCH   6   7
ENDBRANCH   4   5
ENDBRANCH   2   3
BRANCH   1  14
HETATM   14  C5  UNL     1      25.982   1.008  52.297  1.00  0.00     0.087 C 
BRANCH  14  15
HETATM   15  C4  UNL     1      27.135   0.198  52.745  1.00  0.00    -0.032 A 
HETATM   16  C3  UNL     1      27.169  -1.180  52.627  1.00  0.00     0.011 A 
HETATM   17  C2  UNL     1      28.248  -1.935  53.045  1.00  0.00     0.024 A 
HETATM   18  C1  UNL     1      29.360  -1.316  53.610  1.00  0.00     0.035 A 
HETATM   19 CL1  UNL     1      30.777  -2.184  54.170  1.00  0.00    -0.084 Cl
HETATM   20  C17 UNL     1      29.311   0.059  53.720  1.00  0.00     0.048 A 
HETATM   21  C16 UNL     1      28.241   0.825  53.308  1.00  0.00     0.042 A 
HETATM   22 CL2  UNL     1      28.193   2.573  53.456  1.00  0.00    -0.084 Cl
ENDBRANCH  14  15
ENDBRANCH   1  14
TORSDOF 6
ENDMDL
MODEL 5
REMARK VINA RESULT:      -6.8      3.237      6.300
REMARK  6 active torsions:
REMARK  status: ('A' for Active; 'I' for Inactive)
REMARK    1  A    between atoms: C4_5  and  C5_6 
REMARK    2  A    between atoms: C5_6  and  C6_7 
REMARK    3  A    between atoms: N1_8  and  C7_9 
REMARK    4  A    between atoms: C8_10  and  C9_11 
REMARK    5  A    between atoms: C10_12  and  N2_13 
REMARK    6  A    between atoms: N2_13  and  C11_14 
ROOT
HETATM    1  C6  UNL     1      22.826   1.861  52.643  1.00  0.00     0.093 C 
HETATM    2  N1  UNL     1      22.608   2.725  51.725  1.00  0.00    -0.277 NA
ENDROOT
BRANCH   2   3
HETATM    3  C7  UNL     1      22.771   2.486  50.346  1.00  0.00     0.116 C 
HETATM    4  C8  UNL     1      23.213   3.654  49.878  1.00  0.00     0.021 C 
BRANCH   4   5
HETATM    5  C9  UNL     1      23.413   4.789  50.760  1.00  0.00     0.018 C 
HETATM    6  C10 UNL     1      24.649   5.264  50.946  1.00  0.00     0.084 C 
BRANCH   6   7
HETATM    7  N2  UNL     1      25.816   4.752  50.347  1.00  0.00    -0.388 N 
HETATM    8  H10 UNL     1      26.384   4.119  50.931  1.00  0.00     0.159 HD
BRANCH   7   9
HETATM    9  C11 UNL     1      26.185   5.108  48.978  1.00  0.00     0.127 A 
HETATM   10  C12 UNL     1      27.580   4.658  48.681  1.00  0.00     0.002 A 
HETATM   11  C13 UNL     1      28.338   5.697  48.387  1.00  0.00    -0.002 A 
HETATM   12  C14 UNL     1      27.531   6.918  48.460  1.00  0.00    -0.002 A 
HETATM   13  C15 UNL     1      26.311   6.573  48.795  1.00  0.00     0.002 A 
ENDBRANCH   7   9
ENDBRANCH   6   7
ENDBRANCH   4   5
ENDBRANCH   2   3
BRANCH   1  14
HETATM   14  C5  UNL     1      23.244   0.483  52.978  1.00  0.00     0.087 C 
BRANCH  14  15
HETATM   15  C4  UNL     1      24.712   0.322  53.053  1.00  0.00    -0.032 A 
HETATM   16  C3  UNL     1      25.572   0.877  52.123  1.00  0.00     0.011 A 
HETATM   17  C2  UNL     1      26.943   0.727  52.196  1.00  0.00     0.024 A 
HETATM   18  C1  UNL     1      27.514  -0.004  53.234  1.00  0.00     0.035 A 
HETATM   19 CL1  UNL     1      29.241  -0.251  53.416  1.00  0.00    -0.084 Cl
HETATM   20  C17 UNL     1      26.643  -0.550  54.155  1.00  0.00     0.048 A 
HETATM   21  C16 UNL     1      25.273  -0.410  54.095  1.00  0.00     0.042 A 
HETATM   22 CL2  UNL     1      24.178  -1.112  55.273  1.00  0.00    -0.084 Cl
ENDBRANCH  14  15
ENDBRANCH   1  14
TORSDOF 6
ENDMDL
MODEL 6
REMARK VINA RESULT:      -6.8      1.667      2.227
REMARK  6 active torsions:
REMARK  status: ('A' for Active; 'I' for Inactive)
REMARK    1  A    between atoms: C4_5  and  C5_6 
REMARK    2  A    between atoms: C5_6  and  C6_7 
REMARK    3  A    between atoms: N1_8  and  C7_9 
REMARK    4  A    between atoms: C8_10  and  C9_11 
REMARK    5  A    between atoms: C10_12  and  N2_13 
REMARK    6  A    between atoms: N2_13  and  C11_14 
ROOT
HETATM    1  C6  UNL     1      23.432   3.913  50.070  1.00  0.00     0.093 C 
HETATM    2  N1  UNL     1      23.405   3.118  51.073  1.00  0.00    -0.277 NA
ENDROOT
BRANCH   2   3
HETATM    3  C7  UNL     1      23.877   3.440  52.361  1.00  0.00     0.116 C 
HETATM    4  C8  UNL     1      23.803   2.282  53.018  1.00  0.00     0.021 C 
BRANCH   4   5
HETATM    5  C9  UNL     1      23.316   1.080  52.367  1.00  0.00     0.018 C 
HETATM    6  C10 UNL     1      23.541  -0.109  52.936  1.00  0.00     0.084 C 
BRANCH   6   7
HETATM    7  N2  UNL     1      24.227  -0.315  54.148  1.00  0.00    -0.388 N 
HETATM    8  H10 UNL     1      23.698  -0.107  55.008  1.00  0.00     0.159 HD
BRANCH   7   9
HETATM    9  C11 UNL     1      25.608  -0.798  54.165  1.00  0.00     0.127 A 
HETATM   10  C12 UNL     1      26.515   0.242  54.743  1.00  0.00     0.002 A 
HETATM   11  C13 UNL     1      27.415   0.606  53.848  1.00  0.00    -0.002 A 
HETATM   12  C14 UNL     1      27.194  -0.147  52.610  1.00  0.00    -0.002 A 
HETATM   13  C15 UNL     1      26.167  -0.940  52.801  1.00  0.00     0.002 A 
ENDBRANCH   7   9
ENDBRANCH   6   7
ENDBRANCH   4   5
ENDBRANCH   2   3
BRANCH   1  14
HETATM   14  C5  UNL     1      23.794   5.249  49.552  1.00  0.00     0.087 C 
BRANCH  14  15
HETATM   15  C4  UNL     1      25.217   5.357  49.167  1.00  0.00    -0.032 A 
HETATM   16  C3  UNL     1      26.114   4.315  49.322  1.00  0.00     0.011 A 
HETATM   17  C2  UNL     1      27.442   4.417  48.959  1.00  0.00     0.024 A 
HETATM   18  C1  UNL     1      27.930   5.600  48.412  1.00  0.00     0.035 A 
HETATM   19 CL1  UNL     1      29.598   5.830  47.919  1.00  0.00    -0.084 Cl
HETATM   20  C17 UNL     1      27.024   6.631  48.262  1.00  0.00     0.048 A 
HETATM   21  C16 UNL     1      25.696   6.544  48.620  1.00  0.00     0.042 A 
HETATM   22 CL2  UNL     1      24.555   7.863  48.425  1.00  0.00    -0.084 Cl
ENDBRANCH  14  15
ENDBRANCH   1  14
TORSDOF 6
ENDMDL
MODEL 7
REMARK VINA RESULT:      -6.8      3.872      6.283
REMARK  6 active torsions:
REMARK  status: ('A' for Active; 'I' for Inactive)
REMARK    1  A    between atoms: C4_5  and  C5_6 
REMARK    2  A    between atoms: C5_6  and  C6_7 
REMARK    3  A    between atoms: N1_8  and  C7_9 
REMARK    4  A    between atoms: C8_10  and  C9_11 
REMARK    5  A    between atoms: C10_12  and  N2_13 
REMARK    6  A    between atoms: N2_13  and  C11_14 
ROOT
HETATM    1  C6  UNL     1      23.086   1.478  51.261  1.00  0.00     0.093 C 
HETATM    2  N1  UNL     1      23.474   2.441  50.512  1.00  0.00    -0.277 NA
ENDROOT
BRANCH   2   3
HETATM    3  C7  UNL     1      23.445   3.801  50.877  1.00  0.00     0.116 C 
HETATM    4  C8  UNL     1      24.609   4.269  50.425  1.00  0.00     0.021 C 
BRANCH   4   5
HETATM    5  C9  UNL     1      25.550   3.404  49.737  1.00  0.00     0.018 C 
HETATM    6  C10 UNL     1      26.464   2.735  50.448  1.00  0.00     0.084 C 
BRANCH   6   7
HETATM    7  N2  UNL     1      26.607   2.790  51.847  1.00  0.00    -0.388 N 
HETATM    8  H10 UNL     1      26.325   3.675  52.296  1.00  0.00     0.159 HD
BRANCH   7   9
HETATM    9  C11 UNL     1      27.125   1.649  52.602  1.00  0.00     0.127 A 
HETATM   10  C12 UNL     1      26.713   0.366  51.952  1.00  0.00     0.002 A 
HETATM   11  C13 UNL     1      25.971  -0.343  52.782  1.00  0.00    -0.002 A 
HETATM   12  C14 UNL     1      25.824   0.390  54.042  1.00  0.00    -0.002 A 
HETATM   13  C15 UNL     1      26.482   1.519  53.930  1.00  0.00     0.002 A 
ENDBRANCH   7   9
ENDBRANCH   6   7
ENDBRANCH   4   5
ENDBRANCH   2   3
BRANCH   1  14
HETATM   14  C5  UNL     1      22.523   1.069  52.566  1.00  0.00     0.087 C 
BRANCH  14  15
HETATM   15  C4  UNL     1      21.150   0.533  52.464  1.00  0.00    -0.032 A 
HETATM   16  C3  UNL     1      20.335   0.770  51.370  1.00  0.00     0.011 A 
HETATM   17  C2  UNL     1      19.053   0.268  51.276  1.00  0.00     0.024 A 
HETATM   18  C1  UNL     1      18.528  -0.513  52.303  1.00  0.00     0.035 A 
HETATM   19 CL1  UNL     1      16.913  -1.197  52.279  1.00  0.00    -0.084 Cl
HETATM   20  C17 UNL     1      19.352  -0.741  53.387  1.00  0.00     0.048 A 
HETATM   21  C16 UNL     1      20.634  -0.246  53.495  1.00  0.00     0.042 A 
HETATM   22 CL2  UNL     1      21.670  -0.543  54.880  1.00  0.00    -0.084 Cl
ENDBRANCH  14  15
ENDBRANCH   1  14
TORSDOF 6
ENDMDL
MODEL 8
REMARK VINA RESULT:      -6.7      3.642      7.200
REMARK  6 active torsions:
REMARK  status: ('A' for Active; 'I' for Inactive)
REMARK    1  A    between atoms: C4_5  and  C5_6 
REMARK    2  A    between atoms: C5_6  and  C6_7 
REMARK    3  A    between atoms: N1_8  and  C7_9 
REMARK    4  A    between atoms: C8_10  and  C9_11 
REMARK    5  A    between atoms: C10_12  and  N2_13 
REMARK    6  A    between atoms: N2_13  and  C11_14 
ROOT
HETATM    1  C6  UNL     1      24.790   2.995  52.066  1.00  0.00     0.093 C 
HETATM    2  N1  UNL     1      25.160   3.121  50.847  1.00  0.00    -0.277 NA
ENDROOT
BRANCH   2   3
HETATM    3  C7  UNL     1      26.417   2.728  50.347  1.00  0.00     0.116 C 
HETATM    4  C8  UNL     1      26.739   3.711  49.506  1.00  0.00     0.021 C 
BRANCH   4   5
HETATM    5  C9  UNL     1      25.852   4.841  49.297  1.00  0.00     0.018 C 
HETATM    6  C10 UNL     1      26.375   6.048  49.054  1.00  0.00     0.084 C 
BRANCH   6   7
HETATM    7  N2  UNL     1      27.750   6.338  48.979  1.00  0.00    -0.388 N 
HETATM    8  H10 UNL     1      28.388   5.596  49.304  1.00  0.00     0.159 HD
BRANCH   7   9
HETATM    9  C11 UNL     1      28.226   7.622  48.465  1.00  0.00     0.127 A 
HETATM   10  C12 UNL     1      27.720   7.846  47.075  1.00  0.00     0.002 A 
HETATM   11  C13 UNL     1      28.733   7.953  46.236  1.00  0.00    -0.002 A 
HETATM   12  C14 UNL     1      29.989   7.814  46.977  1.00  0.00    -0.002 A 
HETATM   13  C15 UNL     1      29.691   7.626  48.241  1.00  0.00     0.002 A 
ENDBRANCH   7   9
ENDBRANCH   6   7
ENDBRANCH   4   5
ENDBRANCH   2   3
BRANCH   1  14
HETATM   14  C5  UNL     1      25.140   2.545  53.430  1.00  0.00     0.087 C 
BRANCH  14  15
HETATM   15  C4  UNL     1      26.359   1.711  53.472  1.00  0.00    -0.032 A 
HETATM   16  C3  UNL     1      27.628   2.249  53.599  1.00  0.00     0.011 A 
HETATM   17  C2  UNL     1      28.766   1.468  53.640  1.00  0.00     0.024 A 
HETATM   18  C1  UNL     1      28.668   0.082  53.553  1.00  0.00     0.035 A 
HETATM   19 CL1  UNL     1      30.051  -0.996  53.596  1.00  0.00    -0.084 Cl
HETATM   20  C17 UNL     1      27.397  -0.441  53.428  1.00  0.00     0.048 A 
HETATM   21  C16 UNL     1      26.252   0.326  53.385  1.00  0.00     0.042 A 
HETATM   22 CL2  UNL     1      24.641  -0.352  53.224  1.00  0.00    -0.084 Cl
ENDBRANCH  14  15
ENDBRANCH   1  14
TORSDOF 6
ENDMDL
MODEL 9
REMARK VINA RESULT:      -6.7      3.106      5.532
REMARK  6 active torsions:
REMARK  status: ('A' for Active; 'I' for Inactive)
REMARK    1  A    between atoms: C4_5  and  C5_6 
REMARK    2  A    between atoms: C5_6  and  C6_7 
REMARK    3  A    between atoms: N1_8  and  C7_9 
REMARK    4  A    between atoms: C8_10  and  C9_11 
REMARK    5  A    between atoms: C10_12  and  N2_13 
REMARK    6  A    between atoms: N2_13  and  C11_14 
ROOT
HETATM    1  C6  UNL     1      23.668   2.721  49.577  1.00  0.00     0.093 C 
HETATM    2  N1  UNL     1      22.400   2.672  49.408  1.00  0.00    -0.277 NA
ENDROOT
BRANCH   2   3
HETATM    3  C7  UNL     1      21.475   3.522  50.047  1.00  0.00     0.116 C 
HETATM    4  C8  UNL     1      20.487   2.698  50.398  1.00  0.00     0.021 C 
BRANCH   4   5
HETATM    5  C9  UNL     1      20.549   1.279  50.095  1.00  0.00     0.018 C 
HETATM    6  C10 UNL     1      20.432   0.392  51.089  1.00  0.00     0.084 C 
BRANCH   6   7
HETATM    7  N2  UNL     1      20.248   0.712  52.447  1.00  0.00    -0.388 N 
HETATM    8  H10 UNL     1      19.273   0.864  52.748  1.00  0.00     0.159 HD
BRANCH   7   9
HETATM    9  C11 UNL     1      21.384   0.814  53.363  1.00  0.00     0.127 A 
HETATM   10  C12 UNL     1      22.564   0.080  52.810  1.00  0.00     0.002 A 
HETATM   11  C13 UNL     1      22.918  -0.892  53.630  1.00  0.00    -0.002 A 
HETATM   12  C14 UNL     1      22.019  -0.895  54.787  1.00  0.00    -0.002 A 
HETATM   13  C15 UNL     1      21.153   0.076  54.626  1.00  0.00     0.002 A 
ENDBRANCH   7   9
ENDBRANCH   6   7
ENDBRANCH   4   5
ENDBRANCH   2   3
BRANCH   1  14
HETATM   14  C5  UNL     1      24.807   3.376  50.255  1.00  0.00     0.087 C 
BRANCH  14  15
HETATM   15  C4  UNL     1      25.342   2.588  51.385  1.00  0.00    -0.032 A 
HETATM   16  C3  UNL     1      26.294   1.598  51.220  1.00  0.00     0.011 A 
HETATM   17  C2  UNL     1      26.794   0.864  52.278  1.00  0.00     0.024 A 
HETATM   18  C1  UNL     1      26.345   1.106  53.574  1.00  0.00     0.035 A 
HETATM   19 CL1  UNL     1      26.917   0.231  54.982  1.00  0.00    -0.084 Cl
HETATM   20  C17 UNL     1      25.397   2.098  53.722  1.00  0.00     0.048 A 
HETATM   21  C16 UNL     1      24.888   2.838  52.676  1.00  0.00     0.042 A 
HETATM   22 CL2  UNL     1      23.680   4.095  52.881  1.00  0.00    -0.084 Cl
ENDBRANCH  14  15
ENDBRANCH   1  14
TORSDOF 6
ENDMDL
