MODEL 1
REMARK VINA RESULT:      -7.6      0.000      0.000
REMARK  7 active torsions:
REMARK  status: ('A' for Active; 'I' for Inactive)
REMARK    1  A    between atoms: C2_2  and  C3_3 
REMARK    2  A    between atoms: C3_3  and  C4_4 
REMARK    3  A    between atoms: C4_4  and  C5_5 
REMARK    4  A    between atoms: C5_5  and  C6_6 
REMARK    5  A    between atoms: C6_6  and  N1_7 
REMARK       I    between atoms: N1_7  and  C7_8 
REMARK    6  A    between atoms: C7_8  and  C8_10 
REMARK    7  A    between atoms: C8_10  and  C9_11 
ROOT
HETATM    1  C9  UNL     1      24.210   3.040  52.824  1.00  0.00    -0.052 C 
HETATM    2  C10 UNL     1      23.823   2.060  52.072  1.00  0.00     0.092 C 
HETATM    3  N2  UNL     1      24.353   0.810  51.770  1.00  0.00    -0.365 N 
HETATM    4  C11 UNL     1      25.589   0.465  52.341  1.00  0.00     0.035 C 
HETATM    5  C12 UNL     1      26.157  -0.778  52.375  1.00  0.00     0.009 C 
HETATM    6  C13 UNL     1      27.401  -1.519  52.868  1.00  0.00     0.030 A 
HETATM    7  C14 UNL     1      28.505  -1.218  53.438  1.00  0.00     0.064 A 
HETATM    8  C15 UNL     1      28.931   0.214  53.788  1.00  0.00     0.082 A 
HETATM    9  O2  UNL     1      28.075  -0.432  53.210  1.00  0.00     0.000 OA
HETATM   10  O3  UNL     1      29.379   1.405  54.135  1.00  0.00    -0.349 OA
HETATM   11  C16 UNL     1      28.691   2.603  53.579  1.00  0.00     0.203 C 
HETATM   12  C17 UNL     1      27.318   2.027  53.314  1.00  0.00     0.009 C 
HETATM   13  C18 UNL     1      26.119   1.598  53.142  1.00  0.00    -0.029 C 
HETATM   14  C19 UNL     1      25.376   2.684  53.769  1.00  0.00     0.076 C 
HETATM   15  H14 UNL     1      23.938   0.087  51.151  1.00  0.00     0.165 HD
ENDROOT
BRANCH   1  16
HETATM   16  C8  UNL     1      23.646   4.335  53.101  1.00  0.00     0.138 C 
BRANCH  16  17
HETATM   17  C7  UNL     1      23.632   5.281  51.924  1.00  0.00     0.221 C 
HETATM   18  N1  UNL     1      24.509   6.457  51.982  1.00  0.00    -0.357 N 
HETATM   19  H10 UNL     1      25.059   6.477  52.891  1.00  0.00     0.162 HD
HETATM   20  O1  UNL     1      23.002   5.327  50.803  1.00  0.00    -0.273 OA
BRANCH  18  21
HETATM   21  C6  UNL     1      24.304   7.210  50.734  1.00  0.00     0.149 C 
BRANCH  21  22
HETATM   22  C5  UNL     1      25.525   7.240  49.903  1.00  0.00    -0.011 C 
BRANCH  22  23
HETATM   23  C4  UNL     1      26.613   6.921  49.135  1.00  0.00    -0.023 C 
BRANCH  23  24
HETATM   24  C3  UNL     1      25.843   5.767  48.893  1.00  0.00     0.020 C 
BRANCH  24  25
HETATM   25  C2  UNL     1      26.850   4.809  49.061  1.00  0.00    -0.006 C 
HETATM   26  C1  UNL     1      26.244   3.573  49.642  1.00  0.00     0.011 C 
ENDBRANCH  24  25
ENDBRANCH  23  24
ENDBRANCH  22  23
ENDBRANCH  21  22
ENDBRANCH  18  21
ENDBRANCH  16  17
ENDBRANCH   1  16
TORSDOF 7
ENDMDL
MODEL 2
REMARK VINA RESULT:      -7.5      3.044      5.518
REMARK  7 active torsions:
REMARK  status: ('A' for Active; 'I' for Inactive)
REMARK    1  A    between atoms: C2_2  and  C3_3 
REMARK    2  A    between atoms: C3_3  and  C4_4 
REMARK    3  A    between atoms: C4_4  and  C5_5 
REMARK    4  A    between atoms: C5_5  and  C6_6 
REMARK    5  A    between atoms: C6_6  and  N1_7 
REMARK       I    between atoms: N1_7  and  C7_8 
REMARK    6  A    between atoms: C7_8  and  C8_10 
REMARK    7  A    between atoms: C8_10  and  C9_11 
ROOT
HETATM    1  C9  UNL     1      25.013   1.968  52.056  1.00  0.00    -0.052 C 
HETATM    2  C10 UNL     1      25.532   2.691  52.996  1.00  0.00     0.092 C 
HETATM    3  N2  UNL     1      26.656   2.557  53.803  1.00  0.00    -0.365 N 
HETATM    4  C11 UNL     1      27.443   1.403  53.650  1.00  0.00     0.035 C 
HETATM    5  C12 UNL     1      28.696   1.194  54.154  1.00  0.00     0.009 C 
HETATM    6  C13 UNL     1      29.811   0.148  54.207  1.00  0.00     0.030 A 
HETATM    7  C14 UNL     1      29.986  -1.055  53.810  1.00  0.00     0.064 A 
HETATM    8  C15 UNL     1      28.917  -1.890  53.095  1.00  0.00     0.082 A 
HETATM    9  O2  UNL     1      29.101  -0.830  53.667  1.00  0.00     0.000 OA
HETATM   10  O3  UNL     1      28.068  -2.680  52.468  1.00  0.00    -0.349 OA
HETATM   11  C16 UNL     1      26.632  -2.283  52.434  1.00  0.00     0.203 C 
HETATM   12  C17 UNL     1      26.764  -0.784  52.587  1.00  0.00     0.009 C 
HETATM   13  C18 UNL     1      26.834   0.497  52.642  1.00  0.00    -0.029 C 
HETATM   14  C19 UNL     1      25.935   0.841  51.547  1.00  0.00     0.076 C 
HETATM   15  H14 UNL     1      26.988   3.221  54.529  1.00  0.00     0.165 HD
ENDROOT
BRANCH   1  16
HETATM   16  C8  UNL     1      23.831   2.124  51.249  1.00  0.00     0.138 C 
BRANCH  16  17
HETATM   17  C7  UNL     1      22.546   1.715  51.928  1.00  0.00     0.221 C 
HETATM   18  N1  UNL     1      22.008   0.383  51.627  1.00  0.00    -0.357 N 
HETATM   19  H10 UNL     1      22.632  -0.132  50.938  1.00  0.00     0.162 HD
HETATM   20  O1  UNL     1      21.741   2.275  52.762  1.00  0.00    -0.273 OA
BRANCH  18  21
HETATM   21  C6  UNL     1      20.764   0.235  52.400  1.00  0.00     0.149 C 
BRANCH  21  22
HETATM   22  C5  UNL     1      20.899  -0.773  53.471  1.00  0.00    -0.011 C 
BRANCH  22  23
HETATM   23  C4  UNL     1      21.346  -1.738  54.333  1.00  0.00    -0.023 C 
BRANCH  23  24
HETATM   24  C3  UNL     1      22.011  -0.632  54.898  1.00  0.00     0.020 C 
BRANCH  24  25
HETATM   25  C2  UNL     1      23.311  -0.940  54.483  1.00  0.00    -0.006 C 
HETATM   26  C1  UNL     1      24.140  -1.247  55.689  1.00  0.00     0.011 C 
ENDBRANCH  24  25
ENDBRANCH  23  24
ENDBRANCH  22  23
ENDBRANCH  21  22
ENDBRANCH  18  21
ENDBRANCH  16  17
ENDBRANCH   1  16
TORSDOF 7
ENDMDL
MODEL 3
REMARK VINA RESULT:      -7.4      1.741      2.871
REMARK  7 active torsions:
REMARK  status: ('A' for Active; 'I' for Inactive)
REMARK    1  A    between atoms: C2_2  and  C3_3 
REMARK    2  A    between atoms: C3_3  and  C4_4 
REMARK    3  A    between atoms: C4_4  and  C5_5 
REMARK    4  A    between atoms: C5_5  and  C6_6 
REMARK    5  A    between atoms: C6_6  and  N1_7 
REMARK       I    between atoms: N1_7  and  C7_8 
REMARK    6  A    between atoms: C7_8  and  C8_10 
REMARK    7  A    between atoms: C8_10  and  C9_11 
ROOT
HETATM    1  C9  UNL     1      24.906   1.796  52.301  1.00  0.00    -0.052 C 
HETATM    2  C10 UNL     1      25.466   2.538  53.201  1.00  0.00     0.092 C 
HETATM    3  N2  UNL     1      26.650   2.443  53.926  1.00  0.00    -0.365 N 
HETATM    4  C11 UNL     1      27.461   1.315  53.717  1.00  0.00     0.035 C 
HETATM    5  C12 UNL     1      28.753   1.148  54.130  1.00  0.00     0.009 C 
HETATM    6  C13 UNL     1      29.903   0.140  54.104  1.00  0.00     0.030 A 
HETATM    7  C14 UNL     1      30.089  -1.057  53.696  1.00  0.00     0.064 A 
HETATM    8  C15 UNL     1      28.999  -1.929  53.059  1.00  0.00     0.082 A 
HETATM    9  O2  UNL     1      29.189  -0.862  53.616  1.00  0.00     0.000 OA
HETATM   10  O3  UNL     1      28.134  -2.748  52.494  1.00  0.00    -0.349 OA
HETATM   11  C16 UNL     1      26.688  -2.399  52.562  1.00  0.00     0.203 C 
HETATM   12  C17 UNL     1      26.781  -0.896  52.706  1.00  0.00     0.009 C 
HETATM   13  C18 UNL     1      26.812   0.387  52.755  1.00  0.00    -0.029 C 
HETATM   14  C19 UNL     1      25.827   0.698  51.727  1.00  0.00     0.076 C 
HETATM   15  H14 UNL     1      27.010   3.120  54.627  1.00  0.00     0.165 HD
ENDROOT
BRANCH   1  16
HETATM   16  C8  UNL     1      23.665   1.911  51.580  1.00  0.00     0.138 C 
BRANCH  16  17
HETATM   17  C7  UNL     1      23.551   3.143  50.714  1.00  0.00     0.221 C 
HETATM   18  N1  UNL     1      24.644   3.420  49.774  1.00  0.00    -0.357 N 
HETATM   19  H10 UNL     1      25.399   2.675  49.838  1.00  0.00     0.162 HD
HETATM   20  O1  UNL     1      22.682   4.083  50.581  1.00  0.00    -0.273 OA
BRANCH  18  21
HETATM   21  C6  UNL     1      24.299   4.663  49.065  1.00  0.00     0.149 C 
BRANCH  21  22
HETATM   22  C5  UNL     1      25.462   5.563  48.934  1.00  0.00    -0.011 C 
BRANCH  22  23
HETATM   23  C4  UNL     1      26.380   6.569  49.070  1.00  0.00    -0.023 C 
BRANCH  23  24
HETATM   24  C3  UNL     1      27.232   5.583  48.537  1.00  0.00     0.020 C 
BRANCH  24  25
HETATM   25  C2  UNL     1      28.315   6.404  48.205  1.00  0.00    -0.006 C 
HETATM   26  C1  UNL     1      29.544   5.560  48.102  1.00  0.00     0.011 C 
ENDBRANCH  24  25
ENDBRANCH  23  24
ENDBRANCH  22  23
ENDBRANCH  21  22
ENDBRANCH  18  21
ENDBRANCH  16  17
ENDBRANCH   1  16
TORSDOF 7
ENDMDL
MODEL 4
REMARK VINA RESULT:      -7.3      3.938      6.538
REMARK  7 active torsions:
REMARK  status: ('A' for Active; 'I' for Inactive)
REMARK    1  A    between atoms: C2_2  and  C3_3 
REMARK    2  A    between atoms: C3_3  and  C4_4 
REMARK    3  A    between atoms: C4_4  and  C5_5 
REMARK    4  A    between atoms: C5_5  and  C6_6 
REMARK    5  A    between atoms: C6_6  and  N1_7 
REMARK       I    between atoms: N1_7  and  C7_8 
REMARK    6  A    between atoms: C7_8  and  C8_10 
REMARK    7  A    between atoms: C8_10  and  C9_11 
ROOT
HETATM    1  C9  UNL     1      24.663   1.666  52.642  1.00  0.00    -0.052 C 
HETATM    2  C10 UNL     1      25.275   2.474  53.446  1.00  0.00     0.092 C 
HETATM    3  N2  UNL     1      26.534   2.473  54.039  1.00  0.00    -0.365 N 
HETATM    4  C11 UNL     1      27.379   1.380  53.783  1.00  0.00     0.035 C 
HETATM    5  C12 UNL     1      28.716   1.298  54.056  1.00  0.00     0.009 C 
HETATM    6  C13 UNL     1      29.912   0.350  53.940  1.00  0.00     0.030 A 
HETATM    7  C14 UNL     1      30.119  -0.852  53.559  1.00  0.00     0.064 A 
HETATM    8  C15 UNL     1      29.017  -1.806  53.081  1.00  0.00     0.082 A 
HETATM    9  O2  UNL     1      29.206  -0.707  53.572  1.00  0.00     0.000 OA
HETATM   10  O3  UNL     1      28.143  -2.693  52.647  1.00  0.00    -0.349 OA
HETATM   11  C16 UNL     1      26.695  -2.416  52.862  1.00  0.00     0.203 C 
HETATM   12  C17 UNL     1      26.718  -0.905  52.938  1.00  0.00     0.009 C 
HETATM   13  C18 UNL     1      26.683   0.379  52.935  1.00  0.00    -0.029 C 
HETATM   14  C19 UNL     1      25.575   0.593  52.012  1.00  0.00     0.076 C 
HETATM   15  H14 UNL     1      26.930   3.197  54.669  1.00  0.00     0.165 HD
ENDROOT
BRANCH   1  16
HETATM   16  C8  UNL     1      23.346   1.685  52.061  1.00  0.00     0.138 C 
BRANCH  16  17
HETATM   17  C7  UNL     1      22.381   0.687  52.654  1.00  0.00     0.221 C 
HETATM   18  N1  UNL     1      20.973   1.087  52.775  1.00  0.00    -0.357 N 
HETATM   19  H10 UNL     1      20.825   2.072  52.408  1.00  0.00     0.162 HD
HETATM   20  O1  UNL     1      22.482  -0.509  53.118  1.00  0.00    -0.273 OA
BRANCH  18  21
HETATM   21  C6  UNL     1      20.254  -0.046  53.382  1.00  0.00     0.149 C 
BRANCH  21  22
HETATM   22  C5  UNL     1      19.062  -0.424  52.596  1.00  0.00    -0.011 C 
BRANCH  22  23
HETATM   23  C4  UNL     1      17.791  -0.696  52.166  1.00  0.00    -0.023 C 
BRANCH  23  24
HETATM   24  C3  UNL     1      17.777  -1.461  53.348  1.00  0.00     0.020 C 
BRANCH  24  25
HETATM   25  C2  UNL     1      16.781  -2.376  52.989  1.00  0.00    -0.006 C 
HETATM   26  C1  UNL     1      17.144  -3.720  53.534  1.00  0.00     0.011 C 
ENDBRANCH  24  25
ENDBRANCH  23  24
ENDBRANCH  22  23
ENDBRANCH  21  22
ENDBRANCH  18  21
ENDBRANCH  16  17
ENDBRANCH   1  16
TORSDOF 7
ENDMDL
MODEL 5
REMARK VINA RESULT:      -7.2      3.318      5.832
REMARK  7 active torsions:
REMARK  status: ('A' for Active; 'I' for Inactive)
REMARK    1  A    between atoms: C2_2  and  C3_3 
REMARK    2  A    between atoms: C3_3  and  C4_4 
REMARK    3  A    between atoms: C4_4  and  C5_5 
REMARK    4  A    between atoms: C5_5  and  C6_6 
REMARK    5  A    between atoms: C6_6  and  N1_7 
REMARK       I    between atoms: N1_7  and  C7_8 
REMARK    6  A    between atoms: C7_8  and  C8_10 
REMARK    7  A    between atoms: C8_10  and  C9_11 
ROOT
HETATM    1  C9  UNL     1      24.727  -0.586  54.471  1.00  0.00    -0.052 C 
HETATM    2  C10 UNL     1      23.999  -1.277  55.287  1.00  0.00     0.092 C 
HETATM    3  N2  UNL     1      22.636  -1.545  55.371  1.00  0.00    -0.365 N 
HETATM    4  C11 UNL     1      21.790  -0.955  54.418  1.00  0.00     0.035 C 
HETATM    5  C12 UNL     1      20.485  -1.275  54.172  1.00  0.00     0.009 C 
HETATM    6  C13 UNL     1      19.300  -0.896  53.281  1.00  0.00     0.030 A 
HETATM    7  C14 UNL     1      19.045  -0.019  52.386  1.00  0.00     0.064 A 
HETATM    8  C15 UNL     1      20.029   1.072  51.946  1.00  0.00     0.082 A 
HETATM    9  O2  UNL     1      19.866   0.181  52.760  1.00  0.00     0.000 OA
HETATM   10  O3  UNL     1      20.806   2.038  51.495  1.00  0.00    -0.349 OA
HETATM   11  C16 UNL     1      22.033   2.371  52.272  1.00  0.00     0.203 C 
HETATM   12  C17 UNL     1      22.282   1.049  52.962  1.00  0.00     0.009 C 
HETATM   13  C18 UNL     1      22.573  -0.076  53.511  1.00  0.00    -0.029 C 
HETATM   14  C19 UNL     1      23.992  -0.150  53.186  1.00  0.00     0.076 C 
HETATM   15  H14 UNL     1      22.157  -2.137  56.077  1.00  0.00     0.165 HD
ENDROOT
BRANCH   1  16
HETATM   16  C8  UNL     1      26.139  -0.310  54.422  1.00  0.00     0.138 C 
BRANCH  16  17
HETATM   17  C7  UNL     1      26.501   1.017  53.800  1.00  0.00     0.221 C 
HETATM   18  N1  UNL     1      26.975   1.014  52.411  1.00  0.00    -0.357 N 
HETATM   19  H10 UNL     1      26.996   0.027  52.018  1.00  0.00     0.162 HD
HETATM   20  O1  UNL     1      26.504   2.239  54.204  1.00  0.00    -0.273 OA
BRANCH  18  21
HETATM   21  C6  UNL     1      27.263   2.411  52.050  1.00  0.00     0.149 C 
BRANCH  21  22
HETATM   22  C5  UNL     1      26.548   2.822  50.825  1.00  0.00    -0.011 C 
BRANCH  22  23
HETATM   23  C4  UNL     1      25.645   3.311  49.919  1.00  0.00    -0.023 C 
BRANCH  23  24
HETATM   24  C3  UNL     1      26.820   3.824  49.338  1.00  0.00     0.020 C 
BRANCH  24  25
HETATM   25  C2  UNL     1      26.375   5.128  49.091  1.00  0.00    -0.006 C 
HETATM   26  C1  UNL     1      27.477   5.896  48.436  1.00  0.00     0.011 C 
ENDBRANCH  24  25
ENDBRANCH  23  24
ENDBRANCH  22  23
ENDBRANCH  21  22
ENDBRANCH  18  21
ENDBRANCH  16  17
ENDBRANCH   1  16
TORSDOF 7
ENDMDL
MODEL 6
REMARK VINA RESULT:      -7.2      3.713      7.091
REMARK  7 active torsions:
REMARK  status: ('A' for Active; 'I' for Inactive)
REMARK    1  A    between atoms: C2_2  and  C3_3 
REMARK    2  A    between atoms: C3_3  and  C4_4 
REMARK    3  A    between atoms: C4_4  and  C5_5 
REMARK    4  A    between atoms: C5_5  and  C6_6 
REMARK    5  A    between atoms: C6_6  and  N1_7 
REMARK       I    between atoms: N1_7  and  C7_8 
REMARK    6  A    between atoms: C7_8  and  C8_10 
REMARK    7  A    between atoms: C8_10  and  C9_11 
ROOT
HETATM    1  C9  UNL     1      22.837  -0.745  54.205  1.00  0.00    -0.052 C 
HETATM    2  C10 UNL     1      21.739  -0.794  54.888  1.00  0.00     0.092 C 
HETATM    3  N2  UNL     1      20.399  -0.593  54.574  1.00  0.00    -0.365 N 
HETATM    4  C11 UNL     1      20.080  -0.227  53.256  1.00  0.00     0.035 C 
HETATM    5  C12 UNL     1      18.839  -0.224  52.684  1.00  0.00     0.009 C 
HETATM    6  C13 UNL     1      18.121   0.085  51.368  1.00  0.00     0.030 A 
HETATM    7  C14 UNL     1      18.433   0.549  50.219  1.00  0.00     0.064 A 
HETATM    8  C15 UNL     1      19.840   1.025  49.835  1.00  0.00     0.082 A 
HETATM    9  O2  UNL     1      19.167   0.635  50.773  1.00  0.00     0.000 OA
HETATM   10  O3  UNL     1      21.015   1.447  49.410  1.00  0.00    -0.349 OA
HETATM   11  C16 UNL     1      22.080   1.696  50.422  1.00  0.00     0.203 C 
HETATM   12  C17 UNL     1      21.627   0.763  51.524  1.00  0.00     0.009 C 
HETATM   13  C18 UNL     1      21.321  -0.068  52.453  1.00  0.00    -0.029 C 
HETATM   14  C19 UNL     1      22.624  -0.680  52.678  1.00  0.00     0.076 C 
HETATM   15  H14 UNL     1      19.586  -0.676  55.215  1.00  0.00     0.165 HD
ENDROOT
BRANCH   1  16
HETATM   16  C8  UNL     1      24.217  -0.938  54.566  1.00  0.00     0.138 C 
BRANCH  16  17
HETATM   17  C7  UNL     1      25.209  -0.312  53.617  1.00  0.00     0.221 C 
HETATM   18  N1  UNL     1      25.390   1.143  53.678  1.00  0.00    -0.357 N 
HETATM   19  H10 UNL     1      24.765   1.573  54.423  1.00  0.00     0.162 HD
HETATM   20  O1  UNL     1      25.993  -0.758  52.698  1.00  0.00    -0.273 OA
BRANCH  18  21
HETATM   21  C6  UNL     1      26.392   1.498  52.660  1.00  0.00     0.149 C 
BRANCH  21  22
HETATM   22  C5  UNL     1      27.613   2.068  53.265  1.00  0.00    -0.011 C 
BRANCH  22  23
HETATM   23  C4  UNL     1      28.884   2.294  53.721  1.00  0.00    -0.023 C 
BRANCH  23  24
HETATM   24  C3  UNL     1      28.693   1.011  54.269  1.00  0.00     0.020 C 
BRANCH  24  25
HETATM   25  C2  UNL     1      29.781   0.367  53.670  1.00  0.00    -0.006 C 
HETATM   26  C1  UNL     1      29.467  -1.089  53.545  1.00  0.00     0.011 C 
ENDBRANCH  24  25
ENDBRANCH  23  24
ENDBRANCH  22  23
ENDBRANCH  21  22
ENDBRANCH  18  21
ENDBRANCH  16  17
ENDBRANCH   1  16
TORSDOF 7
ENDMDL
MODEL 7
REMARK VINA RESULT:      -7.1      2.886      3.835
REMARK  7 active torsions:
REMARK  status: ('A' for Active; 'I' for Inactive)
REMARK    1  A    between atoms: C2_2  and  C3_3 
REMARK    2  A    between atoms: C3_3  and  C4_4 
REMARK    3  A    between atoms: C4_4  and  C5_5 
REMARK    4  A    between atoms: C5_5  and  C6_6 
REMARK    5  A    between atoms: C6_6  and  N1_7 
REMARK       I    between atoms: N1_7  and  C7_8 
REMARK    6  A    between atoms: C7_8  and  C8_10 
REMARK    7  A    between atoms: C8_10  and  C9_11 
ROOT
HETATM    1  C9  UNL     1      23.316   3.429  51.852  1.00  0.00    -0.052 C 
HETATM    2  C10 UNL     1      22.097   3.002  51.785  1.00  0.00     0.092 C 
HETATM    3  N2  UNL     1      21.421   1.925  52.351  1.00  0.00    -0.365 N 
HETATM    4  C11 UNL     1      22.152   1.044  53.164  1.00  0.00     0.035 C 
HETATM    5  C12 UNL     1      21.645   0.088  53.998  1.00  0.00     0.009 C 
HETATM    6  C13 UNL     1      22.075  -0.999  54.986  1.00  0.00     0.030 A 
HETATM    7  C14 UNL     1      23.173  -1.505  55.400  1.00  0.00     0.064 A 
HETATM    8  C15 UNL     1      24.559  -1.095  54.885  1.00  0.00     0.082 A 
HETATM    9  O2  UNL     1      23.365  -0.934  54.699  1.00  0.00     0.000 OA
HETATM   10  O3  UNL     1      25.790  -0.803  54.513  1.00  0.00    -0.349 OA
HETATM   11  C16 UNL     1      25.977   0.003  53.274  1.00  0.00     0.203 C 
HETATM   12  C17 UNL     1      24.658   0.742  53.232  1.00  0.00     0.009 C 
HETATM   13  C18 UNL     1      23.583   1.444  53.198  1.00  0.00    -0.029 C 
HETATM   14  C19 UNL     1      24.156   2.763  52.962  1.00  0.00     0.076 C 
HETATM   15  H14 UNL     1      20.418   1.685  52.234  1.00  0.00     0.165 HD
ENDROOT
BRANCH   1  16
HETATM   16  C8  UNL     1      23.993   4.540  51.236  1.00  0.00     0.138 C 
BRANCH  16  17
HETATM   17  C7  UNL     1      25.054   4.154  50.234  1.00  0.00     0.221 C 
HETATM   18  N1  UNL     1      26.217   5.039  50.094  1.00  0.00    -0.357 N 
HETATM   19  H10 UNL     1      26.144   5.869  50.754  1.00  0.00     0.162 HD
HETATM   20  O1  UNL     1      25.212   3.179  49.408  1.00  0.00    -0.273 OA
BRANCH  18  21
HETATM   21  C6  UNL     1      27.087   4.451  49.063  1.00  0.00     0.149 C 
BRANCH  21  22
HETATM   22  C5  UNL     1      27.923   5.472  48.400  1.00  0.00    -0.011 C 
BRANCH  22  23
HETATM   23  C4  UNL     1      28.693   6.564  48.103  1.00  0.00    -0.023 C 
BRANCH  23  24
HETATM   24  C3  UNL     1      29.707   5.586  48.091  1.00  0.00     0.020 C 
BRANCH  24  25
HETATM   25  C2  UNL     1      30.767   6.394  47.664  1.00  0.00    -0.006 C 
HETATM   26  C1  UNL     1      31.202   7.257  48.804  1.00  0.00     0.011 C 
ENDBRANCH  24  25
ENDBRANCH  23  24
ENDBRANCH  22  23
ENDBRANCH  21  22
ENDBRANCH  18  21
ENDBRANCH  16  17
ENDBRANCH   1  16
TORSDOF 7
ENDMDL
MODEL 8
REMARK VINA RESULT:      -7.1      3.294      5.190
REMARK  7 active torsions:
REMARK  status: ('A' for Active; 'I' for Inactive)
REMARK    1  A    between atoms: C2_2  and  C3_3 
REMARK    2  A    between atoms: C3_3  and  C4_4 
REMARK    3  A    between atoms: C4_4  and  C5_5 
REMARK    4  A    between atoms: C5_5  and  C6_6 
REMARK    5  A    between atoms: C6_6  and  N1_7 
REMARK       I    between atoms: N1_7  and  C7_8 
REMARK    6  A    between atoms: C7_8  and  C8_10 
REMARK    7  A    between atoms: C8_10  and  C9_11 
ROOT
HETATM    1  C9  UNL     1      25.871   1.156  52.616  1.00  0.00    -0.052 C 
HETATM    2  C10 UNL     1      25.895   0.292  53.579  1.00  0.00     0.092 C 
HETATM    3  N2  UNL     1      24.915  -0.445  54.236  1.00  0.00    -0.365 N 
HETATM    4  C11 UNL     1      23.578  -0.253  53.851  1.00  0.00     0.035 C 
HETATM    5  C12 UNL     1      22.509  -1.036  54.184  1.00  0.00     0.009 C 
HETATM    6  C13 UNL     1      20.998  -1.159  53.980  1.00  0.00     0.030 A 
HETATM    7  C14 UNL     1      20.072  -0.484  53.414  1.00  0.00     0.064 A 
HETATM    8  C15 UNL     1      20.293   0.865  52.717  1.00  0.00     0.082 A 
HETATM    9  O2  UNL     1      20.847   0.019  53.398  1.00  0.00     0.000 OA
HETATM   10  O3  UNL     1      20.386   2.020  52.089  1.00  0.00    -0.349 OA
HETATM   11  C16 UNL     1      21.633   2.816  52.262  1.00  0.00     0.203 C 
HETATM   12  C17 UNL     1      22.613   1.712  52.593  1.00  0.00     0.009 C 
HETATM   13  C18 UNL     1      23.491   0.800  52.806  1.00  0.00    -0.029 C 
HETATM   14  C19 UNL     1      24.523   1.227  51.868  1.00  0.00     0.076 C 
HETATM   15  H14 UNL     1      25.057  -1.132  55.002  1.00  0.00     0.165 HD
ENDROOT
BRANCH   1  16
HETATM   16  C8  UNL     1      26.905   1.920  51.969  1.00  0.00     0.138 C 
BRANCH  16  17
HETATM   17  C7  UNL     1      26.434   2.756  50.803  1.00  0.00     0.221 C 
HETATM   18  N1  UNL     1      25.509   3.860  51.083  1.00  0.00    -0.357 N 
HETATM   19  H10 UNL     1      25.291   3.920  52.121  1.00  0.00     0.162 HD
HETATM   20  O1  UNL     1      26.648   2.746  49.534  1.00  0.00    -0.273 OA
BRANCH  18  21
HETATM   21  C6  UNL     1      25.201   4.503  49.795  1.00  0.00     0.149 C 
BRANCH  21  22
HETATM   22  C5  UNL     1      23.766   4.406  49.460  1.00  0.00    -0.011 C 
BRANCH  22  23
HETATM   23  C4  UNL     1      22.547   4.058  48.943  1.00  0.00    -0.023 C 
BRANCH  23  24
HETATM   24  C3  UNL     1      23.187   2.809  48.824  1.00  0.00     0.020 C 
BRANCH  24  25
HETATM   25  C2  UNL     1      22.229   2.161  48.036  1.00  0.00    -0.006 C 
HETATM   26  C1  UNL     1      21.549   1.120  48.865  1.00  0.00     0.011 C 
ENDBRANCH  24  25
ENDBRANCH  23  24
ENDBRANCH  22  23
ENDBRANCH  21  22
ENDBRANCH  18  21
ENDBRANCH  16  17
ENDBRANCH   1  16
TORSDOF 7
ENDMDL
MODEL 9
REMARK VINA RESULT:      -6.9      2.227      2.731
REMARK  7 active torsions:
REMARK  status: ('A' for Active; 'I' for Inactive)
REMARK    1  A    between atoms: C2_2  and  C3_3 
REMARK    2  A    between atoms: C3_3  and  C4_4 
REMARK    3  A    between atoms: C4_4  and  C5_5 
REMARK    4  A    between atoms: C5_5  and  C6_6 
REMARK    5  A    between atoms: C6_6  and  N1_7 
REMARK       I    between atoms: N1_7  and  C7_8 
REMARK    6  A    between atoms: C7_8  and  C8_10 
REMARK    7  A    between atoms: C8_10  and  C9_11 
ROOT
HETATM    1  C9  UNL     1      22.488   1.101  52.233  1.00  0.00    -0.052 C 
HETATM    2  C10 UNL     1      22.526  -0.008  52.900  1.00  0.00     0.092 C 
HETATM    3  N2  UNL     1      23.515  -0.660  53.629  1.00  0.00    -0.365 N 
HETATM    4  C11 UNL     1      24.789  -0.070  53.683  1.00  0.00     0.035 C 
HETATM    5  C12 UNL     1      25.811  -0.404  54.525  1.00  0.00     0.009 C 
HETATM    6  C13 UNL     1      27.252  -0.029  54.877  1.00  0.00     0.030 A 
HETATM    7  C14 UNL     1      28.144   0.775  54.438  1.00  0.00     0.064 A 
HETATM    8  C15 UNL     1      27.955   1.686  53.218  1.00  0.00     0.082 A 
HETATM    9  O2  UNL     1      27.430   0.786  53.850  1.00  0.00     0.000 OA
HETATM   10  O3  UNL     1      27.884   2.510  52.191  1.00  0.00    -0.349 OA
HETATM   11  C16 UNL     1      26.766   2.331  51.223  1.00  0.00     0.203 C 
HETATM   12  C17 UNL     1      25.743   1.664  52.114  1.00  0.00     0.009 C 
HETATM   13  C18 UNL     1      24.819   1.163  52.853  1.00  0.00    -0.029 C 
HETATM   14  C19 UNL     1      23.704   2.020  52.471  1.00  0.00     0.076 C 
HETATM   15  H14 UNL     1      23.424  -1.557  54.144  1.00  0.00     0.165 HD
ENDROOT
BRANCH   1  16
HETATM   16  C8  UNL     1      21.449   1.741  51.469  1.00  0.00     0.138 C 
BRANCH  16  17
HETATM   17  C7  UNL     1      21.898   2.296  50.139  1.00  0.00     0.221 C 
HETATM   18  N1  UNL     1      21.822   3.749  49.944  1.00  0.00    -0.357 N 
HETATM   19  H10 UNL     1      21.445   4.230  50.813  1.00  0.00     0.162 HD
HETATM   20  O1  UNL     1      22.359   1.786  49.050  1.00  0.00    -0.273 OA
BRANCH  18  21
HETATM   21  C6  UNL     1      22.303   4.027  48.581  1.00  0.00     0.149 C 
BRANCH  21  22
HETATM   22  C5  UNL     1      23.466   4.939  48.583  1.00  0.00    -0.011 C 
BRANCH  22  23
HETATM   23  C4  UNL     1      24.302   6.019  48.494  1.00  0.00    -0.023 C 
BRANCH  23  24
HETATM   24  C3  UNL     1      25.141   5.168  49.238  1.00  0.00     0.020 C 
BRANCH  24  25
HETATM   25  C2  UNL     1      26.352   5.837  49.027  1.00  0.00    -0.006 C 
HETATM   26  C1  UNL     1      27.412   4.828  48.722  1.00  0.00     0.011 C 
ENDBRANCH  24  25
ENDBRANCH  23  24
ENDBRANCH  22  23
ENDBRANCH  21  22
ENDBRANCH  18  21
ENDBRANCH  16  17
ENDBRANCH   1  16
TORSDOF 7
ENDMDL
