MODEL 1
REMARK VINA RESULT:     -10.3      0.000      0.000
REMARK  2 active torsions:
REMARK  status: ('A' for Active; 'I' for Inactive)
REMARK    1  A    between atoms: C5_7  and  C6_8 
REMARK    2  A    between atoms: C6_8  and  C7_10 
ROOT
HETATM    1  C7  UNL     1      24.595   0.740  52.893  1.00  0.00     0.048 C 
HETATM    2  C8  UNL     1      24.615   1.632  51.855  1.00  0.00     0.086 C 
HETATM    3  C9  UNL     1      23.658   1.960  50.776  1.00  0.00    -0.022 C 
HETATM    4  C10 UNL     1      22.511   1.886  49.984  1.00  0.00    -0.001 C 
HETATM    5  C11 UNL     1      21.353   1.036  49.959  1.00  0.00     0.300 C 
HETATM    6  N3  UNL     1      20.041   1.279  50.463  1.00  0.00     0.115 NA
HETATM    7  C12 UNL     1      19.842   1.295  51.887  1.00  0.00     0.365 C 
HETATM    8  C13 UNL     1      19.421   0.019  52.555  1.00  0.00     0.034 C 
HETATM    9  C14 UNL     1      19.846  -0.873  53.519  1.00  0.00     0.032 C 
HETATM   10  C15 UNL     1      21.296  -0.919  53.945  1.00  0.00     0.068 A 
HETATM   11  N4  UNL     1      21.586  -1.620  55.098  1.00  0.00    -0.260 NA
HETATM   12  C16 UNL     1      22.923  -1.523  55.387  1.00  0.00     0.118 A 
HETATM   13  C17 UNL     1      23.985  -0.892  54.785  1.00  0.00     0.028 A 
HETATM   14  C18 UNL     1      23.714  -0.207  53.670  1.00  0.00    -0.030 A 
HETATM   15  C19 UNL     1      22.378  -0.279  53.329  1.00  0.00     0.017 A 
HETATM   16  C20 UNL     1      21.966   0.301  52.054  1.00  0.00     0.127 C 
HETATM   17  N5  UNL     1      21.244   1.449  52.189  1.00  0.00    -0.262 NA
HETATM   18  H11 UNL     1      19.355   0.688  49.995  1.00  0.00     0.319 HD
ENDROOT
BRANCH   1  19
HETATM   19  C6  UNL     1      25.888   1.010  53.474  1.00  0.00     0.171 C 
HETATM   20  O1  UNL     1      26.034   1.984  54.211  1.00  0.00    -0.291 OA
BRANCH  19  21
HETATM   21  C5  UNL     1      27.211   0.500  53.504  1.00  0.00     0.038 A 
HETATM   22  C2  UNL     1      27.614  -0.732  53.067  1.00  0.00     0.067 A 
HETATM   23  C1  UNL     1      26.698  -1.707  52.479  1.00  0.00     0.073 C 
HETATM   24  N1  UNL     1      28.926  -1.148  53.151  1.00  0.00    -0.155 NA
HETATM   25  N2  UNL     1      29.866  -0.404  53.646  1.00  0.00    -0.162 NA
HETATM   26  C3  UNL     1      29.575   0.806  54.096  1.00  0.00     0.142 A 
HETATM   27  C4  UNL     1      28.273   1.221  54.013  1.00  0.00     0.038 A 
ENDBRANCH  19  21
ENDBRANCH   1  19
TORSDOF 2
ENDMDL
MODEL 2
REMARK VINA RESULT:      -9.8      1.414      3.351
REMARK  2 active torsions:
REMARK  status: ('A' for Active; 'I' for Inactive)
REMARK    1  A    between atoms: C5_7  and  C6_8 
REMARK    2  A    between atoms: C6_8  and  C7_10 
ROOT
HETATM    1  C7  UNL     1      24.213   0.159  53.512  1.00  0.00     0.048 C 
HETATM    2  C8  UNL     1      23.261  -0.683  54.021  1.00  0.00     0.086 C 
HETATM    3  C9  UNL     1      21.794  -0.774  53.861  1.00  0.00    -0.022 C 
HETATM    4  C10 UNL     1      20.505  -0.442  53.439  1.00  0.00    -0.001 C 
HETATM    5  C11 UNL     1      19.941   0.625  52.661  1.00  0.00     0.300 C 
HETATM    6  N3  UNL     1      19.548   0.637  51.290  1.00  0.00     0.115 NA
HETATM    7  C12 UNL     1      20.573   0.613  50.280  1.00  0.00     0.365 C 
HETATM    8  C13 UNL     1      21.053   1.925  49.731  1.00  0.00     0.034 C 
HETATM    9  C14 UNL     1      22.204   2.679  49.619  1.00  0.00     0.032 C 
HETATM   10  C15 UNL     1      23.392   2.416  50.517  1.00  0.00     0.068 A 
HETATM   11  N4  UNL     1      24.588   3.004  50.158  1.00  0.00    -0.260 NA
HETATM   12  C16 UNL     1      25.579   2.629  51.027  1.00  0.00     0.118 A 
HETATM   13  C17 UNL     1      25.618   1.817  52.135  1.00  0.00     0.028 A 
HETATM   14  C18 UNL     1      24.466   1.239  52.488  1.00  0.00    -0.030 A 
HETATM   15  C19 UNL     1      23.430   1.591  51.647  1.00  0.00     0.017 A 
HETATM   16  C20 UNL     1      22.084   1.150  52.000  1.00  0.00     0.127 C 
HETATM   17  N5  UNL     1      21.604   0.168  51.185  1.00  0.00    -0.262 NA
HETATM   18  H11 UNL     1      18.864   1.370  51.111  1.00  0.00     0.319 HD
ENDROOT
BRANCH   1  19
HETATM   19  C6  UNL     1      25.388  -0.387  54.148  1.00  0.00     0.171 C 
HETATM   20  O1  UNL     1      25.272  -1.052  55.176  1.00  0.00    -0.291 OA
BRANCH  19  21
HETATM   21  C5  UNL     1      26.798  -0.438  54.001  1.00  0.00     0.038 A 
HETATM   22  C2  UNL     1      27.493  -1.246  53.142  1.00  0.00     0.067 A 
HETATM   23  C1  UNL     1      26.844  -2.181  52.227  1.00  0.00     0.073 C 
HETATM   24  N1  UNL     1      28.870  -1.236  53.079  1.00  0.00    -0.155 NA
HETATM   25  N2  UNL     1      29.601  -0.464  53.824  1.00  0.00    -0.162 NA
HETATM   26  C3  UNL     1      29.020   0.354  54.686  1.00  0.00     0.142 A 
HETATM   27  C4  UNL     1      27.652   0.346  54.750  1.00  0.00     0.038 A 
ENDBRANCH  19  21
ENDBRANCH   1  19
TORSDOF 2
ENDMDL
MODEL 3
REMARK VINA RESULT:      -9.5      1.892      3.485
REMARK  2 active torsions:
REMARK  status: ('A' for Active; 'I' for Inactive)
REMARK    1  A    between atoms: C5_7  and  C6_8 
REMARK    2  A    between atoms: C6_8  and  C7_10 
ROOT
HETATM    1  C7  UNL     1      24.133   0.992  52.894  1.00  0.00     0.048 C 
HETATM    2  C8  UNL     1      23.848  -0.325  53.137  1.00  0.00     0.086 C 
HETATM    3  C9  UNL     1      22.595  -1.060  53.416  1.00  0.00    -0.022 C 
HETATM    4  C10 UNL     1      21.238  -1.277  53.661  1.00  0.00    -0.001 C 
HETATM    5  C11 UNL     1      20.087  -0.429  53.795  1.00  0.00     0.300 C 
HETATM    6  N3  UNL     1      19.066  -0.130  52.845  1.00  0.00     0.115 NA
HETATM    7  C12 UNL     1      19.394   0.707  51.722  1.00  0.00     0.365 C 
HETATM    8  C13 UNL     1      19.145   2.182  51.846  1.00  0.00     0.034 C 
HETATM    9  C14 UNL     1      19.817   3.386  51.805  1.00  0.00     0.032 C 
HETATM   10  C15 UNL     1      21.316   3.443  52.003  1.00  0.00     0.068 A 
HETATM   11  N4  UNL     1      21.945   4.624  51.666  1.00  0.00    -0.260 NA
HETATM   12  C16 UNL     1      23.300   4.504  51.841  1.00  0.00     0.118 A 
HETATM   13  C17 UNL     1      24.120   3.486  52.265  1.00  0.00     0.028 A 
HETATM   14  C18 UNL     1      23.520   2.337  52.589  1.00  0.00    -0.030 A 
HETATM   15  C19 UNL     1      22.150   2.406  52.437  1.00  0.00     0.017 A 
HETATM   16  C20 UNL     1      21.353   1.271  52.894  1.00  0.00     0.127 C 
HETATM   17  N5  UNL     1      20.818   0.539  51.877  1.00  0.00    -0.262 NA
HETATM   18  H11 UNL     1      18.215   0.183  53.309  1.00  0.00     0.319 HD
ENDROOT
BRANCH   1  19
HETATM   19  C6  UNL     1      25.565   0.908  52.738  1.00  0.00     0.171 C 
HETATM   20  O1  UNL     1      26.040   0.435  51.706  1.00  0.00    -0.291 OA
BRANCH  19  21
HETATM   21  C5  UNL     1      26.768   1.207  53.427  1.00  0.00     0.038 A 
HETATM   22  C2  UNL     1      27.204   0.623  54.585  1.00  0.00     0.067 A 
HETATM   23  C1  UNL     1      26.463  -0.430  55.274  1.00  0.00     0.073 C 
HETATM   24  N1  UNL     1      28.386   0.991  55.192  1.00  0.00    -0.155 NA
HETATM   25  N2  UNL     1      29.166   1.910  54.710  1.00  0.00    -0.162 NA
HETATM   26  C3  UNL     1      28.830   2.533  53.593  1.00  0.00     0.142 A 
HETATM   27  C4  UNL     1      27.656   2.169  52.988  1.00  0.00     0.038 A 
ENDBRANCH  19  21
ENDBRANCH   1  19
TORSDOF 2
ENDMDL
MODEL 4
REMARK VINA RESULT:      -9.4      1.392      2.268
REMARK  2 active torsions:
REMARK  status: ('A' for Active; 'I' for Inactive)
REMARK    1  A    between atoms: C5_7  and  C6_8 
REMARK    2  A    between atoms: C6_8  and  C7_10 
ROOT
HETATM    1  C7  UNL     1      25.206   1.305  52.326  1.00  0.00     0.048 C 
HETATM    2  C8  UNL     1      25.723   2.330  51.581  1.00  0.00     0.086 C 
HETATM    3  C9  UNL     1      25.223   3.097  50.420  1.00  0.00    -0.022 C 
HETATM    4  C10 UNL     1      24.376   3.483  49.379  1.00  0.00    -0.001 C 
HETATM    5  C11 UNL     1      23.127   3.000  48.862  1.00  0.00     0.300 C 
HETATM    6  N3  UNL     1      21.806   3.495  49.074  1.00  0.00     0.115 NA
HETATM    7  C12 UNL     1      21.199   3.307  50.365  1.00  0.00     0.365 C 
HETATM    8  C13 UNL     1      20.339   2.094  50.569  1.00  0.00     0.034 C 
HETATM    9  C14 UNL     1      20.259   0.961  51.353  1.00  0.00     0.032 C 
HETATM   10  C15 UNL     1      21.472   0.445  52.094  1.00  0.00     0.068 A 
HETATM   11  N4  UNL     1      21.249  -0.506  53.070  1.00  0.00    -0.260 NA
HETATM   12  C16 UNL     1      22.428  -0.831  53.690  1.00  0.00     0.118 A 
HETATM   13  C17 UNL     1      23.730  -0.415  53.542  1.00  0.00     0.028 A 
HETATM   14  C18 UNL     1      23.954   0.508  52.603  1.00  0.00    -0.030 A 
HETATM   15  C19 UNL     1      22.798   0.867  51.941  1.00  0.00     0.017 A 
HETATM   16  C20 UNL     1      22.917   1.758  50.790  1.00  0.00     0.127 C 
HETATM   17  N5  UNL     1      22.447   3.015  51.028  1.00  0.00    -0.262 NA
HETATM   18  H11 UNL     1      21.182   3.209  48.322  1.00  0.00     0.319 HD
ENDROOT
BRANCH   1  19
HETATM   19  C6  UNL     1      26.294   1.102  53.253  1.00  0.00     0.171 C 
HETATM   20  O1  UNL     1      26.242   1.607  54.373  1.00  0.00    -0.291 OA
BRANCH  19  21
HETATM   21  C5  UNL     1      27.553   0.457  53.351  1.00  0.00     0.038 A 
HETATM   22  C2  UNL     1      28.763   1.067  53.539  1.00  0.00     0.067 A 
HETATM   23  C1  UNL     1      28.912   2.513  53.681  1.00  0.00     0.073 C 
HETATM   24  N1  UNL     1      29.941   0.354  53.607  1.00  0.00    -0.155 NA
HETATM   25  N2  UNL     1      29.986  -0.939  53.501  1.00  0.00    -0.162 NA
HETATM   26  C3  UNL     1      28.866  -1.619  53.317  1.00  0.00     0.142 A 
HETATM   27  C4  UNL     1      27.695  -0.913  53.249  1.00  0.00     0.038 A 
ENDBRANCH  19  21
ENDBRANCH   1  19
TORSDOF 2
ENDMDL
MODEL 5
REMARK VINA RESULT:      -9.0      3.730      5.769
REMARK  2 active torsions:
REMARK  status: ('A' for Active; 'I' for Inactive)
REMARK    1  A    between atoms: C5_7  and  C6_8 
REMARK    2  A    between atoms: C6_8  and  C7_10 
ROOT
HETATM    1  C7  UNL     1      25.233   2.854  51.227  1.00  0.00     0.048 C 
HETATM    2  C8  UNL     1      26.524   2.468  51.464  1.00  0.00     0.086 C 
HETATM    3  C9  UNL     1      27.162   1.639  52.510  1.00  0.00    -0.022 C 
HETATM    4  C10 UNL     1      27.285   0.864  53.665  1.00  0.00    -0.001 C 
HETATM    5  C11 UNL     1      26.384   0.446  54.701  1.00  0.00     0.300 C 
HETATM    6  N3  UNL     1      25.720  -0.804  54.875  1.00  0.00     0.115 NA
HETATM    7  C12 UNL     1      24.646  -1.144  53.980  1.00  0.00     0.365 C 
HETATM    8  C13 UNL     1      23.245  -0.805  54.399  1.00  0.00     0.034 C 
HETATM    9  C14 UNL     1      22.161  -0.054  53.992  1.00  0.00     0.032 C 
HETATM   10  C15 UNL     1      22.330   1.079  53.005  1.00  0.00     0.068 A 
HETATM   11  N4  UNL     1      21.180   1.586  52.434  1.00  0.00    -0.260 NA
HETATM   12  C16 UNL     1      21.495   2.560  51.522  1.00  0.00     0.118 A 
HETATM   13  C17 UNL     1      22.677   3.106  51.081  1.00  0.00     0.028 A 
HETATM   14  C18 UNL     1      23.796   2.619  51.625  1.00  0.00    -0.030 A 
HETATM   15  C19 UNL     1      23.534   1.637  52.558  1.00  0.00     0.017 A 
HETATM   16  C20 UNL     1      24.654   1.118  53.338  1.00  0.00     0.127 C 
HETATM   17  N5  UNL     1      25.009  -0.153  52.997  1.00  0.00    -0.262 NA
HETATM   18  H11 UNL     1      25.455  -0.946  55.849  1.00  0.00     0.319 HD
ENDROOT
BRANCH   1  19
HETATM   19  C6  UNL     1      25.430   3.656  50.043  1.00  0.00     0.171 C 
HETATM   20  O1  UNL     1      24.971   3.277  48.967  1.00  0.00    -0.291 OA
BRANCH  19  21
HETATM   21  C5  UNL     1      26.037   4.866  49.620  1.00  0.00     0.038 A 
HETATM   22  C2  UNL     1      25.621   6.132  49.931  1.00  0.00     0.067 A 
HETATM   23  C1  UNL     1      24.464   6.404  50.780  1.00  0.00     0.073 C 
HETATM   24  N1  UNL     1      26.270   7.254  49.459  1.00  0.00    -0.155 NA
HETATM   25  N2  UNL     1      27.316   7.189  48.693  1.00  0.00    -0.162 NA
HETATM   26  C3  UNL     1      27.794   6.008  48.338  1.00  0.00     0.142 A 
HETATM   27  C4  UNL     1      27.151   4.892  48.805  1.00  0.00     0.038 A 
ENDBRANCH  19  21
ENDBRANCH   1  19
TORSDOF 2
ENDMDL
MODEL 6
REMARK VINA RESULT:      -8.8      2.979      5.038
REMARK  2 active torsions:
REMARK  status: ('A' for Active; 'I' for Inactive)
REMARK    1  A    between atoms: C5_7  and  C6_8 
REMARK    2  A    between atoms: C6_8  and  C7_10 
ROOT
HETATM    1  C7  UNL     1      22.983   2.100  50.778  1.00  0.00     0.048 C 
HETATM    2  C8  UNL     1      21.664   2.370  50.531  1.00  0.00     0.086 C 
HETATM    3  C9  UNL     1      20.398   1.747  50.974  1.00  0.00    -0.022 C 
HETATM    4  C10 UNL     1      19.540   0.845  51.606  1.00  0.00    -0.001 C 
HETATM    5  C11 UNL     1      19.723  -0.345  52.388  1.00  0.00     0.300 C 
HETATM    6  N3  UNL     1      19.675  -0.515  53.803  1.00  0.00     0.115 NA
HETATM    7  C12 UNL     1      20.748   0.020  54.598  1.00  0.00     0.365 C 
HETATM    8  C13 UNL     1      21.895  -0.888  54.937  1.00  0.00     0.034 C 
HETATM    9  C14 UNL     1      23.261  -0.993  54.766  1.00  0.00     0.032 C 
HETATM   10  C15 UNL     1      23.968  -0.210  53.683  1.00  0.00     0.068 A 
HETATM   11  N4  UNL     1      25.344  -0.143  53.759  1.00  0.00    -0.260 NA
HETATM   12  C16 UNL     1      25.836   0.644  52.750  1.00  0.00     0.118 A 
HETATM   13  C17 UNL     1      25.256   1.352  51.724  1.00  0.00     0.028 A 
HETATM   14  C18 UNL     1      23.923   1.297  51.645  1.00  0.00    -0.030 A 
HETATM   15  C19 UNL     1      23.376   0.508  52.637  1.00  0.00     0.017 A 
HETATM   16  C20 UNL     1      21.942   0.239  52.584  1.00  0.00     0.127 C 
HETATM   17  N5  UNL     1      21.234   0.886  53.552  1.00  0.00    -0.262 NA
HETATM   18  H11 UNL     1      19.474  -1.483  54.049  1.00  0.00     0.319 HD
ENDROOT
BRANCH   1  19
HETATM   19  C6  UNL     1      23.599   3.130  49.977  1.00  0.00     0.171 C 
HETATM   20  O1  UNL     1      23.649   3.004  48.754  1.00  0.00    -0.291 OA
BRANCH  19  21
HETATM   21  C5  UNL     1      24.248   4.385  50.104  1.00  0.00     0.038 A 
HETATM   22  C2  UNL     1      23.925   5.377  50.989  1.00  0.00     0.067 A 
HETATM   23  C1  UNL     1      22.839   5.257  51.959  1.00  0.00     0.073 C 
HETATM   24  N1  UNL     1      24.607   6.575  51.029  1.00  0.00    -0.155 NA
HETATM   25  N2  UNL     1      25.599   6.844  50.236  1.00  0.00    -0.162 NA
HETATM   26  C3  UNL     1      25.986   5.946  49.344  1.00  0.00     0.142 A 
HETATM   27  C4  UNL     1      25.309   4.756  49.303  1.00  0.00     0.038 A 
ENDBRANCH  19  21
ENDBRANCH   1  19
TORSDOF 2
ENDMDL
MODEL 7
REMARK VINA RESULT:      -8.7      2.331      7.297
REMARK  2 active torsions:
REMARK  status: ('A' for Active; 'I' for Inactive)
REMARK    1  A    between atoms: C5_7  and  C6_8 
REMARK    2  A    between atoms: C6_8  and  C7_10 
ROOT
HETATM    1  C7  UNL     1      22.195   0.782  52.595  1.00  0.00     0.048 C 
HETATM    2  C8  UNL     1      22.447   0.004  53.691  1.00  0.00     0.086 C 
HETATM    3  C9  UNL     1      23.682  -0.571  54.269  1.00  0.00    -0.022 C 
HETATM    4  C10 UNL     1      25.034  -0.895  54.395  1.00  0.00    -0.001 C 
HETATM    5  C11 UNL     1      26.206  -0.668  53.597  1.00  0.00     0.300 C 
HETATM    6  N3  UNL     1      27.231   0.311  53.752  1.00  0.00     0.115 NA
HETATM    7  C12 UNL     1      26.922   1.685  53.461  1.00  0.00     0.365 C 
HETATM    8  C13 UNL     1      27.208   2.195  52.078  1.00  0.00     0.034 C 
HETATM    9  C14 UNL     1      26.566   2.746  50.988  1.00  0.00     0.032 C 
HETATM   10  C15 UNL     1      25.070   2.604  50.818  1.00  0.00     0.068 A 
HETATM   11  N4  UNL     1      24.469   3.413  49.876  1.00  0.00    -0.260 NA
HETATM   12  C16 UNL     1      23.112   3.215  49.878  1.00  0.00     0.118 A 
HETATM   13  C17 UNL     1      22.268   2.407  50.602  1.00  0.00     0.028 A 
HETATM   14  C18 UNL     1      22.841   1.622  51.520  1.00  0.00    -0.030 A 
HETATM   15  C19 UNL     1      24.211   1.778  51.554  1.00  0.00     0.017 A 
HETATM   16  C20 UNL     1      24.981   0.878  52.407  1.00  0.00     0.127 C 
HETATM   17  N5  UNL     1      25.494   1.486  53.514  1.00  0.00    -0.262 NA
HETATM   18  H11 UNL     1      28.092   0.016  53.292  1.00  0.00     0.319 HD
ENDROOT
BRANCH   1  19
HETATM   19  C6  UNL     1      20.760   0.900  52.703  1.00  0.00     0.171 C 
HETATM   20  O1  UNL     1      20.265   1.936  53.143  1.00  0.00    -0.291 OA
BRANCH  19  21
HETATM   21  C5  UNL     1      19.573   0.164  52.459  1.00  0.00     0.038 A 
HETATM   22  C2  UNL     1      18.796   0.230  51.334  1.00  0.00     0.067 A 
HETATM   23  C1  UNL     1      19.115   1.088  50.196  1.00  0.00     0.073 C 
HETATM   24  N1  UNL     1      17.646  -0.516  51.192  1.00  0.00    -0.155 NA
HETATM   25  N2  UNL     1      17.220  -1.330  52.109  1.00  0.00    -0.162 NA
HETATM   26  C3  UNL     1      17.903  -1.463  53.235  1.00  0.00     0.142 A 
HETATM   27  C4  UNL     1      19.047  -0.722  53.377  1.00  0.00     0.038 A 
ENDBRANCH  19  21
ENDBRANCH   1  19
TORSDOF 2
ENDMDL
MODEL 8
REMARK VINA RESULT:      -8.7      2.315      4.340
REMARK  2 active torsions:
REMARK  status: ('A' for Active; 'I' for Inactive)
REMARK    1  A    between atoms: C5_7  and  C6_8 
REMARK    2  A    between atoms: C6_8  and  C7_10 
ROOT
HETATM    1  C7  UNL     1      23.923   1.097  52.561  1.00  0.00     0.048 C 
HETATM    2  C8  UNL     1      22.639   0.823  52.947  1.00  0.00     0.086 C 
HETATM    3  C9  UNL     1      21.347   1.516  52.750  1.00  0.00    -0.022 C 
HETATM    4  C10 UNL     1      20.445   2.502  52.345  1.00  0.00    -0.001 C 
HETATM    5  C11 UNL     1      20.564   3.772  51.687  1.00  0.00     0.300 C 
HETATM    6  N3  UNL     1      20.340   4.110  50.320  1.00  0.00     0.115 NA
HETATM    7  C12 UNL     1      21.284   3.654  49.335  1.00  0.00     0.365 C 
HETATM    8  C13 UNL     1      22.407   4.575  48.955  1.00  0.00     0.034 C 
HETATM    9  C14 UNL     1      23.786   4.636  48.955  1.00  0.00     0.032 C 
HETATM   10  C15 UNL     1      24.601   3.717  49.838  1.00  0.00     0.068 A 
HETATM   11  N4  UNL     1      25.953   3.636  49.574  1.00  0.00    -0.260 NA
HETATM   12  C16 UNL     1      26.544   2.726  50.412  1.00  0.00     0.118 A 
HETATM   13  C17 UNL     1      26.078   1.912  51.417  1.00  0.00     0.028 A 
HETATM   14  C18 UNL     1      24.769   1.981  51.677  1.00  0.00    -0.030 A 
HETATM   15  C19 UNL     1      24.125   2.891  50.863  1.00  0.00     0.017 A 
HETATM   16  C20 UNL     1      22.719   3.177  51.135  1.00  0.00     0.127 C 
HETATM   17  N5  UNL     1      21.871   2.662  50.200  1.00  0.00    -0.262 NA
HETATM   18  H11 UNL     1      20.141   5.104  50.216  1.00  0.00     0.319 HD
ENDROOT
BRANCH   1  19
HETATM   19  C6  UNL     1      24.602  -0.031  53.150  1.00  0.00     0.171 C 
HETATM   20  O1  UNL     1      23.964  -0.853  53.806  1.00  0.00    -0.291 OA
BRANCH  19  21
HETATM   21  C5  UNL     1      25.895  -0.604  53.263  1.00  0.00     0.038 A 
HETATM   22  C2  UNL     1      26.907  -0.164  54.072  1.00  0.00     0.067 A 
HETATM   23  C1  UNL     1      26.772   0.985  54.964  1.00  0.00     0.073 C 
HETATM   24  N1  UNL     1      28.141  -0.779  54.103  1.00  0.00    -0.155 NA
HETATM   25  N2  UNL     1      28.428  -1.813  53.373  1.00  0.00    -0.162 NA
HETATM   26  C3  UNL     1      27.513  -2.312  52.558  1.00  0.00     0.142 A 
HETATM   27  C4  UNL     1      26.287  -1.703  52.525  1.00  0.00     0.038 A 
ENDBRANCH  19  21
ENDBRANCH   1  19
TORSDOF 2
ENDMDL
MODEL 9
REMARK VINA RESULT:      -8.5      3.116      5.966
REMARK  2 active torsions:
REMARK  status: ('A' for Active; 'I' for Inactive)
REMARK    1  A    between atoms: C5_7  and  C6_8 
REMARK    2  A    between atoms: C6_8  and  C7_10 
ROOT
HETATM    1  C7  UNL     1      22.799   2.125  51.689  1.00  0.00     0.048 C 
HETATM    2  C8  UNL     1      21.531   2.613  51.520  1.00  0.00     0.086 C 
HETATM    3  C9  UNL     1      20.995   3.924  51.093  1.00  0.00    -0.022 C 
HETATM    4  C10 UNL     1      20.986   5.261  50.693  1.00  0.00    -0.001 C 
HETATM    5  C11 UNL     1      21.995   6.264  50.496  1.00  0.00     0.300 C 
HETATM    6  N3  UNL     1      22.594   6.720  49.285  1.00  0.00     0.115 NA
HETATM    7  C12 UNL     1      23.507   5.847  48.597  1.00  0.00     0.365 C 
HETATM    8  C13 UNL     1      24.972   5.982  48.896  1.00  0.00     0.034 C 
HETATM    9  C14 UNL     1      26.035   5.249  49.385  1.00  0.00     0.032 C 
HETATM   10  C15 UNL     1      25.802   3.999  50.202  1.00  0.00     0.068 A 
HETATM   11  N4  UNL     1      26.890   3.175  50.406  1.00  0.00    -0.260 NA
HETATM   12  C16 UNL     1      26.514   2.059  51.108  1.00  0.00     0.118 A 
HETATM   13  C17 UNL     1      25.320   1.616  51.625  1.00  0.00     0.028 A 
HETATM   14  C18 UNL     1      24.259   2.405  51.430  1.00  0.00    -0.030 A 
HETATM   15  C19 UNL     1      24.586   3.550  50.731  1.00  0.00     0.017 A 
HETATM   16  C20 UNL     1      23.555   4.572  50.573  1.00  0.00     0.127 C 
HETATM   17  N5  UNL     1      23.075   4.664  49.301  1.00  0.00    -0.262 NA
HETATM   18  H11 UNL     1      22.984   7.654  49.399  1.00  0.00     0.319 HD
ENDROOT
BRANCH   1  19
HETATM   19  C6  UNL     1      22.489   0.789  52.138  1.00  0.00     0.171 C 
HETATM   20  O1  UNL     1      22.003  -0.022  51.351  1.00  0.00    -0.291 OA
BRANCH  19  21
HETATM   21  C5  UNL     1      22.546  -0.025  53.298  1.00  0.00     0.038 A 
HETATM   22  C2  UNL     1      21.477  -0.492  54.013  1.00  0.00     0.067 A 
HETATM   23  C1  UNL     1      20.091  -0.211  53.647  1.00  0.00     0.073 C 
HETATM   24  N1  UNL     1      21.632  -1.269  55.142  1.00  0.00    -0.155 NA
HETATM   25  N2  UNL     1      22.796  -1.611  55.602  1.00  0.00    -0.162 NA
HETATM   26  C3  UNL     1      23.891  -1.208  54.979  1.00  0.00     0.142 A 
HETATM   27  C4  UNL     1      23.739  -0.436  53.858  1.00  0.00     0.038 A 
ENDBRANCH  19  21
ENDBRANCH   1  19
TORSDOF 2
ENDMDL
