MODEL 1
REMARK VINA RESULT:      -7.4      0.000      0.000
REMARK  6 active torsions:
REMARK  status: ('A' for Active; 'I' for Inactive)
REMARK       I    between atoms: C2_2  and  N1_4 
REMARK    1  A    between atoms: N1_4  and  C3_5 
REMARK    2  A    between atoms: C8_10  and  C9_11 
REMARK    3  A    between atoms: C11_14  and  C12_15 
REMARK    4  A    between atoms: N3_16  and  C13_17 
REMARK    5  A    between atoms: C14_18  and  C15_19 
REMARK    6  A    between atoms: C15_19  and  N4_20 
ROOT
HETATM    1  C9  UNL     1      22.832   1.812  51.971  1.00  0.00     0.156 A 
HETATM    2  N2  UNL     1      23.156   1.652  50.738  1.00  0.00    -0.264 NA
HETATM    3  C10 UNL     1      23.581   2.902  50.183  1.00  0.00     0.212 A 
HETATM    4  C11 UNL     1      23.450   3.841  51.318  1.00  0.00     0.074 A 
HETATM    5  N5  UNL     1      23.012   3.160  52.337  1.00  0.00    -0.230 NA
ENDROOT
BRANCH   1   6
HETATM    6  C8  UNL     1      22.349   0.715  52.836  1.00  0.00     0.019 A 
HETATM    7  C6  UNL     1      23.260  -0.027  53.557  1.00  0.00    -0.048 A 
HETATM    8  C5  UNL     1      22.695  -1.036  54.338  1.00  0.00     0.010 A 
HETATM    9  C7  UNL     1      24.704   0.210  53.517  1.00  0.00     0.049 C 
HETATM   10  C4  UNL     1      21.343  -1.317  54.424  1.00  0.00     0.030 A 
HETATM   11  C3  UNL     1      20.478  -0.540  53.680  1.00  0.00     0.035 A 
HETATM   12  C16 UNL     1      20.988   0.469  52.892  1.00  0.00     0.045 A 
BRANCH  11  13
HETATM   13  N1  UNL     1      19.105  -0.887  53.820  1.00  0.00    -0.327 N 
HETATM   14  C2  UNL     1      18.219  -0.815  52.697  1.00  0.00     0.218 C 
HETATM   15  C1  UNL     1      16.785  -1.175  52.829  1.00  0.00     0.117 C 
HETATM   16  O1  UNL     1      18.434  -0.474  51.498  1.00  0.00    -0.274 OA
HETATM   17  H4  UNL     1      18.663  -1.204  54.704  1.00  0.00     0.169 HD
ENDBRANCH  11  13
ENDBRANCH   1   6
BRANCH   4  18
HETATM   18  C12 UNL     1      23.736   5.283  51.387  1.00  0.00     0.145 C 
HETATM   19  N3  UNL     1      24.675   5.747  50.666  1.00  0.00    -0.271 NA
BRANCH  19  20
HETATM   20  C13 UNL     1      25.043   7.124  50.647  1.00  0.00     0.114 C 
HETATM   21  C14 UNL     1      26.097   7.667  50.058  1.00  0.00     0.022 C 
BRANCH  21  22
HETATM   22  C15 UNL     1      26.535   9.079  50.000  1.00  0.00     0.295 C 
BRANCH  22  23
HETATM   23  N4  UNL     1      27.679   9.316  50.885  1.00  0.00     0.081 N 
HETATM   24  H17 UNL     1      28.083   8.416  51.204  1.00  0.00     0.313 HD
HETATM   25  H18 UNL     1      28.426   9.795  50.310  1.00  0.00     0.313 HD
ENDBRANCH  22  23
ENDBRANCH  21  22
ENDBRANCH  19  20
ENDBRANCH   4  18
TORSDOF 6
ENDMDL
MODEL 2
REMARK VINA RESULT:      -7.4      3.320      5.115
REMARK  6 active torsions:
REMARK  status: ('A' for Active; 'I' for Inactive)
REMARK       I    between atoms: C2_2  and  N1_4 
REMARK    1  A    between atoms: N1_4  and  C3_5 
REMARK    2  A    between atoms: C8_10  and  C9_11 
REMARK    3  A    between atoms: C11_14  and  C12_15 
REMARK    4  A    between atoms: N3_16  and  C13_17 
REMARK    5  A    between atoms: C14_18  and  C15_19 
REMARK    6  A    between atoms: C15_19  and  N4_20 
ROOT
HETATM    1  C9  UNL     1      24.114   2.363  51.350  1.00  0.00     0.156 A 
HETATM    2  N2  UNL     1      23.305   2.258  50.357  1.00  0.00    -0.264 NA
HETATM    3  C10 UNL     1      23.103   3.545  49.760  1.00  0.00     0.212 A 
HETATM    4  C11 UNL     1      23.945   4.439  50.585  1.00  0.00     0.074 A 
HETATM    5  N5  UNL     1      24.513   3.705  51.496  1.00  0.00    -0.230 NA
ENDROOT
BRANCH   1   6
HETATM    6  C8  UNL     1      24.533   1.216  52.183  1.00  0.00     0.019 A 
HETATM    7  C6  UNL     1      23.623   0.638  53.042  1.00  0.00    -0.048 A 
HETATM    8  C5  UNL     1      24.125  -0.435  53.780  1.00  0.00     0.010 A 
HETATM    9  C7  UNL     1      22.241   1.100  53.183  1.00  0.00     0.049 C 
HETATM   10  C4  UNL     1      25.417  -0.925  53.699  1.00  0.00     0.030 A 
HETATM   11  C3  UNL     1      26.284  -0.306  52.821  1.00  0.00     0.035 A 
HETATM   12  C16 UNL     1      25.835   0.760  52.070  1.00  0.00     0.045 A 
BRANCH  11  13
HETATM   13  N1  UNL     1      27.592  -0.863  52.792  1.00  0.00    -0.327 N 
HETATM   14  C2  UNL     1      28.584  -0.440  53.735  1.00  0.00     0.218 C 
HETATM   15  C1  UNL     1      29.953  -1.014  53.716  1.00  0.00     0.117 C 
HETATM   16  O1  UNL     1      28.521   0.407  54.673  1.00  0.00    -0.274 OA
HETATM   17  H4  UNL     1      27.912  -1.585  52.117  1.00  0.00     0.169 HD
ENDBRANCH  11  13
ENDBRANCH   1   6
BRANCH   4  18
HETATM   18  C12 UNL     1      24.165   5.890  50.477  1.00  0.00     0.145 C 
HETATM   19  N3  UNL     1      25.338   6.304  50.209  1.00  0.00    -0.271 NA
BRANCH  19  20
HETATM   20  C13 UNL     1      25.674   7.683  50.080  1.00  0.00     0.114 C 
HETATM   21  C14 UNL     1      26.873   8.203  49.871  1.00  0.00     0.022 C 
BRANCH  21  22
HETATM   22  C15 UNL     1      27.288   9.616  49.728  1.00  0.00     0.295 C 
BRANCH  22  23
HETATM   23  N4  UNL     1      28.674   9.808  50.162  1.00  0.00     0.081 N 
HETATM   24  H17 UNL     1      29.206  10.342  49.451  1.00  0.00     0.313 HD
HETATM   25  H18 UNL     1      28.651  10.407  51.033  1.00  0.00     0.313 HD
ENDBRANCH  22  23
ENDBRANCH  21  22
ENDBRANCH  19  20
ENDBRANCH   4  18
TORSDOF 6
ENDMDL
MODEL 3
REMARK VINA RESULT:      -7.2      4.488      8.697
REMARK  6 active torsions:
REMARK  status: ('A' for Active; 'I' for Inactive)
REMARK       I    between atoms: C2_2  and  N1_4 
REMARK    1  A    between atoms: N1_4  and  C3_5 
REMARK    2  A    between atoms: C8_10  and  C9_11 
REMARK    3  A    between atoms: C11_14  and  C12_15 
REMARK    4  A    between atoms: N3_16  and  C13_17 
REMARK    5  A    between atoms: C14_18  and  C15_19 
REMARK    6  A    between atoms: C15_19  and  N4_20 
ROOT
HETATM    1  C9  UNL     1      22.970  -0.313  53.532  1.00  0.00     0.156 A 
HETATM    2  N2  UNL     1      22.922  -0.964  54.639  1.00  0.00    -0.264 NA
HETATM    3  C10 UNL     1      21.574  -1.371  54.902  1.00  0.00     0.212 A 
HETATM    4  C11 UNL     1      20.825  -0.841  53.741  1.00  0.00     0.074 A 
HETATM    5  N5  UNL     1      21.681  -0.234  52.972  1.00  0.00    -0.230 NA
ENDROOT
BRANCH   1   6
HETATM    6  C8  UNL     1      24.217   0.248  52.971  1.00  0.00     0.019 A 
HETATM    7  C6  UNL     1      24.185   1.479  52.352  1.00  0.00    -0.048 A 
HETATM    8  C5  UNL     1      25.418   1.912  51.860  1.00  0.00     0.010 A 
HETATM    9  C7  UNL     1      22.968   2.281  52.213  1.00  0.00     0.049 C 
HETATM   10  C4  UNL     1      26.606   1.210  51.954  1.00  0.00     0.030 A 
HETATM   11  C3  UNL     1      26.578  -0.018  52.585  1.00  0.00     0.035 A 
HETATM   12  C16 UNL     1      25.383  -0.489  53.088  1.00  0.00     0.045 A 
BRANCH  11  13
HETATM   13  N1  UNL     1      27.835  -0.680  52.644  1.00  0.00    -0.327 N 
HETATM   14  C2  UNL     1      28.713  -0.477  53.757  1.00  0.00     0.218 C 
HETATM   15  C1  UNL     1      30.028  -1.163  53.831  1.00  0.00     0.117 C 
HETATM   16  O1  UNL     1      28.580   0.238  54.792  1.00  0.00    -0.274 OA
HETATM   17  H4  UNL     1      28.195  -1.330  51.919  1.00  0.00     0.169 HD
ENDBRANCH  11  13
ENDBRANCH   1   6
BRANCH   4  18
HETATM   18  C12 UNL     1      19.391  -0.930  53.424  1.00  0.00     0.145 C 
HETATM   19  N3  UNL     1      18.951  -0.271  52.430  1.00  0.00    -0.271 NA
BRANCH  19  20
HETATM   20  C13 UNL     1      17.584  -0.278  52.025  1.00  0.00     0.114 C 
HETATM   21  C14 UNL     1      16.542  -0.709  52.718  1.00  0.00     0.022 C 
BRANCH  21  22
HETATM   22  C15 UNL     1      15.107  -0.743  52.359  1.00  0.00     0.295 C 
BRANCH  22  23
HETATM   23  N4  UNL     1      14.279  -0.188  53.432  1.00  0.00     0.081 N 
HETATM   24  H17 UNL     1      13.289  -0.471  53.309  1.00  0.00     0.313 HD
HETATM   25  H18 UNL     1      14.606  -0.623  54.339  1.00  0.00     0.313 HD
ENDBRANCH  22  23
ENDBRANCH  21  22
ENDBRANCH  19  20
ENDBRANCH   4  18
TORSDOF 6
ENDMDL
MODEL 4
REMARK VINA RESULT:      -7.1      3.890      5.848
REMARK  6 active torsions:
REMARK  status: ('A' for Active; 'I' for Inactive)
REMARK       I    between atoms: C2_2  and  N1_4 
REMARK    1  A    between atoms: N1_4  and  C3_5 
REMARK    2  A    between atoms: C8_10  and  C9_11 
REMARK    3  A    between atoms: C11_14  and  C12_15 
REMARK    4  A    between atoms: N3_16  and  C13_17 
REMARK    5  A    between atoms: C14_18  and  C15_19 
REMARK    6  A    between atoms: C15_19  and  N4_20 
ROOT
HETATM    1  C9  UNL     1      23.674   2.282  51.571  1.00  0.00     0.156 A 
HETATM    2  N2  UNL     1      23.226   2.127  50.377  1.00  0.00    -0.264 NA
HETATM    3  C10 UNL     1      22.708   3.370  49.889  1.00  0.00     0.212 A 
HETATM    4  C11 UNL     1      22.932   4.299  51.018  1.00  0.00     0.074 A 
HETATM    5  N5  UNL     1      23.497   3.619  51.974  1.00  0.00    -0.230 NA
ENDROOT
BRANCH   1   6
HETATM    6  C8  UNL     1      24.278   1.190  52.363  1.00  0.00     0.019 A 
HETATM    7  C6  UNL     1      23.489   0.474  53.238  1.00  0.00    -0.048 A 
HETATM    8  C5  UNL     1      24.162  -0.532  53.933  1.00  0.00     0.010 A 
HETATM    9  C7  UNL     1      22.062   0.736  53.436  1.00  0.00     0.049 C 
HETATM   10  C4  UNL     1      25.505  -0.835  53.797  1.00  0.00     0.030 A 
HETATM   11  C3  UNL     1      26.245  -0.086  52.905  1.00  0.00     0.035 A 
HETATM   12  C16 UNL     1      25.626   0.921  52.195  1.00  0.00     0.045 A 
BRANCH  11  13
HETATM   13  N1  UNL     1      27.617  -0.455  52.820  1.00  0.00    -0.327 N 
HETATM   14  C2  UNL     1      28.556   0.008  53.797  1.00  0.00     0.218 C 
HETATM   15  C1  UNL     1      29.990  -0.370  53.719  1.00  0.00     0.117 C 
HETATM   16  O1  UNL     1      28.394   0.745  54.812  1.00  0.00    -0.274 OA
HETATM   17  H4  UNL     1      28.021  -1.058  52.078  1.00  0.00     0.169 HD
ENDBRANCH  11  13
ENDBRANCH   1   6
BRANCH   4  18
HETATM   18  C12 UNL     1      22.614   5.731  51.139  1.00  0.00     0.145 C 
HETATM   19  N3  UNL     1      21.635   6.190  50.471  1.00  0.00    -0.271 NA
BRANCH  19  20
HETATM   20  C13 UNL     1      21.232   7.557  50.505  1.00  0.00     0.114 C 
HETATM   21  C14 UNL     1      20.318   8.145  49.750  1.00  0.00     0.022 C 
BRANCH  21  22
HETATM   22  C15 UNL     1      19.855   9.551  49.735  1.00  0.00     0.295 C 
BRANCH  22  23
HETATM   23  N4  UNL     1      18.454   9.652  50.154  1.00  0.00     0.081 N 
HETATM   24  H17 UNL     1      18.394   9.893  51.160  1.00  0.00     0.313 HD
HETATM   25  H18 UNL     1      18.026  10.461  49.624  1.00  0.00     0.313 HD
ENDBRANCH  22  23
ENDBRANCH  21  22
ENDBRANCH  19  20
ENDBRANCH   4  18
TORSDOF 6
ENDMDL
MODEL 5
REMARK VINA RESULT:      -7.0      4.694      6.889
REMARK  6 active torsions:
REMARK  status: ('A' for Active; 'I' for Inactive)
REMARK       I    between atoms: C2_2  and  N1_4 
REMARK    1  A    between atoms: N1_4  and  C3_5 
REMARK    2  A    between atoms: C8_10  and  C9_11 
REMARK    3  A    between atoms: C11_14  and  C12_15 
REMARK    4  A    between atoms: N3_16  and  C13_17 
REMARK    5  A    between atoms: C14_18  and  C15_19 
REMARK    6  A    between atoms: C15_19  and  N4_20 
ROOT
HETATM    1  C9  UNL     1      26.334   4.681  49.438  1.00  0.00     0.156 A 
HETATM    2  N2  UNL     1      25.970   5.908  49.328  1.00  0.00    -0.264 NA
HETATM    3  C10 UNL     1      27.011   6.667  48.702  1.00  0.00     0.212 A 
HETATM    4  C11 UNL     1      28.066   5.661  48.457  1.00  0.00     0.074 A 
HETATM    5  N5  UNL     1      27.626   4.520  48.902  1.00  0.00    -0.230 NA
ENDROOT
BRANCH   1   6
HETATM    6  C8  UNL     1      25.487   3.631  50.043  1.00  0.00     0.019 A 
HETATM    7  C6  UNL     1      24.156   3.553  49.693  1.00  0.00    -0.048 A 
HETATM    8  C5  UNL     1      23.452   2.526  50.323  1.00  0.00     0.010 A 
HETATM    9  C7  UNL     1      23.518   4.464  48.741  1.00  0.00     0.049 C 
HETATM   10  C4  UNL     1      23.988   1.630  51.231  1.00  0.00     0.030 A 
HETATM   11  C3  UNL     1      25.327   1.756  51.543  1.00  0.00     0.035 A 
HETATM   12  C16 UNL     1      26.066   2.756  50.946  1.00  0.00     0.045 A 
BRANCH  11  13
HETATM   13  N1  UNL     1      25.807   0.802  52.482  1.00  0.00    -0.327 N 
HETATM   14  C2  UNL     1      26.240   1.215  53.782  1.00  0.00     0.218 C 
HETATM   15  C1  UNL     1      26.743   0.228  54.771  1.00  0.00     0.117 C 
HETATM   16  O1  UNL     1      26.284   2.364  54.310  1.00  0.00    -0.274 OA
HETATM   17  H4  UNL     1      25.876  -0.219  52.303  1.00  0.00     0.169 HD
ENDBRANCH  11  13
ENDBRANCH   1   6
BRANCH   4  18
HETATM   18  C12 UNL     1      29.392   5.817  47.838  1.00  0.00     0.145 C 
HETATM   19  N3  UNL     1      30.307   4.991  48.153  1.00  0.00    -0.271 NA
BRANCH  19  20
HETATM   20  C13 UNL     1      31.628   5.040  47.620  1.00  0.00     0.114 C 
HETATM   21  C14 UNL     1      32.704   4.423  48.081  1.00  0.00     0.022 C 
BRANCH  21  22
HETATM   22  C15 UNL     1      34.096   4.431  47.578  1.00  0.00     0.295 C 
BRANCH  22  23
HETATM   23  N4  UNL     1      35.033   3.963  48.603  1.00  0.00     0.081 N 
HETATM   24  H17 UNL     1      35.892   4.542  48.600  1.00  0.00     0.313 HD
HETATM   25  H18 UNL     1      34.572   4.114  49.543  1.00  0.00     0.313 HD
ENDBRANCH  22  23
ENDBRANCH  21  22
ENDBRANCH  19  20
ENDBRANCH   4  18
TORSDOF 6
ENDMDL
MODEL 6
REMARK VINA RESULT:      -6.9      3.965      6.258
REMARK  6 active torsions:
REMARK  status: ('A' for Active; 'I' for Inactive)
REMARK       I    between atoms: C2_2  and  N1_4 
REMARK    1  A    between atoms: N1_4  and  C3_5 
REMARK    2  A    between atoms: C8_10  and  C9_11 
REMARK    3  A    between atoms: C11_14  and  C12_15 
REMARK    4  A    between atoms: N3_16  and  C13_17 
REMARK    5  A    between atoms: C14_18  and  C15_19 
REMARK    6  A    between atoms: C15_19  and  N4_20 
ROOT
HETATM    1  C9  UNL     1      23.806   2.845  51.977  1.00  0.00     0.156 A 
HETATM    2  N2  UNL     1      23.771   3.909  52.697  1.00  0.00    -0.264 NA
HETATM    3  C10 UNL     1      23.237   4.994  51.930  1.00  0.00     0.212 A 
HETATM    4  C11 UNL     1      22.960   4.378  50.614  1.00  0.00     0.074 A 
HETATM    5  N5  UNL     1      23.307   3.126  50.691  1.00  0.00    -0.230 NA
ENDROOT
BRANCH   1   6
HETATM    6  C8  UNL     1      24.304   1.544  52.471  1.00  0.00     0.019 A 
HETATM    7  C6  UNL     1      23.415   0.645  53.020  1.00  0.00    -0.048 A 
HETATM    8  C5  UNL     1      23.993  -0.550  53.453  1.00  0.00     0.010 A 
HETATM    9  C7  UNL     1      21.980   0.905  53.147  1.00  0.00     0.049 C 
HETATM   10  C4  UNL     1      25.338  -0.864  53.365  1.00  0.00     0.030 A 
HETATM   11  C3  UNL     1      26.181   0.075  52.805  1.00  0.00     0.035 A 
HETATM   12  C16 UNL     1      25.657   1.271  52.363  1.00  0.00     0.045 A 
BRANCH  11  13
HETATM   13  N1  UNL     1      27.547  -0.318  52.749  1.00  0.00    -0.327 N 
HETATM   14  C2  UNL     1      28.431  -0.033  53.838  1.00  0.00     0.218 C 
HETATM   15  C1  UNL     1      29.859  -0.437  53.792  1.00  0.00     0.117 C 
HETATM   16  O1  UNL     1      28.220   0.551  54.941  1.00  0.00    -0.274 OA
HETATM   17  H4  UNL     1      27.985  -0.817  51.951  1.00  0.00     0.169 HD
ENDBRANCH  11  13
ENDBRANCH   1   6
BRANCH   4  18
HETATM   18  C12 UNL     1      22.400   4.976  49.392  1.00  0.00     0.145 C 
HETATM   19  N3  UNL     1      22.782   4.520  48.267  1.00  0.00    -0.271 NA
BRANCH  19  20
HETATM   20  C13 UNL     1      22.312   5.017  47.017  1.00  0.00     0.114 C 
HETATM   21  C14 UNL     1      21.920   4.312  45.967  1.00  0.00     0.022 C 
BRANCH  21  22
HETATM   22  C15 UNL     1      21.424   4.763  44.648  1.00  0.00     0.295 C 
BRANCH  22  23
HETATM   23  N4  UNL     1      20.559   3.753  44.033  1.00  0.00     0.081 N 
HETATM   24  H17 UNL     1      19.686   3.642  44.580  1.00  0.00     0.313 HD
HETATM   25  H18 UNL     1      20.275   4.120  43.083  1.00  0.00     0.313 HD
ENDBRANCH  22  23
ENDBRANCH  21  22
ENDBRANCH  19  20
ENDBRANCH   4  18
TORSDOF 6
ENDMDL
MODEL 7
REMARK VINA RESULT:      -6.7      3.200      4.466
REMARK  6 active torsions:
REMARK  status: ('A' for Active; 'I' for Inactive)
REMARK       I    between atoms: C2_2  and  N1_4 
REMARK    1  A    between atoms: N1_4  and  C3_5 
REMARK    2  A    between atoms: C8_10  and  C9_11 
REMARK    3  A    between atoms: C11_14  and  C12_15 
REMARK    4  A    between atoms: N3_16  and  C13_17 
REMARK    5  A    between atoms: C14_18  and  C15_19 
REMARK    6  A    between atoms: C15_19  and  N4_20 
ROOT
HETATM    1  C9  UNL     1      23.896   3.550  49.772  1.00  0.00     0.156 A 
HETATM    2  N2  UNL     1      23.593   4.798  49.814  1.00  0.00    -0.264 NA
HETATM    3  C10 UNL     1      24.747   5.588  49.503  1.00  0.00     0.212 A 
HETATM    4  C11 UNL     1      25.799   4.575  49.267  1.00  0.00     0.074 A 
HETATM    5  N5  UNL     1      25.255   3.405  49.434  1.00  0.00    -0.230 NA
ENDROOT
BRANCH   1   6
HETATM    6  C8  UNL     1      22.928   2.467  50.044  1.00  0.00     0.019 A 
HETATM    7  C6  UNL     1      22.260   1.879  48.991  1.00  0.00    -0.048 A 
HETATM    8  C5  UNL     1      21.371   0.869  49.362  1.00  0.00     0.010 A 
HETATM    9  C7  UNL     1      22.453   2.270  47.594  1.00  0.00     0.049 C 
HETATM   10  C4  UNL     1      21.137   0.448  50.659  1.00  0.00     0.030 A 
HETATM   11  C3  UNL     1      21.836   1.073  51.673  1.00  0.00     0.035 A 
HETATM   12  C16 UNL     1      22.726   2.078  51.356  1.00  0.00     0.045 A 
BRANCH  11  13
HETATM   13  N1  UNL     1      21.544   0.587  52.977  1.00  0.00    -0.327 N 
HETATM   14  C2  UNL     1      22.394  -0.381  53.601  1.00  0.00     0.218 C 
HETATM   15  C1  UNL     1      22.100  -0.895  54.962  1.00  0.00     0.117 C 
HETATM   16  O1  UNL     1      23.450  -0.941  53.185  1.00  0.00    -0.274 OA
HETATM   17  H4  UNL     1      20.729   0.884  53.549  1.00  0.00     0.169 HD
ENDBRANCH  11  13
ENDBRANCH   1   6
BRANCH   4  18
HETATM   18  C12 UNL     1      27.214   4.752  48.906  1.00  0.00     0.145 C 
HETATM   19  N3  UNL     1      27.589   5.887  48.471  1.00  0.00    -0.271 NA
BRANCH  19  20
HETATM   20  C13 UNL     1      28.932   6.179  48.091  1.00  0.00     0.114 C 
HETATM   21  C14 UNL     1      29.943   5.330  47.995  1.00  0.00     0.022 C 
BRANCH  21  22
HETATM   22  C15 UNL     1      31.351   5.567  47.608  1.00  0.00     0.295 C 
BRANCH  22  23
HETATM   23  N4  UNL     1      31.643   7.000  47.518  1.00  0.00     0.081 N 
HETATM   24  H17 UNL     1      31.532   7.331  46.542  1.00  0.00     0.313 HD
HETATM   25  H18 UNL     1      30.913   7.506  48.092  1.00  0.00     0.313 HD
ENDBRANCH  22  23
ENDBRANCH  21  22
ENDBRANCH  19  20
ENDBRANCH   4  18
TORSDOF 6
ENDMDL
MODEL 8
REMARK VINA RESULT:      -6.6      4.319     10.016
REMARK  6 active torsions:
REMARK  status: ('A' for Active; 'I' for Inactive)
REMARK       I    between atoms: C2_2  and  N1_4 
REMARK    1  A    between atoms: N1_4  and  C3_5 
REMARK    2  A    between atoms: C8_10  and  C9_11 
REMARK    3  A    between atoms: C11_14  and  C12_15 
REMARK    4  A    between atoms: N3_16  and  C13_17 
REMARK    5  A    between atoms: C14_18  and  C15_19 
REMARK    6  A    between atoms: C15_19  and  N4_20 
ROOT
HETATM    1  C9  UNL     1      25.636   4.436  49.610  1.00  0.00     0.156 A 
HETATM    2  N2  UNL     1      24.589   4.068  48.961  1.00  0.00    -0.264 NA
HETATM    3  C10 UNL     1      23.817   3.166  49.761  1.00  0.00     0.212 A 
HETATM    4  C11 UNL     1      24.600   3.063  51.012  1.00  0.00     0.074 A 
HETATM    5  N5  UNL     1      25.649   3.821  50.876  1.00  0.00    -0.230 NA
ENDROOT
BRANCH   1   6
HETATM    6  C8  UNL     1      26.646   5.368  49.065  1.00  0.00     0.019 A 
HETATM    7  C6  UNL     1      26.352   6.713  48.990  1.00  0.00    -0.048 A 
HETATM    8  C5  UNL     1      27.376   7.500  48.460  1.00  0.00     0.010 A 
HETATM    9  C7  UNL     1      25.076   7.285  49.423  1.00  0.00     0.049 C 
HETATM   10  C4  UNL     1      28.604   7.029  48.031  1.00  0.00     0.030 A 
HETATM   11  C3  UNL     1      28.843   5.673  48.132  1.00  0.00     0.035 A 
HETATM   12  C16 UNL     1      27.861   4.854  48.648  1.00  0.00     0.045 A 
BRANCH  11  13
HETATM   13  N1  UNL     1      30.125   5.264  47.672  1.00  0.00    -0.327 N 
HETATM   14  C2  UNL     1      31.254   5.284  48.553  1.00  0.00     0.218 C 
HETATM   15  C1  UNL     1      32.598   4.859  48.085  1.00  0.00     0.117 C 
HETATM   16  O1  UNL     1      31.346   5.623  49.769  1.00  0.00    -0.274 OA
HETATM   17  H4  UNL     1      30.330   4.936  46.709  1.00  0.00     0.169 HD
ENDBRANCH  11  13
ENDBRANCH   1   6
BRANCH   4  18
HETATM   18  C12 UNL     1      24.331   2.286  52.232  1.00  0.00     0.145 C 
HETATM   19  N3  UNL     1      23.681   1.198  52.123  1.00  0.00    -0.271 NA
BRANCH  19  20
HETATM   20  C13 UNL     1      23.360   0.360  53.231  1.00  0.00     0.114 C 
HETATM   21  C14 UNL     1      22.290  -0.406  53.377  1.00  0.00     0.022 C 
BRANCH  21  22
HETATM   22  C15 UNL     1      21.899  -1.294  54.494  1.00  0.00     0.295 C 
BRANCH  22  23
HETATM   23  N4  UNL     1      20.470  -1.615  54.441  1.00  0.00     0.081 N 
HETATM   24  H17 UNL     1      19.950  -1.071  55.153  1.00  0.00     0.313 HD
HETATM   25  H18 UNL     1      20.112  -1.297  53.498  1.00  0.00     0.313 HD
ENDBRANCH  22  23
ENDBRANCH  21  22
ENDBRANCH  19  20
ENDBRANCH   4  18
TORSDOF 6
ENDMDL
MODEL 9
REMARK VINA RESULT:      -6.6      3.771      8.406
REMARK  6 active torsions:
REMARK  status: ('A' for Active; 'I' for Inactive)
REMARK       I    between atoms: C2_2  and  N1_4 
REMARK    1  A    between atoms: N1_4  and  C3_5 
REMARK    2  A    between atoms: C8_10  and  C9_11 
REMARK    3  A    between atoms: C11_14  and  C12_15 
REMARK    4  A    between atoms: N3_16  and  C13_17 
REMARK    5  A    between atoms: C14_18  and  C15_19 
REMARK    6  A    between atoms: C15_19  and  N4_20 
ROOT
HETATM    1  C9  UNL     1      22.554   2.553  51.925  1.00  0.00     0.156 A 
HETATM    2  N2  UNL     1      21.866   3.610  52.171  1.00  0.00    -0.264 NA
HETATM    3  C10 UNL     1      20.480   3.269  52.289  1.00  0.00     0.212 A 
HETATM    4  C11 UNL     1      20.469   1.806  52.068  1.00  0.00     0.074 A 
HETATM    5  N5  UNL     1      21.699   1.436  51.860  1.00  0.00    -0.230 NA
ENDROOT
BRANCH   1   6
HETATM    6  C8  UNL     1      24.021   2.560  51.745  1.00  0.00     0.019 A 
HETATM    7  C6  UNL     1      24.549   2.897  50.517  1.00  0.00    -0.048 A 
HETATM    8  C5  UNL     1      25.943   2.870  50.460  1.00  0.00     0.010 A 
HETATM    9  C7  UNL     1      23.730   3.255  49.358  1.00  0.00     0.049 C 
HETATM   10  C4  UNL     1      26.780   2.542  51.513  1.00  0.00     0.030 A 
HETATM   11  C3  UNL     1      26.194   2.213  52.719  1.00  0.00     0.035 A 
HETATM   12  C16 UNL     1      24.819   2.225  52.825  1.00  0.00     0.045 A 
BRANCH  11  13
HETATM   13  N1  UNL     1      27.115   1.888  53.753  1.00  0.00    -0.327 N 
HETATM   14  C2  UNL     1      27.596   0.547  53.903  1.00  0.00     0.218 C 
HETATM   15  C1  UNL     1      28.557   0.194  54.978  1.00  0.00     0.117 C 
HETATM   16  O1  UNL     1      27.342  -0.499  53.238  1.00  0.00    -0.274 OA
HETATM   17  H4  UNL     1      27.490   2.565  54.445  1.00  0.00     0.169 HD
ENDBRANCH  11  13
ENDBRANCH   1   6
BRANCH   4  18
HETATM   18  C12 UNL     1      19.341   0.862  52.063  1.00  0.00     0.145 C 
HETATM   19  N3  UNL     1      19.308  -0.044  52.955  1.00  0.00    -0.271 NA
BRANCH  19  20
HETATM   20  C13 UNL     1      18.269  -1.015  53.052  1.00  0.00     0.114 C 
HETATM   21  C14 UNL     1      17.124  -1.036  52.388  1.00  0.00     0.022 C 
BRANCH  21  22
HETATM   22  C15 UNL     1      16.010  -2.008  52.442  1.00  0.00     0.295 C 
BRANCH  22  23
HETATM   23  N4  UNL     1      16.338  -3.143  53.309  1.00  0.00     0.081 N 
HETATM   24  H17 UNL     1      15.724  -3.151  54.144  1.00  0.00     0.313 HD
HETATM   25  H18 UNL     1      16.120  -4.025  52.767  1.00  0.00     0.313 HD
ENDBRANCH  22  23
ENDBRANCH  21  22
ENDBRANCH  19  20
ENDBRANCH   4  18
TORSDOF 6
ENDMDL
