MODEL 1
REMARK VINA RESULT:      -7.4      0.000      0.000
REMARK  4 active torsions:
REMARK  status: ('A' for Active; 'I' for Inactive)
REMARK    1  A    between atoms: C2_2  and  C3_3 
REMARK       I    between atoms: N3_14  and  C11_15 
REMARK    2  A    between atoms: C11_15  and  C12_17 
REMARK    3  A    between atoms: C13_18  and  C14_19 
REMARK    4  A    between atoms: C14_19  and  N4_20 
ROOT
HETATM    1  C3  UNL     1      32.996   4.471  46.744  1.00  0.00     0.068 C 
HETATM    2  C4  UNL     1      32.386   5.757  47.209  1.00  0.00     0.040 C 
HETATM    3  N1  UNL     1      32.211   6.555  48.202  1.00  0.00    -0.253 N 
HETATM    4  C5  UNL     1      32.658   6.436  49.513  1.00  0.00     0.227 A 
HETATM    5  N2  UNL     1      31.993   7.449  49.158  1.00  0.00    -0.269 N 
HETATM    6  C6  UNL     1      31.582   8.585  49.911  1.00  0.00     0.229 C 
HETATM    7  S1  UNL     1      31.080   9.858  48.713  1.00  0.00    -0.110 SA
HETATM    8  C7  UNL     1      29.635   9.353  47.799  1.00  0.00     0.011 C 
HETATM    9  C8  UNL     1      29.777   8.610  46.701  1.00  0.00    -0.005 C 
HETATM   10  C9  UNL     1      28.462   8.261  46.036  1.00  0.00     0.067 C 
HETATM   11  C10 UNL     1      27.501   7.710  47.103  1.00  0.00     0.131 C 
HETATM   12  N3  UNL     1      27.380   8.707  48.150  1.00  0.00    -0.344 N 
HETATM   13  C11 UNL     1      26.349   8.688  49.096  1.00  0.00     0.243 C 
HETATM   14  O1  UNL     1      26.159   9.502  50.043  1.00  0.00    -0.268 OA
HETATM   15  C16 UNL     1      28.304   9.789  48.297  1.00  0.00     0.172 C 
HETATM   16  S2  UNL     1      31.394   8.115  46.124  1.00  0.00    -0.117 SA
HETATM   17  C17 UNL     1      31.690   6.380  46.033  1.00  0.00     0.134 C 
HETATM   18  C18 UNL     1      32.647   5.986  44.955  1.00  0.00    -0.031 A 
HETATM   19  C19 UNL     1      32.868   6.531  43.696  1.00  0.00     0.009 A 
HETATM   20  C20 UNL     1      33.829   6.003  42.831  1.00  0.00     0.001 A 
HETATM   21  C21 UNL     1      34.570   4.915  43.253  1.00  0.00     0.001 A 
HETATM   22  C22 UNL     1      34.348   4.380  44.501  1.00  0.00     0.008 A 
HETATM   23  C23 UNL     1      33.398   4.901  45.355  1.00  0.00    -0.041 A 
ENDROOT
BRANCH  13  24
HETATM   24  C12 UNL     1      25.231   7.774  49.278  1.00  0.00     0.072 C 
HETATM   25  C13 UNL     1      25.222   7.182  50.459  1.00  0.00     0.008 C 
BRANCH  25  26
HETATM   26  C14 UNL     1      24.206   6.208  50.912  1.00  0.00     0.296 C 
BRANCH  26  27
HETATM   27  N4  UNL     1      24.117   6.066  52.337  1.00  0.00     0.082 N 
HETATM   28  C15 UNL     1      23.396   4.860  52.692  1.00  0.00     0.307 C 
HETATM   29  H18 UNL     1      23.623   6.869  52.776  1.00  0.00     0.315 HD
ENDBRANCH  26  27
ENDBRANCH  25  26
ENDBRANCH  13  24
BRANCH   1  30
HETATM   30  C2  UNL     1      31.957   3.358  46.647  1.00  0.00     0.011 C 
HETATM   31  C1  UNL     1      32.620   2.006  46.939  1.00  0.00     0.006 C 
ENDBRANCH   1  30
TORSDOF 4
ENDMDL
MODEL 2
REMARK VINA RESULT:      -7.1      6.625     10.598
REMARK  4 active torsions:
REMARK  status: ('A' for Active; 'I' for Inactive)
REMARK    1  A    between atoms: C2_2  and  C3_3 
REMARK       I    between atoms: N3_14  and  C11_15 
REMARK    2  A    between atoms: C11_15  and  C12_17 
REMARK    3  A    between atoms: C13_18  and  C14_19 
REMARK    4  A    between atoms: C14_19  and  N4_20 
ROOT
HETATM    1  C3  UNL     1      24.046   7.254  48.355  1.00  0.00     0.068 C 
HETATM    2  C4  UNL     1      22.975   6.236  48.110  1.00  0.00     0.040 C 
HETATM    3  N1  UNL     1      21.915   5.946  47.443  1.00  0.00    -0.253 N 
HETATM    4  C5  UNL     1      21.253   6.695  46.478  1.00  0.00     0.227 A 
HETATM    5  N2  UNL     1      20.829   5.549  46.793  1.00  0.00    -0.269 N 
HETATM    6  C6  UNL     1      19.708   4.819  46.305  1.00  0.00     0.229 C 
HETATM    7  S1  UNL     1      19.936   3.091  46.823  1.00  0.00    -0.110 SA
HETATM    8  C7  UNL     1      19.862   2.932  48.597  1.00  0.00     0.011 C 
HETATM    9  C8  UNL     1      20.965   3.122  49.321  1.00  0.00    -0.005 C 
HETATM   10  C9  UNL     1      20.744   2.954  50.810  1.00  0.00     0.067 C 
HETATM   11  C10 UNL     1      19.515   3.781  51.222  1.00  0.00     0.131 C 
HETATM   12  N3  UNL     1      18.393   3.346  50.412  1.00  0.00    -0.344 N 
HETATM   13  C11 UNL     1      17.065   3.640  50.741  1.00  0.00     0.243 C 
HETATM   14  O1  UNL     1      16.025   3.312  50.103  1.00  0.00    -0.268 OA
HETATM   15  C16 UNL     1      18.556   2.582  49.215  1.00  0.00     0.172 C 
HETATM   16  S2  UNL     1      22.521   3.529  48.544  1.00  0.00    -0.117 SA
HETATM   17  C17 UNL     1      23.247   5.066  49.012  1.00  0.00     0.134 C 
HETATM   18  C18 UNL     1      24.740   5.070  48.962  1.00  0.00    -0.031 A 
HETATM   19  C19 UNL     1      25.657   4.059  49.224  1.00  0.00     0.009 A 
HETATM   20  C20 UNL     1      27.033   4.276  49.114  1.00  0.00     0.001 A 
HETATM   21  C21 UNL     1      27.474   5.530  48.734  1.00  0.00     0.001 A 
HETATM   22  C22 UNL     1      26.562   6.526  48.475  1.00  0.00     0.008 A 
HETATM   23  C23 UNL     1      25.203   6.312  48.585  1.00  0.00    -0.041 A 
ENDROOT
BRANCH  13  24
HETATM   24  C12 UNL     1      16.493   4.375  51.860  1.00  0.00     0.072 C 
HETATM   25  C13 UNL     1      15.422   3.800  52.374  1.00  0.00     0.008 C 
BRANCH  25  26
HETATM   26  C14 UNL     1      14.642   4.326  53.515  1.00  0.00     0.296 C 
BRANCH  26  27
HETATM   27  N4  UNL     1      13.550   3.489  53.922  1.00  0.00     0.082 N 
HETATM   28  C15 UNL     1      12.432   4.286  54.385  1.00  0.00     0.307 C 
HETATM   29  H18 UNL     1      13.821   2.848  54.695  1.00  0.00     0.315 HD
ENDBRANCH  26  27
ENDBRANCH  25  26
ENDBRANCH  13  24
BRANCH   1  30
HETATM   30  C2  UNL     1      23.785   8.052  49.628  1.00  0.00     0.011 C 
HETATM   31  C1  UNL     1      22.392   8.690  49.561  1.00  0.00     0.006 C 
ENDBRANCH   1  30
TORSDOF 4
ENDMDL
MODEL 3
REMARK VINA RESULT:      -7.0      8.700     10.818
REMARK  4 active torsions:
REMARK  status: ('A' for Active; 'I' for Inactive)
REMARK    1  A    between atoms: C2_2  and  C3_3 
REMARK       I    between atoms: N3_14  and  C11_15 
REMARK    2  A    between atoms: C11_15  and  C12_17 
REMARK    3  A    between atoms: C13_18  and  C14_19 
REMARK    4  A    between atoms: C14_19  and  N4_20 
ROOT
HETATM    1  C3  UNL     1      22.991   1.042  53.463  1.00  0.00     0.068 C 
HETATM    2  C4  UNL     1      22.903   2.156  52.466  1.00  0.00     0.040 C 
HETATM    3  N1  UNL     1      22.423   3.321  52.210  1.00  0.00    -0.253 N 
HETATM    4  C5  UNL     1      21.613   4.129  52.999  1.00  0.00     0.227 A 
HETATM    5  N2  UNL     1      21.991   4.526  51.862  1.00  0.00    -0.269 N 
HETATM    6  C6  UNL     1      21.721   5.747  51.181  1.00  0.00     0.229 C 
HETATM    7  S1  UNL     1      22.924   5.871  49.823  1.00  0.00    -0.110 SA
HETATM    8  C7  UNL     1      22.665   4.590  48.611  1.00  0.00     0.011 C 
HETATM    9  C8  UNL     1      23.232   3.396  48.783  1.00  0.00    -0.005 C 
HETATM   10  C9  UNL     1      22.920   2.415  47.672  1.00  0.00     0.067 C 
HETATM   11  C10 UNL     1      21.402   2.412  47.429  1.00  0.00     0.131 C 
HETATM   12  N3  UNL     1      20.995   3.774  47.137  1.00  0.00    -0.344 N 
HETATM   13  C11 UNL     1      19.765   4.086  46.547  1.00  0.00     0.243 C 
HETATM   14  O1  UNL     1      19.320   5.232  46.258  1.00  0.00    -0.268 OA
HETATM   15  C16 UNL     1      21.820   4.905  47.428  1.00  0.00     0.172 C 
HETATM   16  S2  UNL     1      24.253   3.056  50.210  1.00  0.00    -0.117 SA
HETATM   17  C17 UNL     1      23.708   1.752  51.264  1.00  0.00     0.134 C 
HETATM   18  C18 UNL     1      24.819   1.030  51.954  1.00  0.00    -0.031 A 
HETATM   19  C19 UNL     1      26.109   0.736  51.531  1.00  0.00     0.009 A 
HETATM   20  C20 UNL     1      27.005   0.041  52.348  1.00  0.00     0.001 A 
HETATM   21  C21 UNL     1      26.582  -0.354  53.603  1.00  0.00     0.001 A 
HETATM   22  C22 UNL     1      25.303  -0.060  54.017  1.00  0.00     0.008 A 
HETATM   23  C23 UNL     1      24.419   0.626  53.210  1.00  0.00    -0.041 A 
ENDROOT
BRANCH  13  24
HETATM   24  C12 UNL     1      18.671   3.234  46.104  1.00  0.00     0.072 C 
HETATM   25  C13 UNL     1      18.492   3.245  44.796  1.00  0.00     0.008 C 
BRANCH  25  26
HETATM   26  C14 UNL     1      17.455   2.475  44.075  1.00  0.00     0.296 C 
BRANCH  26  27
HETATM   27  N4  UNL     1      17.300   1.123  44.529  1.00  0.00     0.082 N 
HETATM   28  C15 UNL     1      17.110   0.221  43.411  1.00  0.00     0.307 C 
HETATM   29  H18 UNL     1      16.481   1.019  45.161  1.00  0.00     0.315 HD
ENDBRANCH  26  27
ENDBRANCH  25  26
ENDBRANCH  13  24
BRANCH   1  30
HETATM   30  C2  UNL     1      22.058  -0.110  53.105  1.00  0.00     0.011 C 
HETATM   31  C1  UNL     1      21.639  -0.851  54.381  1.00  0.00     0.006 C 
ENDBRANCH   1  30
TORSDOF 4
ENDMDL
MODEL 4
REMARK VINA RESULT:      -6.7      4.010      9.566
REMARK  4 active torsions:
REMARK  status: ('A' for Active; 'I' for Inactive)
REMARK    1  A    between atoms: C2_2  and  C3_3 
REMARK       I    between atoms: N3_14  and  C11_15 
REMARK    2  A    between atoms: C11_15  and  C12_17 
REMARK    3  A    between atoms: C13_18  and  C14_19 
REMARK    4  A    between atoms: C14_19  and  N4_20 
ROOT
HETATM    1  C3  UNL     1      21.393   3.546  47.677  1.00  0.00     0.068 C 
HETATM    2  C4  UNL     1      22.192   4.644  48.310  1.00  0.00     0.040 C 
HETATM    3  N1  UNL     1      22.321   5.914  48.463  1.00  0.00    -0.253 N 
HETATM    4  C5  UNL     1      21.546   6.944  47.945  1.00  0.00     0.227 A 
HETATM    5  N2  UNL     1      22.526   7.204  48.696  1.00  0.00    -0.269 N 
HETATM    6  C6  UNL     1      23.028   8.457  49.149  1.00  0.00     0.229 C 
HETATM    7  S1  UNL     1      24.139   8.107  50.545  1.00  0.00    -0.110 SA
HETATM    8  C7  UNL     1      25.574   7.192  50.015  1.00  0.00     0.011 C 
HETATM    9  C8  UNL     1      25.517   5.862  49.942  1.00  0.00    -0.005 C 
HETATM   10  C9  UNL     1      26.811   5.227  49.477  1.00  0.00     0.067 C 
HETATM   11  C10 UNL     1      27.287   5.953  48.207  1.00  0.00     0.131 C 
HETATM   12  N3  UNL     1      27.408   7.364  48.520  1.00  0.00    -0.344 N 
HETATM   13  C11 UNL     1      28.123   8.258  47.715  1.00  0.00     0.243 C 
HETATM   14  O1  UNL     1      28.283   9.498  47.898  1.00  0.00    -0.268 OA
HETATM   15  C16 UNL     1      26.806   7.954  49.676  1.00  0.00     0.172 C 
HETATM   16  S2  UNL     1      24.025   4.977  50.371  1.00  0.00    -0.117 SA
HETATM   17  C17 UNL     1      23.302   4.003  49.092  1.00  0.00     0.134 C 
HETATM   18  C18 UNL     1      22.576   2.796  49.588  1.00  0.00    -0.031 A 
HETATM   19  C19 UNL     1      22.835   1.966  50.673  1.00  0.00     0.009 A 
HETATM   20  C20 UNL     1      22.015   0.873  50.967  1.00  0.00     0.001 A 
HETATM   21  C21 UNL     1      20.926   0.628  50.152  1.00  0.00     0.001 A 
HETATM   22  C22 UNL     1      20.675   1.453  49.081  1.00  0.00     0.008 A 
HETATM   23  C23 UNL     1      21.485   2.532  48.790  1.00  0.00    -0.041 A 
ENDROOT
BRANCH  13  24
HETATM   24  C12 UNL     1      28.869   8.053  46.482  1.00  0.00     0.072 C 
HETATM   25  C13 UNL     1      30.172   7.951  46.666  1.00  0.00     0.008 C 
BRANCH  25  26
HETATM   26  C14 UNL     1      31.167   7.739  45.592  1.00  0.00     0.296 C 
BRANCH  26  27
HETATM   27  N4  UNL     1      32.389   7.130  46.030  1.00  0.00     0.082 N 
HETATM   28  C15 UNL     1      32.792   6.072  45.126  1.00  0.00     0.307 C 
HETATM   29  H18 UNL     1      32.296   6.714  46.979  1.00  0.00     0.315 HD
ENDBRANCH  26  27
ENDBRANCH  25  26
ENDBRANCH  13  24
BRANCH   1  30
HETATM   30  C2  UNL     1      22.081   2.994  46.432  1.00  0.00     0.011 C 
HETATM   31  C1  UNL     1      21.917   3.982  45.270  1.00  0.00     0.006 C 
ENDBRANCH   1  30
TORSDOF 4
ENDMDL
MODEL 5
REMARK VINA RESULT:      -6.7      5.997     10.249
REMARK  4 active torsions:
REMARK  status: ('A' for Active; 'I' for Inactive)
REMARK    1  A    between atoms: C2_2  and  C3_3 
REMARK       I    between atoms: N3_14  and  C11_15 
REMARK    2  A    between atoms: C11_15  and  C12_17 
REMARK    3  A    between atoms: C13_18  and  C14_19 
REMARK    4  A    between atoms: C14_19  and  N4_20 
ROOT
HETATM    1  C3  UNL     1      21.154   1.918  49.516  1.00  0.00     0.068 C 
HETATM    2  C4  UNL     1      21.478   3.365  49.729  1.00  0.00     0.040 C 
HETATM    3  N1  UNL     1      21.100   4.580  49.543  1.00  0.00    -0.253 N 
HETATM    4  C5  UNL     1      19.956   5.056  48.913  1.00  0.00     0.227 A 
HETATM    5  N2  UNL     1      20.786   5.863  49.417  1.00  0.00    -0.269 N 
HETATM    6  C6  UNL     1      20.769   7.286  49.465  1.00  0.00     0.229 C 
HETATM    7  S1  UNL     1      21.989   7.786  50.717  1.00  0.00    -0.110 SA
HETATM    8  C7  UNL     1      23.644   7.355  50.216  1.00  0.00     0.011 C 
HETATM    9  C8  UNL     1      24.116   6.137  50.482  1.00  0.00    -0.005 C 
HETATM   10  C9  UNL     1      25.534   5.920  49.995  1.00  0.00     0.067 C 
HETATM   11  C10 UNL     1      25.625   6.373  48.528  1.00  0.00     0.131 C 
HETATM   12  N3  UNL     1      25.189   7.755  48.461  1.00  0.00    -0.344 N 
HETATM   13  C11 UNL     1      25.454   8.579  47.361  1.00  0.00     0.243 C 
HETATM   14  O1  UNL     1      25.116   9.786  47.206  1.00  0.00    -0.268 OA
HETATM   15  C16 UNL     1      24.455   8.385  49.514  1.00  0.00     0.172 C 
HETATM   16  S2  UNL     1      23.119   4.927  51.339  1.00  0.00    -0.117 SA
HETATM   17  C17 UNL     1      22.786   3.432  50.465  1.00  0.00     0.134 C 
HETATM   18  C18 UNL     1      22.622   2.239  51.349  1.00  0.00    -0.031 A 
HETATM   19  C19 UNL     1      23.237   1.912  52.551  1.00  0.00     0.009 A 
HETATM   20  C20 UNL     1      22.933   0.728  53.228  1.00  0.00     0.001 A 
HETATM   21  C21 UNL     1      21.996  -0.125  52.675  1.00  0.00     0.001 A 
HETATM   22  C22 UNL     1      21.390   0.205  51.485  1.00  0.00     0.008 A 
HETATM   23  C23 UNL     1      21.691   1.374  50.817  1.00  0.00    -0.041 A 
ENDROOT
BRANCH  13  24
HETATM   24  C12 UNL     1      26.164   8.319  46.117  1.00  0.00     0.072 C 
HETATM   25  C13 UNL     1      25.698   9.009  45.092  1.00  0.00     0.008 C 
BRANCH  25  26
HETATM   26  C14 UNL     1      26.229   8.942  43.713  1.00  0.00     0.296 C 
BRANCH  26  27
HETATM   27  N4  UNL     1      27.661   8.953  43.630  1.00  0.00     0.082 N 
HETATM   28  C15 UNL     1      28.157  10.299  43.425  1.00  0.00     0.307 C 
HETATM   29  H18 UNL     1      28.007   8.367  42.843  1.00  0.00     0.315 HD
ENDBRANCH  26  27
ENDBRANCH  25  26
ENDBRANCH  13  24
BRANCH   1  30
HETATM   30  C2  UNL     1      21.948   1.328  48.355  1.00  0.00     0.011 C 
HETATM   31  C1  UNL     1      22.045   2.354  47.220  1.00  0.00     0.006 C 
ENDBRANCH   1  30
TORSDOF 4
ENDMDL
MODEL 6
REMARK VINA RESULT:      -6.6      3.417      8.543
REMARK  4 active torsions:
REMARK  status: ('A' for Active; 'I' for Inactive)
REMARK    1  A    between atoms: C2_2  and  C3_3 
REMARK       I    between atoms: N3_14  and  C11_15 
REMARK    2  A    between atoms: C11_15  and  C12_17 
REMARK    3  A    between atoms: C13_18  and  C14_19 
REMARK    4  A    between atoms: C14_19  and  N4_20 
ROOT
HETATM    1  C3  UNL     1      26.134   7.677  48.353  1.00  0.00     0.068 C 
HETATM    2  C4  UNL     1      27.609   7.869  48.523  1.00  0.00     0.040 C 
HETATM    3  N1  UNL     1      28.543   8.674  48.889  1.00  0.00    -0.253 N 
HETATM    4  C5  UNL     1      28.443   9.973  49.373  1.00  0.00     0.227 A 
HETATM    5  N2  UNL     1      29.573   9.423  49.260  1.00  0.00    -0.269 N 
HETATM    6  C6  UNL     1      30.871   9.925  49.561  1.00  0.00     0.229 C 
HETATM    7  S1  UNL     1      31.991   8.494  49.615  1.00  0.00    -0.110 SA
HETATM    8  C7  UNL     1      32.144   7.731  48.011  1.00  0.00     0.011 C 
HETATM    9  C8  UNL     1      31.255   6.812  47.632  1.00  0.00    -0.005 C 
HETATM   10  C9  UNL     1      31.516   6.257  46.247  1.00  0.00     0.067 C 
HETATM   11  C10 UNL     1      31.728   7.432  45.278  1.00  0.00     0.131 C 
HETATM   12  N3  UNL     1      32.811   8.246  45.794  1.00  0.00    -0.344 N 
HETATM   13  C11 UNL     1      33.485   9.192  45.013  1.00  0.00     0.243 C 
HETATM   14  O1  UNL     1      34.433   9.948  45.369  1.00  0.00    -0.268 OA
HETATM   15  C16 UNL     1      33.277   8.146  47.143  1.00  0.00     0.172 C 
HETATM   16  S2  UNL     1      29.913   6.326  48.707  1.00  0.00    -0.117 SA
HETATM   17  C17 UNL     1      28.285   6.599  48.090  1.00  0.00     0.134 C 
HETATM   18  C18 UNL     1      27.278   5.614  48.587  1.00  0.00    -0.031 A 
HETATM   19  C19 UNL     1      27.406   4.265  48.894  1.00  0.00     0.009 A 
HETATM   20  C20 UNL     1      26.320   3.515  49.355  1.00  0.00     0.001 A 
HETATM   21  C21 UNL     1      25.099   4.145  49.504  1.00  0.00     0.001 A 
HETATM   22  C22 UNL     1      24.978   5.481  49.199  1.00  0.00     0.008 A 
HETATM   23  C23 UNL     1      26.050   6.221  48.744  1.00  0.00    -0.041 A 
ENDROOT
BRANCH  13  24
HETATM   24  C12 UNL     1      33.317   9.581  43.621  1.00  0.00     0.072 C 
HETATM   25  C13 UNL     1      34.454   9.647  42.952  1.00  0.00     0.008 C 
BRANCH  25  26
HETATM   26  C14 UNL     1      34.578  10.016  41.525  1.00  0.00     0.296 C 
BRANCH  26  27
HETATM   27  N4  UNL     1      35.840   9.675  40.934  1.00  0.00     0.082 N 
HETATM   28  C15 UNL     1      35.724   8.484  40.118  1.00  0.00     0.307 C 
HETATM   29  H18 UNL     1      36.568   9.493  41.654  1.00  0.00     0.315 HD
ENDBRANCH  26  27
ENDBRANCH  25  26
ENDBRANCH  13  24
BRANCH   1  30
HETATM   30  C2  UNL     1      25.709   7.834  46.897  1.00  0.00     0.011 C 
HETATM   31  C1  UNL     1      25.935   9.282  46.446  1.00  0.00     0.006 C 
ENDBRANCH   1  30
TORSDOF 4
ENDMDL
MODEL 7
REMARK VINA RESULT:      -6.6      4.944      9.462
REMARK  4 active torsions:
REMARK  status: ('A' for Active; 'I' for Inactive)
REMARK    1  A    between atoms: C2_2  and  C3_3 
REMARK       I    between atoms: N3_14  and  C11_15 
REMARK    2  A    between atoms: C11_15  and  C12_17 
REMARK    3  A    between atoms: C13_18  and  C14_19 
REMARK    4  A    between atoms: C14_19  and  N4_20 
ROOT
HETATM    1  C3  UNL     1      32.012   5.333  47.541  1.00  0.00     0.068 C 
HETATM    2  C4  UNL     1      32.408   5.836  46.188  1.00  0.00     0.040 C 
HETATM    3  N1  UNL     1      33.042   5.579  45.099  1.00  0.00    -0.253 N 
HETATM    4  C5  UNL     1      33.752   4.437  44.747  1.00  0.00     0.227 A 
HETATM    5  N2  UNL     1      33.652   5.399  43.935  1.00  0.00    -0.269 N 
HETATM    6  C6  UNL     1      34.173   5.545  42.618  1.00  0.00     0.229 C 
HETATM    7  S1  UNL     1      33.286   6.935  41.851  1.00  0.00    -0.110 SA
HETATM    8  C7  UNL     1      33.656   8.472  42.675  1.00  0.00     0.011 C 
HETATM    9  C8  UNL     1      32.951   8.830  43.748  1.00  0.00    -0.005 C 
HETATM   10  C9  UNL     1      33.382  10.157  44.337  1.00  0.00     0.067 C 
HETATM   11  C10 UNL     1      34.910  10.149  44.506  1.00  0.00     0.131 C 
HETATM   12  N3  UNL     1      35.499   9.865  43.211  1.00  0.00    -0.344 N 
HETATM   13  C11 UNL     1      36.848  10.107  42.925  1.00  0.00     0.243 C 
HETATM   14  O1  UNL     1      37.453   9.892  41.837  1.00  0.00    -0.268 OA
HETATM   15  C16 UNL     1      34.748   9.317  42.124  1.00  0.00     0.172 C 
HETATM   16  S2  UNL     1      31.635   7.796  44.376  1.00  0.00    -0.117 SA
HETATM   17  C17 UNL     1      31.825   7.211  46.028  1.00  0.00     0.134 C 
HETATM   18  C18 UNL     1      30.533   7.006  46.748  1.00  0.00    -0.031 A 
HETATM   19  C19 UNL     1      29.332   7.700  46.669  1.00  0.00     0.009 A 
HETATM   20  C20 UNL     1      28.226   7.336  47.442  1.00  0.00     0.001 A 
HETATM   21  C21 UNL     1      28.346   6.258  48.298  1.00  0.00     0.001 A 
HETATM   22  C22 UNL     1      29.538   5.575  48.373  1.00  0.00     0.008 A 
HETATM   23  C23 UNL     1      30.629   5.935  47.610  1.00  0.00    -0.041 A 
ENDROOT
BRANCH  13  24
HETATM   24  C12 UNL     1      37.919  10.653  43.745  1.00  0.00     0.072 C 
HETATM   25  C13 UNL     1      39.126  10.381  43.283  1.00  0.00     0.008 C 
BRANCH  25  26
HETATM   26  C14 UNL     1      40.393  10.810  43.914  1.00  0.00     0.296 C 
BRANCH  26  27
HETATM   27  N4  UNL     1      40.888   9.911  44.916  1.00  0.00     0.082 N 
HETATM   28  C15 UNL     1      41.831   8.970  44.347  1.00  0.00     0.307 C 
HETATM   29  H18 UNL     1      40.122   9.362  45.356  1.00  0.00     0.315 HD
ENDBRANCH  26  27
ENDBRANCH  25  26
ENDBRANCH  13  24
BRANCH   1  30
HETATM   30  C2  UNL     1      32.879   5.933  48.642  1.00  0.00     0.011 C 
HETATM   31  C1  UNL     1      34.321   5.431  48.496  1.00  0.00     0.006 C 
ENDBRANCH   1  30
TORSDOF 4
ENDMDL
MODEL 8
REMARK VINA RESULT:      -6.5      5.928      8.756
REMARK  4 active torsions:
REMARK  status: ('A' for Active; 'I' for Inactive)
REMARK    1  A    between atoms: C2_2  and  C3_3 
REMARK       I    between atoms: N3_14  and  C11_15 
REMARK    2  A    between atoms: C11_15  and  C12_17 
REMARK    3  A    between atoms: C13_18  and  C14_19 
REMARK    4  A    between atoms: C14_19  and  N4_20 
ROOT
HETATM    1  C3  UNL     1      26.737   7.054  48.318  1.00  0.00     0.068 C 
HETATM    2  C4  UNL     1      25.467   7.446  47.627  1.00  0.00     0.040 C 
HETATM    3  N1  UNL     1      24.945   8.077  46.636  1.00  0.00    -0.253 N 
HETATM    4  C5  UNL     1      25.573   8.785  45.618  1.00  0.00     0.227 A 
HETATM    5  N2  UNL     1      24.315   8.683  45.638  1.00  0.00    -0.269 N 
HETATM    6  C6  UNL     1      23.338   9.199  44.740  1.00  0.00     0.229 C 
HETATM    7  S1  UNL     1      21.788   8.310  45.077  1.00  0.00    -0.110 SA
HETATM    8  C7  UNL     1      21.170   8.684  46.707  1.00  0.00     0.011 C 
HETATM    9  C8  UNL     1      21.607   7.983  47.753  1.00  0.00    -0.005 C 
HETATM   10  C9  UNL     1      20.992   8.416  49.069  1.00  0.00     0.067 C 
HETATM   11  C10 UNL     1      21.106   9.945  49.185  1.00  0.00     0.131 C 
HETATM   12  N3  UNL     1      20.468  10.530  48.021  1.00  0.00    -0.344 N 
HETATM   13  C11 UNL     1      20.096  11.877  47.960  1.00  0.00     0.243 C 
HETATM   14  O1  UNL     1      19.542  12.479  46.997  1.00  0.00    -0.268 OA
HETATM   15  C16 UNL     1      20.169   9.775  46.844  1.00  0.00     0.172 C 
HETATM   16  S2  UNL     1      22.800   6.669  47.551  1.00  0.00    -0.117 SA
HETATM   17  C17 UNL     1      24.326   6.864  48.412  1.00  0.00     0.134 C 
HETATM   18  C18 UNL     1      24.957   5.574  48.824  1.00  0.00    -0.031 A 
HETATM   19  C19 UNL     1      24.383   4.373  49.223  1.00  0.00     0.009 A 
HETATM   20  C20 UNL     1      25.167   3.269  49.570  1.00  0.00     0.001 A 
HETATM   21  C21 UNL     1      26.542   3.392  49.508  1.00  0.00     0.001 A 
HETATM   22  C22 UNL     1      27.105   4.583  49.111  1.00  0.00     0.008 A 
HETATM   23  C23 UNL     1      26.330   5.673  48.769  1.00  0.00    -0.041 A 
ENDROOT
BRANCH  13  24
HETATM   24  C12 UNL     1      20.221  12.952  48.934  1.00  0.00     0.072 C 
HETATM   25  C13 UNL     1      20.085  14.156  48.409  1.00  0.00     0.008 C 
BRANCH  25  26
HETATM   26  C14 UNL     1      20.165  15.425  49.165  1.00  0.00     0.296 C 
BRANCH  26  27
HETATM   27  N4  UNL     1      19.856  15.303  50.560  1.00  0.00     0.082 N 
HETATM   28  C15 UNL     1      18.926  16.333  50.976  1.00  0.00     0.307 C 
HETATM   29  H18 UNL     1      20.705  15.388  51.154  1.00  0.00     0.315 HD
ENDBRANCH  26  27
ENDBRANCH  25  26
ENDBRANCH  13  24
BRANCH   1  30
HETATM   30  C2  UNL     1      27.006   7.926  49.540  1.00  0.00     0.011 C 
HETATM   31  C1  UNL     1      28.099   8.950  49.214  1.00  0.00     0.006 C 
ENDBRANCH   1  30
TORSDOF 4
ENDMDL
MODEL 9
REMARK VINA RESULT:      -6.3      5.616     10.562
REMARK  4 active torsions:
REMARK  status: ('A' for Active; 'I' for Inactive)
REMARK    1  A    between atoms: C2_2  and  C3_3 
REMARK       I    between atoms: N3_14  and  C11_15 
REMARK    2  A    between atoms: C11_15  and  C12_17 
REMARK    3  A    between atoms: C13_18  and  C14_19 
REMARK    4  A    between atoms: C14_19  and  N4_20 
ROOT
HETATM    1  C3  UNL     1      23.540   0.960  51.294  1.00  0.00     0.068 C 
HETATM    2  C4  UNL     1      22.846   2.020  50.496  1.00  0.00     0.040 C 
HETATM    3  N1  UNL     1      22.622   2.495  49.322  1.00  0.00    -0.253 N 
HETATM    4  C5  UNL     1      23.085   2.044  48.091  1.00  0.00     0.227 A 
HETATM    5  N2  UNL     1      22.319   3.045  48.153  1.00  0.00    -0.269 N 
HETATM    6  C6  UNL     1      21.796   3.867  47.114  1.00  0.00     0.229 C 
HETATM    7  S1  UNL     1      20.419   4.812  47.832  1.00  0.00    -0.110 SA
HETATM    8  C7  UNL     1      20.994   5.946  49.081  1.00  0.00     0.011 C 
HETATM    9  C8  UNL     1      21.141   5.523  50.337  1.00  0.00    -0.005 C 
HETATM   10  C9  UNL     1      21.637   6.599  51.281  1.00  0.00     0.067 C 
HETATM   11  C10 UNL     1      22.863   7.280  50.651  1.00  0.00     0.131 C 
HETATM   12  N3  UNL     1      22.473   7.782  49.347  1.00  0.00    -0.344 N 
HETATM   13  C11 UNL     1      23.226   8.731  48.647  1.00  0.00     0.243 C 
HETATM   14  O1  UNL     1      22.975   9.225  47.511  1.00  0.00    -0.268 OA
HETATM   15  C16 UNL     1      21.288   7.346  48.675  1.00  0.00     0.172 C 
HETATM   16  S2  UNL     1      20.764   3.838  50.793  1.00  0.00    -0.117 SA
HETATM   17  C17 UNL     1      22.097   2.896  51.460  1.00  0.00     0.134 C 
HETATM   18  C18 UNL     1      21.669   1.855  52.442  1.00  0.00    -0.031 A 
HETATM   19  C19 UNL     1      20.632   1.854  53.366  1.00  0.00     0.009 A 
HETATM   20  C20 UNL     1      20.400   0.758  54.202  1.00  0.00     0.001 A 
HETATM   21  C21 UNL     1      21.230  -0.342  54.093  1.00  0.00     0.001 A 
HETATM   22  C22 UNL     1      22.255  -0.335  53.175  1.00  0.00     0.008 A 
HETATM   23  C23 UNL     1      22.484   0.747  52.351  1.00  0.00    -0.041 A 
ENDROOT
BRANCH  13  24
HETATM   24  C12 UNL     1      24.467   9.412  48.986  1.00  0.00     0.072 C 
HETATM   25  C13 UNL     1      25.376   8.615  49.516  1.00  0.00     0.008 C 
BRANCH  25  26
HETATM   26  C14 UNL     1      26.724   9.038  49.953  1.00  0.00     0.296 C 
BRANCH  26  27
HETATM   27  N4  UNL     1      27.769   8.109  49.631  1.00  0.00     0.082 N 
HETATM   28  C15 UNL     1      28.486   8.528  48.444  1.00  0.00     0.307 C 
HETATM   29  H18 UNL     1      27.397   7.155  49.454  1.00  0.00     0.315 HD
ENDBRANCH  26  27
ENDBRANCH  25  26
ENDBRANCH  13  24
BRANCH   1  30
HETATM   30  C2  UNL     1      24.811   1.490  51.950  1.00  0.00     0.011 C 
HETATM   31  C1  UNL     1      25.704   0.315  52.369  1.00  0.00     0.006 C 
ENDBRANCH   1  30
TORSDOF 4
ENDMDL
