MODEL 1
REMARK VINA RESULT:      -7.0      0.000      0.000
REMARK  9 active torsions:
REMARK  status: ('A' for Active; 'I' for Inactive)
REMARK    1  A    between atoms: C7_7  and  N1_8 
REMARK    2  A    between atoms: N1_8  and  C8_9 
REMARK    3  A    between atoms: C13_16  and  O1_17 
REMARK    4  A    between atoms: O1_17  and  C14_18 
REMARK    5  A    between atoms: C14_18  and  C15_19 
REMARK    6  A    between atoms: C15_19  and  O2_20 
REMARK    7  A    between atoms: O2_20  and  C16_21 
REMARK    8  A    between atoms: C16_21  and  C17_22 
REMARK    9  A    between atoms: C17_22  and  O3_23 
ROOT
HETATM    1  C1  UNL     1      20.213   3.157  52.126  1.00  0.00     0.018 C 
HETATM    2  C2  UNL     1      20.667   2.159  52.627  1.00  0.00    -0.078 C 
HETATM    3  C3  UNL     1      21.212   0.966  53.250  1.00  0.00     0.019 A 
HETATM    4  C4  UNL     1      20.488   0.181  54.116  1.00  0.00     0.021 A 
HETATM    5  C5  UNL     1      21.051  -0.952  54.687  1.00  0.00     0.004 A 
HETATM    6  C6  UNL     1      22.371  -1.305  54.384  1.00  0.00     0.029 A 
HETATM    7  C7  UNL     1      23.045  -0.479  53.511  1.00  0.00     0.035 A 
HETATM    8  C20 UNL     1      22.533   0.656  52.917  1.00  0.00     0.050 A 
ENDROOT
BRANCH   7   9
HETATM    9  N1  UNL     1      24.381  -0.806  53.184  1.00  0.00    -0.340 N 
HETATM   10  H5  UNL     1      24.667  -1.504  52.467  1.00  0.00     0.167 HD
BRANCH   9  11
HETATM   11  C8  UNL     1      25.549  -0.248  53.769  1.00  0.00     0.141 A 
HETATM   12  N2  UNL     1      26.071  -0.598  54.957  1.00  0.00    -0.224 NA
HETATM   13  C9  UNL     1      27.180   0.003  55.401  1.00  0.00     0.236 A 
HETATM   14  N3  UNL     1      27.856   0.980  54.728  1.00  0.00    -0.239 NA
HETATM   15  C10 UNL     1      27.350   1.347  53.535  1.00  0.00     0.094 A 
HETATM   16  C11 UNL     1      26.207   0.732  53.069  1.00  0.00     0.042 A 
HETATM   17  C19 UNL     1      27.960   2.288  52.836  1.00  0.00     0.171 A 
HETATM   18  C12 UNL     1      25.835   1.197  51.890  1.00  0.00     0.051 A 
HETATM   19  C13 UNL     1      26.413   2.233  51.003  1.00  0.00     0.290 A 
HETATM   20  O4  UNL     1      27.563   2.765  51.604  1.00  0.00    -0.327 OA
BRANCH  19  21
HETATM   21  O1  UNL     1      25.508   3.171  50.601  1.00  0.00    -0.355 OA
BRANCH  21  22
HETATM   22  C14 UNL     1      24.575   3.584  51.506  1.00  0.00     0.197 C 
BRANCH  22  23
HETATM   23  C15 UNL     1      23.817   4.767  50.945  1.00  0.00     0.194 C 
BRANCH  23  24
HETATM   24  O2  UNL     1      23.637   4.512  49.594  1.00  0.00    -0.387 OA
BRANCH  24  25
HETATM   25  C16 UNL     1      22.300   4.312  49.236  1.00  0.00     0.193 C 
BRANCH  25  26
HETATM   26  C17 UNL     1      22.118   3.264  48.196  1.00  0.00     0.193 C 
BRANCH  26  27
HETATM   27  O3  UNL     1      22.535   2.033  48.650  1.00  0.00    -0.394 OA
HETATM   28  C18 UNL     1      21.548   1.176  49.084  1.00  0.00     0.201 C 
ENDBRANCH  26  27
ENDBRANCH  25  26
ENDBRANCH  24  25
ENDBRANCH  23  24
ENDBRANCH  22  23
ENDBRANCH  21  22
ENDBRANCH  19  21
ENDBRANCH   9  11
ENDBRANCH   7   9
TORSDOF 9
ENDMDL
MODEL 2
REMARK VINA RESULT:      -6.8      2.649      5.894
REMARK  9 active torsions:
REMARK  status: ('A' for Active; 'I' for Inactive)
REMARK    1  A    between atoms: C7_7  and  N1_8 
REMARK    2  A    between atoms: N1_8  and  C8_9 
REMARK    3  A    between atoms: C13_16  and  O1_17 
REMARK    4  A    between atoms: O1_17  and  C14_18 
REMARK    5  A    between atoms: C14_18  and  C15_19 
REMARK    6  A    between atoms: C15_19  and  O2_20 
REMARK    7  A    between atoms: O2_20  and  C16_21 
REMARK    8  A    between atoms: C16_21  and  C17_22 
REMARK    9  A    between atoms: C17_22  and  O3_23 
ROOT
HETATM    1  C1  UNL     1      23.289  -1.425  55.439  1.00  0.00     0.018 C 
HETATM    2  C2  UNL     1      22.534  -1.026  54.587  1.00  0.00    -0.078 C 
HETATM    3  C3  UNL     1      21.616  -0.567  53.561  1.00  0.00     0.019 A 
HETATM    4  C4  UNL     1      20.250  -0.604  53.712  1.00  0.00     0.021 A 
HETATM    5  C5  UNL     1      19.411  -0.153  52.702  1.00  0.00     0.004 A 
HETATM    6  C6  UNL     1      19.954   0.347  51.514  1.00  0.00     0.029 A 
HETATM    7  C7  UNL     1      21.329   0.358  51.421  1.00  0.00     0.035 A 
HETATM    8  C20 UNL     1      22.205  -0.077  52.393  1.00  0.00     0.050 A 
ENDROOT
BRANCH   7   9
HETATM    9  N1  UNL     1      21.911   0.856  50.233  1.00  0.00    -0.340 N 
HETATM   10  H5  UNL     1      22.493   0.300  49.573  1.00  0.00     0.167 HD
BRANCH   9  11
HETATM   11  C8  UNL     1      21.805   2.184  49.740  1.00  0.00     0.141 A 
HETATM   12  N2  UNL     1      20.766   2.677  49.042  1.00  0.00    -0.224 NA
HETATM   13  C9  UNL     1      20.784   3.949  48.630  1.00  0.00     0.236 A 
HETATM   14  N3  UNL     1      21.803   4.827  48.866  1.00  0.00    -0.239 NA
HETATM   15  C10 UNL     1      22.854   4.354  49.563  1.00  0.00     0.094 A 
HETATM   16  C11 UNL     1      22.844   3.043  49.991  1.00  0.00     0.042 A 
HETATM   17  C19 UNL     1      23.871   5.157  49.822  1.00  0.00     0.171 A 
HETATM   18  C12 UNL     1      23.939   2.728  50.659  1.00  0.00     0.051 A 
HETATM   19  C13 UNL     1      25.143   3.512  51.021  1.00  0.00     0.290 A 
HETATM   20  O4  UNL     1      25.011   4.816  50.523  1.00  0.00    -0.327 OA
BRANCH  19  21
HETATM   21  O1  UNL     1      26.313   2.900  50.680  1.00  0.00    -0.355 OA
BRANCH  21  22
HETATM   22  C14 UNL     1      26.632   1.737  51.317  1.00  0.00     0.197 C 
BRANCH  22  23
HETATM   23  C15 UNL     1      27.052   2.039  52.738  1.00  0.00     0.194 C 
BRANCH  23  24
HETATM   24  O2  UNL     1      28.439   2.065  52.740  1.00  0.00    -0.387 OA
BRANCH  24  25
HETATM   25  C16 UNL     1      29.007   1.476  53.874  1.00  0.00     0.193 C 
BRANCH  25  26
HETATM   26  C17 UNL     1      28.130   0.459  54.513  1.00  0.00     0.193 C 
BRANCH  26  27
HETATM   27  O3  UNL     1      28.619  -0.813  54.321  1.00  0.00    -0.394 OA
HETATM   28  C18 UNL     1      29.860  -0.909  53.732  1.00  0.00     0.201 C 
ENDBRANCH  26  27
ENDBRANCH  25  26
ENDBRANCH  24  25
ENDBRANCH  23  24
ENDBRANCH  22  23
ENDBRANCH  21  22
ENDBRANCH  19  21
ENDBRANCH   9  11
ENDBRANCH   7   9
TORSDOF 9
ENDMDL
MODEL 3
REMARK VINA RESULT:      -6.7      1.746      2.964
REMARK  9 active torsions:
REMARK  status: ('A' for Active; 'I' for Inactive)
REMARK    1  A    between atoms: C7_7  and  N1_8 
REMARK    2  A    between atoms: N1_8  and  C8_9 
REMARK    3  A    between atoms: C13_16  and  O1_17 
REMARK    4  A    between atoms: O1_17  and  C14_18 
REMARK    5  A    between atoms: C14_18  and  C15_19 
REMARK    6  A    between atoms: C15_19  and  O2_20 
REMARK    7  A    between atoms: O2_20  and  C16_21 
REMARK    8  A    between atoms: C16_21  and  C17_22 
REMARK    9  A    between atoms: C17_22  and  O3_23 
ROOT
HETATM    1  C1  UNL     1      17.339  -0.128  50.551  1.00  0.00     0.018 C 
HETATM    2  C2  UNL     1      18.334   0.374  51.009  1.00  0.00    -0.078 C 
HETATM    3  C3  UNL     1      19.532   0.995  51.545  1.00  0.00     0.019 A 
HETATM    4  C4  UNL     1      19.564   2.298  51.985  1.00  0.00     0.021 A 
HETATM    5  C5  UNL     1      20.733   2.849  52.490  1.00  0.00     0.004 A 
HETATM    6  C6  UNL     1      21.898   2.077  52.555  1.00  0.00     0.029 A 
HETATM    7  C7  UNL     1      21.804   0.779  52.099  1.00  0.00     0.035 A 
HETATM    8  C20 UNL     1      20.669   0.185  51.589  1.00  0.00     0.050 A 
ENDROOT
BRANCH   7   9
HETATM    9  N1  UNL     1      22.963  -0.029  52.151  1.00  0.00    -0.340 N 
HETATM   10  H5  UNL     1      23.407  -0.490  51.330  1.00  0.00     0.167 HD
BRANCH   9  11
HETATM   11  C8  UNL     1      23.712  -0.348  53.315  1.00  0.00     0.141 A 
HETATM   12  N2  UNL     1      23.223  -0.938  54.421  1.00  0.00    -0.224 NA
HETATM   13  C9  UNL     1      24.033  -1.187  55.455  1.00  0.00     0.236 A 
HETATM   14  N3  UNL     1      25.364  -0.885  55.490  1.00  0.00    -0.239 NA
HETATM   15  C10 UNL     1      25.875  -0.295  54.392  1.00  0.00     0.094 A 
HETATM   16  C11 UNL     1      25.047  -0.033  53.321  1.00  0.00     0.042 A 
HETATM   17  C19 UNL     1      27.157   0.022  54.366  1.00  0.00     0.171 A 
HETATM   18  C12 UNL     1      25.690   0.547  52.323  1.00  0.00     0.051 A 
HETATM   19  C13 UNL     1      27.105   0.954  52.156  1.00  0.00     0.290 A 
HETATM   20  O4  UNL     1      27.819   0.627  53.317  1.00  0.00    -0.327 OA
BRANCH  19  21
HETATM   21  O1  UNL     1      27.254   2.249  51.755  1.00  0.00    -0.355 OA
BRANCH  21  22
HETATM   22  C14 UNL     1      26.180   2.865  51.182  1.00  0.00     0.197 C 
BRANCH  22  23
HETATM   23  C15 UNL     1      26.512   3.228  49.751  1.00  0.00     0.194 C 
BRANCH  23  24
HETATM   24  O2  UNL     1      25.437   3.963  49.274  1.00  0.00    -0.387 OA
BRANCH  24  25
HETATM   25  C16 UNL     1      24.197   3.491  49.715  1.00  0.00     0.193 C 
BRANCH  25  26
HETATM   26  C17 UNL     1      23.137   4.535  49.720  1.00  0.00     0.193 C 
BRANCH  26  27
HETATM   27  O3  UNL     1      23.497   5.608  50.502  1.00  0.00    -0.394 OA
HETATM   28  C18 UNL     1      23.492   5.403  51.863  1.00  0.00     0.201 C 
ENDBRANCH  26  27
ENDBRANCH  25  26
ENDBRANCH  24  25
ENDBRANCH  23  24
ENDBRANCH  22  23
ENDBRANCH  21  22
ENDBRANCH  19  21
ENDBRANCH   9  11
ENDBRANCH   7   9
TORSDOF 9
ENDMDL
MODEL 4
REMARK VINA RESULT:      -6.7      1.965      5.716
REMARK  9 active torsions:
REMARK  status: ('A' for Active; 'I' for Inactive)
REMARK    1  A    between atoms: C7_7  and  N1_8 
REMARK    2  A    between atoms: N1_8  and  C8_9 
REMARK    3  A    between atoms: C13_16  and  O1_17 
REMARK    4  A    between atoms: O1_17  and  C14_18 
REMARK    5  A    between atoms: C14_18  and  C15_19 
REMARK    6  A    between atoms: C15_19  and  O2_20 
REMARK    7  A    between atoms: O2_20  and  C16_21 
REMARK    8  A    between atoms: C16_21  and  C17_22 
REMARK    9  A    between atoms: C17_22  and  O3_23 
ROOT
HETATM    1  C1  UNL     1      29.788  -2.208  53.416  1.00  0.00     0.018 C 
HETATM    2  C2  UNL     1      29.049  -1.258  53.359  1.00  0.00    -0.078 C 
HETATM    3  C3  UNL     1      28.162  -0.109  53.311  1.00  0.00     0.019 A 
HETATM    4  C4  UNL     1      28.588   1.172  53.574  1.00  0.00     0.021 A 
HETATM    5  C5  UNL     1      27.703   2.240  53.516  1.00  0.00     0.004 A 
HETATM    6  C6  UNL     1      26.361   2.019  53.187  1.00  0.00     0.029 A 
HETATM    7  C7  UNL     1      25.995   0.714  52.935  1.00  0.00     0.035 A 
HETATM    8  C20 UNL     1      26.833  -0.381  52.979  1.00  0.00     0.050 A 
ENDROOT
BRANCH   7   9
HETATM    9  N1  UNL     1      24.647   0.455  52.600  1.00  0.00    -0.340 N 
HETATM   10  H5  UNL     1      24.209   0.660  51.678  1.00  0.00     0.167 HD
BRANCH   9  11
HETATM   11  C8  UNL     1      23.667  -0.123  53.451  1.00  0.00     0.141 A 
HETATM   12  N2  UNL     1      23.921  -0.862  54.546  1.00  0.00    -0.224 NA
HETATM   13  C9  UNL     1      22.909  -1.353  55.268  1.00  0.00     0.236 A 
HETATM   14  N3  UNL     1      21.587  -1.162  54.983  1.00  0.00    -0.239 NA
HETATM   15  C10 UNL     1      21.309  -0.424  53.891  1.00  0.00     0.094 A 
HETATM   16  C11 UNL     1      22.347   0.086  53.140  1.00  0.00     0.042 A 
HETATM   17  C19 UNL     1      20.048  -0.204  53.563  1.00  0.00     0.171 A 
HETATM   18  C12 UNL     1      21.918   0.785  52.104  1.00  0.00     0.051 A 
HETATM   19  C13 UNL     1      20.556   1.111  51.621  1.00  0.00     0.290 A 
HETATM   20  O4  UNL     1      19.611   0.529  52.479  1.00  0.00    -0.327 OA
BRANCH  19  21
HETATM   21  O1  UNL     1      20.364   0.822  50.302  1.00  0.00    -0.355 OA
BRANCH  21  22
HETATM   22  C14 UNL     1      21.426   0.964  49.458  1.00  0.00     0.197 C 
BRANCH  22  23
HETATM   23  C15 UNL     1      21.540   2.410  49.029  1.00  0.00     0.194 C 
BRANCH  23  24
HETATM   24  O2  UNL     1      22.801   2.837  49.418  1.00  0.00    -0.387 OA
BRANCH  24  25
HETATM   25  C16 UNL     1      22.778   3.933  50.285  1.00  0.00     0.193 C 
BRANCH  25  26
HETATM   26  C17 UNL     1      23.624   5.067  49.825  1.00  0.00     0.193 C 
BRANCH  26  27
HETATM   27  O3  UNL     1      24.907   4.962  50.310  1.00  0.00    -0.394 OA
HETATM   28  C18 UNL     1      25.865   4.532  49.419  1.00  0.00     0.201 C 
ENDBRANCH  26  27
ENDBRANCH  25  26
ENDBRANCH  24  25
ENDBRANCH  23  24
ENDBRANCH  22  23
ENDBRANCH  21  22
ENDBRANCH  19  21
ENDBRANCH   9  11
ENDBRANCH   7   9
TORSDOF 9
ENDMDL
MODEL 5
REMARK VINA RESULT:      -6.6      2.169      5.700
REMARK  9 active torsions:
REMARK  status: ('A' for Active; 'I' for Inactive)
REMARK    1  A    between atoms: C7_7  and  N1_8 
REMARK    2  A    between atoms: N1_8  and  C8_9 
REMARK    3  A    between atoms: C13_16  and  O1_17 
REMARK    4  A    between atoms: O1_17  and  C14_18 
REMARK    5  A    between atoms: C14_18  and  C15_19 
REMARK    6  A    between atoms: C15_19  and  O2_20 
REMARK    7  A    between atoms: O2_20  and  C16_21 
REMARK    8  A    between atoms: C16_21  and  C17_22 
REMARK    9  A    between atoms: C17_22  and  O3_23 
ROOT
HETATM    1  C1  UNL     1      29.641  -2.458  53.441  1.00  0.00     0.018 C 
HETATM    2  C2  UNL     1      29.096  -1.384  53.383  1.00  0.00    -0.078 C 
HETATM    3  C3  UNL     1      28.438  -0.091  53.336  1.00  0.00     0.019 A 
HETATM    4  C4  UNL     1      29.002   1.051  53.854  1.00  0.00     0.021 A 
HETATM    5  C5  UNL     1      28.335   2.267  53.785  1.00  0.00     0.004 A 
HETATM    6  C6  UNL     1      27.074   2.339  53.184  1.00  0.00     0.029 A 
HETATM    7  C7  UNL     1      26.561   1.162  52.684  1.00  0.00     0.035 A 
HETATM    8  C20 UNL     1      27.181  -0.070  52.727  1.00  0.00     0.050 A 
ENDROOT
BRANCH   7   9
HETATM    9  N1  UNL     1      25.288   1.199  52.070  1.00  0.00    -0.340 N 
HETATM   10  H5  UNL     1      25.091   1.589  51.126  1.00  0.00     0.167 HD
BRANCH   9  11
HETATM   11  C8  UNL     1      24.073   0.717  52.628  1.00  0.00     0.141 A 
HETATM   12  N2  UNL     1      23.912  -0.468  53.242  1.00  0.00    -0.224 NA
HETATM   13  C9  UNL     1      22.714  -0.809  53.727  1.00  0.00     0.236 A 
HETATM   14  N3  UNL     1      21.595  -0.030  53.652  1.00  0.00    -0.239 NA
HETATM   15  C10 UNL     1      21.734   1.163  53.041  1.00  0.00     0.094 A 
HETATM   16  C11 UNL     1      22.967   1.522  52.537  1.00  0.00     0.042 A 
HETATM   17  C19 UNL     1      20.687   1.961  52.937  1.00  0.00     0.171 A 
HETATM   18  C12 UNL     1      22.945   2.715  51.969  1.00  0.00     0.051 A 
HETATM   19  C13 UNL     1      21.860   3.707  51.783  1.00  0.00     0.290 A 
HETATM   20  O4  UNL     1      20.676   3.206  52.342  1.00  0.00    -0.327 OA
BRANCH  19  21
HETATM   21  O1  UNL     1      21.732   4.136  50.495  1.00  0.00    -0.355 OA
BRANCH  21  22
HETATM   22  C14 UNL     1      21.057   5.301  50.276  1.00  0.00     0.197 C 
BRANCH  22  23
HETATM   23  C15 UNL     1      21.653   6.397  51.131  1.00  0.00     0.194 C 
BRANCH  23  24
HETATM   24  O2  UNL     1      22.225   7.309  50.256  1.00  0.00    -0.387 OA
BRANCH  24  25
HETATM   25  C16 UNL     1      23.473   7.780  50.675  1.00  0.00     0.193 C 
BRANCH  25  26
HETATM   26  C17 UNL     1      24.405   6.696  51.086  1.00  0.00     0.193 C 
BRANCH  26  27
HETATM   27  O3  UNL     1      25.046   6.149  49.999  1.00  0.00    -0.394 OA
HETATM   28  C18 UNL     1      25.302   4.797  50.056  1.00  0.00     0.201 C 
ENDBRANCH  26  27
ENDBRANCH  25  26
ENDBRANCH  24  25
ENDBRANCH  23  24
ENDBRANCH  22  23
ENDBRANCH  21  22
ENDBRANCH  19  21
ENDBRANCH   9  11
ENDBRANCH   7   9
TORSDOF 9
ENDMDL
MODEL 6
REMARK VINA RESULT:      -6.5      2.325      5.761
REMARK  9 active torsions:
REMARK  status: ('A' for Active; 'I' for Inactive)
REMARK    1  A    between atoms: C7_7  and  N1_8 
REMARK    2  A    between atoms: N1_8  and  C8_9 
REMARK    3  A    between atoms: C13_16  and  O1_17 
REMARK    4  A    between atoms: O1_17  and  C14_18 
REMARK    5  A    between atoms: C14_18  and  C15_19 
REMARK    6  A    between atoms: C15_19  and  O2_20 
REMARK    7  A    between atoms: O2_20  and  C16_21 
REMARK    8  A    between atoms: C16_21  and  C17_22 
REMARK    9  A    between atoms: C17_22  and  O3_23 
ROOT
HETATM    1  C1  UNL     1      26.273  -1.127  53.061  1.00  0.00     0.018 C 
HETATM    2  C2  UNL     1      25.143  -0.794  53.317  1.00  0.00    -0.078 C 
HETATM    3  C3  UNL     1      23.775  -0.412  53.618  1.00  0.00     0.019 A 
HETATM    4  C4  UNL     1      23.006  -1.070  54.549  1.00  0.00     0.021 A 
HETATM    5  C5  UNL     1      21.702  -0.669  54.804  1.00  0.00     0.004 A 
HETATM    6  C6  UNL     1      21.156   0.416  54.110  1.00  0.00     0.029 A 
HETATM    7  C7  UNL     1      21.975   1.034  53.189  1.00  0.00     0.035 A 
HETATM    8  C20 UNL     1      23.274   0.676  52.899  1.00  0.00     0.050 A 
ENDROOT
BRANCH   7   9
HETATM    9  N1  UNL     1      21.455   2.133  52.469  1.00  0.00    -0.340 N 
HETATM   10  H5  UNL     1      21.263   3.074  52.870  1.00  0.00     0.167 HD
BRANCH   9  11
HETATM   11  C8  UNL     1      21.107   2.145  51.092  1.00  0.00     0.141 A 
HETATM   12  N2  UNL     1      20.177   1.364  50.514  1.00  0.00    -0.224 NA
HETATM   13  C9  UNL     1      19.939   1.470  49.203  1.00  0.00     0.236 A 
HETATM   14  N3  UNL     1      20.582   2.335  48.364  1.00  0.00    -0.239 NA
HETATM   15  C10 UNL     1      21.518   3.128  48.922  1.00  0.00     0.094 A 
HETATM   16  C11 UNL     1      21.769   3.025  50.274  1.00  0.00     0.042 A 
HETATM   17  C19 UNL     1      22.174   3.985  48.161  1.00  0.00     0.171 A 
HETATM   18  C12 UNL     1      22.710   3.864  50.672  1.00  0.00     0.051 A 
HETATM   19  C13 UNL     1      23.519   4.868  49.942  1.00  0.00     0.290 A 
HETATM   20  O4  UNL     1      23.155   4.858  48.588  1.00  0.00    -0.327 OA
BRANCH  19  21
HETATM   21  O1  UNL     1      24.860   4.747  50.160  1.00  0.00    -0.355 OA
BRANCH  21  22
HETATM   22  C14 UNL     1      25.293   3.680  50.892  1.00  0.00     0.197 C 
BRANCH  22  23
HETATM   23  C15 UNL     1      26.543   3.110  50.260  1.00  0.00     0.194 C 
BRANCH  23  24
HETATM   24  O2  UNL     1      27.043   2.176  51.155  1.00  0.00    -0.387 OA
BRANCH  24  25
HETATM   25  C16 UNL     1      26.683   2.425  52.483  1.00  0.00     0.193 C 
BRANCH  25  26
HETATM   26  C17 UNL     1      27.816   2.289  53.438  1.00  0.00     0.193 C 
BRANCH  26  27
HETATM   27  O3  UNL     1      28.793   1.460  52.938  1.00  0.00    -0.394 OA
HETATM   28  C18 UNL     1      29.415   0.631  53.845  1.00  0.00     0.201 C 
ENDBRANCH  26  27
ENDBRANCH  25  26
ENDBRANCH  24  25
ENDBRANCH  23  24
ENDBRANCH  22  23
ENDBRANCH  21  22
ENDBRANCH  19  21
ENDBRANCH   9  11
ENDBRANCH   7   9
TORSDOF 9
ENDMDL
MODEL 7
REMARK VINA RESULT:      -6.5      3.301      5.832
REMARK  9 active torsions:
REMARK  status: ('A' for Active; 'I' for Inactive)
REMARK    1  A    between atoms: C7_7  and  N1_8 
REMARK    2  A    between atoms: N1_8  and  C8_9 
REMARK    3  A    between atoms: C13_16  and  O1_17 
REMARK    4  A    between atoms: O1_17  and  C14_18 
REMARK    5  A    between atoms: C14_18  and  C15_19 
REMARK    6  A    between atoms: C15_19  and  O2_20 
REMARK    7  A    between atoms: O2_20  and  C16_21 
REMARK    8  A    between atoms: C16_21  and  C17_22 
REMARK    9  A    between atoms: C17_22  and  O3_23 
ROOT
HETATM    1  C1  UNL     1      27.092   5.597  48.597  1.00  0.00     0.018 C 
HETATM    2  C2  UNL     1      26.279   5.119  49.347  1.00  0.00    -0.078 C 
HETATM    3  C3  UNL     1      25.307   4.556  50.267  1.00  0.00     0.019 A 
HETATM    4  C4  UNL     1      24.328   5.310  50.869  1.00  0.00     0.021 A 
HETATM    5  C5  UNL     1      23.419   4.727  51.742  1.00  0.00     0.004 A 
HETATM    6  C6  UNL     1      23.495   3.358  52.018  1.00  0.00     0.029 A 
HETATM    7  C7  UNL     1      24.498   2.656  51.385  1.00  0.00     0.035 A 
HETATM    8  C20 UNL     1      25.424   3.185  50.511  1.00  0.00     0.050 A 
ENDROOT
BRANCH   7   9
HETATM    9  N1  UNL     1      24.603   1.270  51.642  1.00  0.00    -0.340 N 
HETATM   10  H5  UNL     1      24.162   0.521  51.070  1.00  0.00     0.167 HD
BRANCH   9  11
HETATM   11  C8  UNL     1      25.319   0.666  52.710  1.00  0.00     0.141 A 
HETATM   12  N2  UNL     1      26.652   0.713  52.882  1.00  0.00    -0.224 NA
HETATM   13  C9  UNL     1      27.210   0.102  53.932  1.00  0.00     0.236 A 
HETATM   14  N3  UNL     1      26.519  -0.591  54.885  1.00  0.00    -0.239 NA
HETATM   15  C10 UNL     1      25.182  -0.650  54.733  1.00  0.00     0.094 A 
HETATM   16  C11 UNL     1      24.598  -0.023  53.652  1.00  0.00     0.042 A 
HETATM   17  C19 UNL     1      24.459  -1.307  55.622  1.00  0.00     0.171 A 
HETATM   18  C12 UNL     1      23.285  -0.169  53.639  1.00  0.00     0.051 A 
HETATM   19  C13 UNL     1      22.354  -0.868  54.557  1.00  0.00     0.290 A 
HETATM   20  O4  UNL     1      23.087  -1.452  55.600  1.00  0.00    -0.327 OA
BRANCH  19  21
HETATM   21  O1  UNL     1      21.506  -1.726  53.921  1.00  0.00    -0.355 OA
BRANCH  21  22
HETATM   22  C14 UNL     1      20.179  -1.410  53.898  1.00  0.00     0.197 C 
BRANCH  22  23
HETATM   23  C15 UNL     1      19.990  -0.079  53.206  1.00  0.00     0.194 C 
BRANCH  23  24
HETATM   24  O2  UNL     1      18.845  -0.198  52.433  1.00  0.00    -0.387 OA
BRANCH  24  25
HETATM   25  C16 UNL     1      17.978  -1.206  52.869  1.00  0.00     0.193 C 
BRANCH  25  26
HETATM   26  C17 UNL     1      16.552  -0.784  52.903  1.00  0.00     0.193 C 
BRANCH  26  27
HETATM   27  O3  UNL     1      16.234  -0.010  51.810  1.00  0.00    -0.394 OA
HETATM   28  C18 UNL     1      15.623   1.196  52.072  1.00  0.00     0.201 C 
ENDBRANCH  26  27
ENDBRANCH  25  26
ENDBRANCH  24  25
ENDBRANCH  23  24
ENDBRANCH  22  23
ENDBRANCH  21  22
ENDBRANCH  19  21
ENDBRANCH   9  11
ENDBRANCH   7   9
TORSDOF 9
ENDMDL
MODEL 8
REMARK VINA RESULT:      -6.5      2.934      5.418
REMARK  9 active torsions:
REMARK  status: ('A' for Active; 'I' for Inactive)
REMARK    1  A    between atoms: C7_7  and  N1_8 
REMARK    2  A    between atoms: N1_8  and  C8_9 
REMARK    3  A    between atoms: C13_16  and  O1_17 
REMARK    4  A    between atoms: O1_17  and  C14_18 
REMARK    5  A    between atoms: C14_18  and  C15_19 
REMARK    6  A    between atoms: C15_19  and  O2_20 
REMARK    7  A    between atoms: O2_20  and  C16_21 
REMARK    8  A    between atoms: C16_21  and  C17_22 
REMARK    9  A    between atoms: C17_22  and  O3_23 
ROOT
HETATM    1  C1  UNL     1      27.229   5.296  48.600  1.00  0.00     0.018 C 
HETATM    2  C2  UNL     1      26.348   4.941  49.342  1.00  0.00    -0.078 C 
HETATM    3  C3  UNL     1      25.297   4.523  50.252  1.00  0.00     0.019 A 
HETATM    4  C4  UNL     1      24.464   5.414  50.888  1.00  0.00     0.021 A 
HETATM    5  C5  UNL     1      23.472   4.968  51.750  1.00  0.00     0.004 A 
HETATM    6  C6  UNL     1      23.311   3.597  51.981  1.00  0.00     0.029 A 
HETATM    7  C7  UNL     1      24.175   2.755  51.315  1.00  0.00     0.035 A 
HETATM    8  C20 UNL     1      25.175   3.145  50.450  1.00  0.00     0.050 A 
ENDROOT
BRANCH   7   9
HETATM    9  N1  UNL     1      24.040   1.363  51.525  1.00  0.00    -0.340 N 
HETATM   10  H5  UNL     1      23.478   0.720  50.930  1.00  0.00     0.167 HD
BRANCH   9  11
HETATM   11  C8  UNL     1      24.638   0.611  52.571  1.00  0.00     0.141 A 
HETATM   12  N2  UNL     1      25.960   0.439  52.752  1.00  0.00    -0.224 NA
HETATM   13  C9  UNL     1      26.402  -0.295  53.778  1.00  0.00     0.236 A 
HETATM   14  N3  UNL     1      25.599  -0.910  54.696  1.00  0.00    -0.239 NA
HETATM   15  C10 UNL     1      24.271  -0.751  54.534  1.00  0.00     0.094 A 
HETATM   16  C11 UNL     1      23.807   0.005  53.478  1.00  0.00     0.042 A 
HETATM   17  C19 UNL     1      23.443  -1.322  55.391  1.00  0.00     0.171 A 
HETATM   18  C12 UNL     1      22.487   0.068  53.452  1.00  0.00     0.051 A 
HETATM   19  C13 UNL     1      21.447  -0.512  54.333  1.00  0.00     0.290 A 
HETATM   20  O4  UNL     1      22.065  -1.248  55.354  1.00  0.00    -0.327 OA
BRANCH  19  21
HETATM   21  O1  UNL     1      20.483  -1.199  53.656  1.00  0.00    -0.355 OA
BRANCH  21  22
HETATM   22  C14 UNL     1      19.262  -0.606  53.512  1.00  0.00     0.197 C 
BRANCH  22  23
HETATM   23  C15 UNL     1      19.072  -0.188  52.071  1.00  0.00     0.194 C 
BRANCH  23  24
HETATM   24  O2  UNL     1      19.363   1.167  52.014  1.00  0.00    -0.387 OA
BRANCH  24  25
HETATM   25  C16 UNL     1      18.451   1.903  51.252  1.00  0.00     0.193 C 
BRANCH  25  26
HETATM   26  C17 UNL     1      18.572   1.659  49.789  1.00  0.00     0.193 C 
BRANCH  26  27
HETATM   27  O3  UNL     1      18.934   2.806  49.120  1.00  0.00    -0.394 OA
HETATM   28  C18 UNL     1      18.230   3.092  47.972  1.00  0.00     0.201 C 
ENDBRANCH  26  27
ENDBRANCH  25  26
ENDBRANCH  24  25
ENDBRANCH  23  24
ENDBRANCH  22  23
ENDBRANCH  21  22
ENDBRANCH  19  21
ENDBRANCH   9  11
ENDBRANCH   7   9
TORSDOF 9
ENDMDL
MODEL 9
REMARK VINA RESULT:      -6.4      2.234      3.266
REMARK  9 active torsions:
REMARK  status: ('A' for Active; 'I' for Inactive)
REMARK    1  A    between atoms: C7_7  and  N1_8 
REMARK    2  A    between atoms: N1_8  and  C8_9 
REMARK    3  A    between atoms: C13_16  and  O1_17 
REMARK    4  A    between atoms: O1_17  and  C14_18 
REMARK    5  A    between atoms: C14_18  and  C15_19 
REMARK    6  A    between atoms: C15_19  and  O2_20 
REMARK    7  A    between atoms: O2_20  and  C16_21 
REMARK    8  A    between atoms: C16_21  and  C17_22 
REMARK    9  A    between atoms: C17_22  and  O3_23 
ROOT
HETATM    1  C1  UNL     1      20.273   1.555  49.398  1.00  0.00     0.018 C 
HETATM    2  C2  UNL     1      20.656   1.147  50.466  1.00  0.00    -0.078 C 
HETATM    3  C3  UNL     1      21.115   0.677  51.761  1.00  0.00     0.019 A 
HETATM    4  C4  UNL     1      20.339   0.740  52.895  1.00  0.00     0.021 A 
HETATM    5  C5  UNL     1      20.820   0.277  54.111  1.00  0.00     0.004 A 
HETATM    6  C6  UNL     1      22.109  -0.261  54.194  1.00  0.00     0.029 A 
HETATM    7  C7  UNL     1      22.839  -0.296  53.024  1.00  0.00     0.035 A 
HETATM    8  C20 UNL     1      22.408   0.149  51.793  1.00  0.00     0.050 A 
ENDROOT
BRANCH   7   9
HETATM    9  N1  UNL     1      24.145  -0.833  53.072  1.00  0.00    -0.340 N 
HETATM   10  H5  UNL     1      24.453  -1.702  52.589  1.00  0.00     0.167 HD
BRANCH   9  11
HETATM   11  C8  UNL     1      25.251  -0.288  53.778  1.00  0.00     0.141 A 
HETATM   12  N2  UNL     1      25.625  -0.627  55.025  1.00  0.00    -0.224 NA
HETATM   13  C9  UNL     1      26.689  -0.039  55.584  1.00  0.00     0.236 A 
HETATM   14  N3  UNL     1      27.460   0.910  54.977  1.00  0.00    -0.239 NA
HETATM   15  C10 UNL     1      27.103   1.265  53.727  1.00  0.00     0.094 A 
HETATM   16  C11 UNL     1      26.007   0.665  53.144  1.00  0.00     0.042 A 
HETATM   17  C19 UNL     1      27.810   2.179  53.088  1.00  0.00     0.171 A 
HETATM   18  C12 UNL     1      25.783   1.114  51.921  1.00  0.00     0.051 A 
HETATM   19  C13 UNL     1      26.483   2.122  51.090  1.00  0.00     0.290 A 
HETATM   20  O4  UNL     1      27.568   2.641  51.810  1.00  0.00    -0.327 OA
BRANCH  19  21
HETATM   21  O1  UNL     1      25.652   3.070  50.571  1.00  0.00    -0.355 OA
BRANCH  21  22
HETATM   22  C14 UNL     1      26.220   4.161  49.980  1.00  0.00     0.197 C 
BRANCH  22  23
HETATM   23  C15 UNL     1      25.254   5.323  50.032  1.00  0.00     0.194 C 
BRANCH  23  24
HETATM   24  O2  UNL     1      25.834   6.347  49.298  1.00  0.00    -0.387 OA
BRANCH  24  25
HETATM   25  C16 UNL     1      25.471   7.624  49.737  1.00  0.00     0.193 C 
BRANCH  25  26
HETATM   26  C17 UNL     1      26.624   8.433  50.216  1.00  0.00     0.193 C 
BRANCH  26  27
HETATM   27  O3  UNL     1      26.493   9.754  49.852  1.00  0.00    -0.394 OA
HETATM   28  C18 UNL     1      25.783  10.002  48.698  1.00  0.00     0.201 C 
ENDBRANCH  26  27
ENDBRANCH  25  26
ENDBRANCH  24  25
ENDBRANCH  23  24
ENDBRANCH  22  23
ENDBRANCH  21  22
ENDBRANCH  19  21
ENDBRANCH   9  11
ENDBRANCH   7   9
TORSDOF 9
ENDMDL
