MODEL 1
REMARK VINA RESULT:      -8.2      0.000      0.000
REMARK  9 active torsions:
REMARK  status: ('A' for Active; 'I' for Inactive)
REMARK    1  A    between atoms: C2_2  and  C3_3 
REMARK    2  A    between atoms: C3_3  and  O1_4 
REMARK    3  A    between atoms: O1_4  and  C4_5 
REMARK    4  A    between atoms: C7_8  and  C8_9 
REMARK    5  A    between atoms: C8_9  and  O2_10 
REMARK    6  A    between atoms: O2_10  and  C9_11 
REMARK    7  A    between atoms: C11_13  and  C12_14 
REMARK    8  A    between atoms: C15_18  and  N2_19 
REMARK    9  A    between atoms: C16_21  and  N4_22 
ROOT
HETATM    1  C9  UNL     1      25.586   2.965  51.727  1.00  0.00     0.066 A 
HETATM    2  C10 UNL     1      26.807   2.433  51.952  1.00  0.00     0.023 A 
HETATM    3  C11 UNL     1      26.944   1.885  53.363  1.00  0.00     0.072 A 
HETATM    4  C17 UNL     1      25.620   2.194  53.896  1.00  0.00    -0.010 A 
HETATM    5  C18 UNL     1      24.833   2.805  52.984  1.00  0.00     0.033 A 
ENDROOT
BRANCH   3   6
HETATM    6  C12 UNL     1      27.248   0.452  53.291  1.00  0.00     0.024 A 
HETATM    7  C13 UNL     1      26.551  -0.720  53.160  1.00  0.00     0.060 A 
HETATM    8  C14 UNL     1      25.094  -0.537  53.036  1.00  0.00     0.072 C 
HETATM    9  N1  UNL     1      27.116  -1.925  53.148  1.00  0.00    -0.068 NA
HETATM   10  C15 UNL     1      28.433  -2.130  53.262  1.00  0.00     0.722 A 
HETATM   11  N3  UNL     1      29.180  -1.032  53.394  1.00  0.00    -0.045 NA
HETATM   12  C16 UNL     1      28.621   0.193  53.409  1.00  0.00     0.149 A 
BRANCH  10  13
HETATM   13  N2  UNL     1      28.814  -3.490  53.223  1.00  0.00    -0.231 N 
HETATM   14  H17 UNL     1      29.806  -3.465  53.562  1.00  0.00     0.174 HD
HETATM   15  H18 UNL     1      28.209  -4.285  52.922  1.00  0.00     0.174 HD
ENDBRANCH  10  13
BRANCH  12  16
HETATM   16  N4  UNL     1      29.723   1.111  53.585  1.00  0.00    -0.383 N 
HETATM   17  H19 UNL     1      29.696   1.915  54.247  1.00  0.00     0.157 HD
HETATM   18  H20 UNL     1      30.452   0.755  52.923  1.00  0.00     0.157 HD
ENDBRANCH  12  16
ENDBRANCH   3   6
BRANCH   1  19
HETATM   19  O2  UNL     1      25.008   3.579  50.587  1.00  0.00    -0.347 OA
BRANCH  19  20
HETATM   20  C8  UNL     1      25.812   3.505  49.399  1.00  0.00     0.214 C 
BRANCH  20  21
HETATM   21  C7  UNL     1      26.452   4.795  49.111  1.00  0.00    -0.034 A 
HETATM   22  C6  UNL     1      27.728   4.725  48.594  1.00  0.00     0.012 A 
HETATM   23  C5  UNL     1      28.454   5.874  48.274  1.00  0.00     0.037 A 
HETATM   24  C4  UNL     1      27.862   7.124  48.487  1.00  0.00     0.068 A 
HETATM   25  C20 UNL     1      26.580   7.152  49.006  1.00  0.00     0.037 A 
HETATM   26  C19 UNL     1      25.858   6.022  49.325  1.00  0.00     0.012 A 
BRANCH  24  27
HETATM   27  O1  UNL     1      28.626   8.212  48.153  1.00  0.00    -0.351 OA
BRANCH  27  28
HETATM   28  C3  UNL     1      28.923   9.170  49.153  1.00  0.00     0.175 C 
BRANCH  28  29
HETATM   29  C2  UNL     1      30.417   9.144  49.419  1.00  0.00     0.022 C 
HETATM   30  C1  UNL     1      31.177   8.952  48.123  1.00  0.00     0.007 C 
ENDBRANCH  28  29
ENDBRANCH  27  28
ENDBRANCH  24  27
ENDBRANCH  20  21
ENDBRANCH  19  20
ENDBRANCH   1  19
TORSDOF 9
ENDMDL
MODEL 2
REMARK VINA RESULT:      -8.1      3.845      6.887
REMARK  9 active torsions:
REMARK  status: ('A' for Active; 'I' for Inactive)
REMARK    1  A    between atoms: C2_2  and  C3_3 
REMARK    2  A    between atoms: C3_3  and  O1_4 
REMARK    3  A    between atoms: O1_4  and  C4_5 
REMARK    4  A    between atoms: C7_8  and  C8_9 
REMARK    5  A    between atoms: C8_9  and  O2_10 
REMARK    6  A    between atoms: O2_10  and  C9_11 
REMARK    7  A    between atoms: C11_13  and  C12_14 
REMARK    8  A    between atoms: C15_18  and  N2_19 
REMARK    9  A    between atoms: C16_21  and  N4_22 
ROOT
HETATM    1  C9  UNL     1      25.282   2.899  51.625  1.00  0.00     0.066 A 
HETATM    2  C10 UNL     1      26.525   2.372  51.661  1.00  0.00     0.023 A 
HETATM    3  C11 UNL     1      26.938   1.968  53.067  1.00  0.00     0.072 A 
HETATM    4  C17 UNL     1      25.744   2.354  53.814  1.00  0.00    -0.010 A 
HETATM    5  C18 UNL     1      24.791   2.882  53.015  1.00  0.00     0.033 A 
ENDROOT
BRANCH   3   6
HETATM    6  C12 UNL     1      27.225   0.530  53.086  1.00  0.00     0.024 A 
HETATM    7  C13 UNL     1      26.518  -0.640  53.000  1.00  0.00     0.060 A 
HETATM    8  C14 UNL     1      25.068  -0.447  52.821  1.00  0.00     0.072 C 
HETATM    9  N1  UNL     1      27.068  -1.849  53.074  1.00  0.00    -0.068 NA
HETATM   10  C15 UNL     1      28.377  -2.063  53.240  1.00  0.00     0.722 A 
HETATM   11  N3  UNL     1      29.134  -0.967  53.333  1.00  0.00    -0.045 NA
HETATM   12  C16 UNL     1      28.591   0.263  53.261  1.00  0.00     0.149 A 
BRANCH  10  13
HETATM   13  N2  UNL     1      28.742  -3.427  53.291  1.00  0.00    -0.231 N 
HETATM   14  H17 UNL     1      28.301  -3.818  52.423  1.00  0.00     0.174 HD
HETATM   15  H18 UNL     1      29.314  -3.879  54.037  1.00  0.00     0.174 HD
ENDBRANCH  10  13
BRANCH  12  16
HETATM   16  N4  UNL     1      29.698   1.177  53.418  1.00  0.00    -0.383 N 
HETATM   17  H19 UNL     1      30.629   1.031  52.970  1.00  0.00     0.157 HD
HETATM   18  H20 UNL     1      29.316   1.927  54.040  1.00  0.00     0.157 HD
ENDBRANCH  12  16
ENDBRANCH   3   6
BRANCH   1  19
HETATM   19  O2  UNL     1      24.490   3.404  50.562  1.00  0.00    -0.347 OA
BRANCH  19  20
HETATM   20  C8  UNL     1      23.186   3.859  50.955  1.00  0.00     0.214 C 
BRANCH  20  21
HETATM   21  C7  UNL     1      22.285   2.727  51.211  1.00  0.00    -0.034 A 
HETATM   22  C6  UNL     1      21.375   2.909  52.231  1.00  0.00     0.012 A 
HETATM   23  C5  UNL     1      20.458   1.916  52.582  1.00  0.00     0.037 A 
HETATM   24  C4  UNL     1      20.471   0.709  51.873  1.00  0.00     0.068 A 
HETATM   25  C20 UNL     1      21.399   0.566  50.857  1.00  0.00     0.037 A 
HETATM   26  C19 UNL     1      22.307   1.542  50.506  1.00  0.00     0.012 A 
BRANCH  24  27
HETATM   27  O1  UNL     1      19.548  -0.224  52.266  1.00  0.00    -0.351 OA
BRANCH  27  28
HETATM   28  C3  UNL     1      19.582  -0.700  53.599  1.00  0.00     0.175 C 
BRANCH  28  29
HETATM   29  C2  UNL     1      20.890  -1.437  53.817  1.00  0.00     0.022 C 
HETATM   30  C1  UNL     1      21.703  -0.754  54.898  1.00  0.00     0.007 C 
ENDBRANCH  28  29
ENDBRANCH  27  28
ENDBRANCH  24  27
ENDBRANCH  20  21
ENDBRANCH  19  20
ENDBRANCH   1  19
TORSDOF 9
ENDMDL
MODEL 3
REMARK VINA RESULT:      -8.0      3.922      7.847
REMARK  9 active torsions:
REMARK  status: ('A' for Active; 'I' for Inactive)
REMARK    1  A    between atoms: C2_2  and  C3_3 
REMARK    2  A    between atoms: C3_3  and  O1_4 
REMARK    3  A    between atoms: O1_4  and  C4_5 
REMARK    4  A    between atoms: C7_8  and  C8_9 
REMARK    5  A    between atoms: C8_9  and  O2_10 
REMARK    6  A    between atoms: O2_10  and  C9_11 
REMARK    7  A    between atoms: C11_13  and  C12_14 
REMARK    8  A    between atoms: C15_18  and  N2_19 
REMARK    9  A    between atoms: C16_21  and  N4_22 
ROOT
HETATM    1  C9  UNL     1      23.582   3.607  50.557  1.00  0.00     0.066 A 
HETATM    2  C10 UNL     1      24.060   3.951  49.341  1.00  0.00     0.023 A 
HETATM    3  C11 UNL     1      24.543   5.391  49.299  1.00  0.00     0.072 A 
HETATM    4  C17 UNL     1      24.258   5.805  50.670  1.00  0.00    -0.010 A 
HETATM    5  C18 UNL     1      23.715   4.808  51.402  1.00  0.00     0.033 A 
ENDROOT
BRANCH   3   6
HETATM    6  C12 UNL     1      25.966   5.408  48.945  1.00  0.00     0.024 A 
HETATM    7  C13 UNL     1      27.035   4.557  49.031  1.00  0.00     0.060 A 
HETATM    8  C14 UNL     1      26.707   3.246  49.619  1.00  0.00     0.072 C 
HETATM    9  N1  UNL     1      28.267   4.866  48.633  1.00  0.00    -0.068 NA
HETATM   10  C15 UNL     1      28.602   6.046  48.100  1.00  0.00     0.722 A 
HETATM   11  N3  UNL     1      27.610   6.931  47.984  1.00  0.00    -0.045 NA
HETATM   12  C16 UNL     1      26.360   6.632  48.384  1.00  0.00     0.149 A 
BRANCH  10  13
HETATM   13  N2  UNL     1      29.966   6.157  47.748  1.00  0.00    -0.231 N 
HETATM   14  H17 UNL     1      29.944   6.822  46.937  1.00  0.00     0.174 HD
HETATM   15  H18 UNL     1      30.760   5.670  48.218  1.00  0.00     0.174 HD
ENDBRANCH  10  13
BRANCH  12  16
HETATM   16  N4  UNL     1      25.582   7.821  48.122  1.00  0.00    -0.383 N 
HETATM   17  H19 UNL     1      25.074   7.986  47.227  1.00  0.00     0.157 HD
HETATM   18  H20 UNL     1      25.683   8.382  49.000  1.00  0.00     0.157 HD
ENDBRANCH  12  16
ENDBRANCH   3   6
BRANCH   1  19
HETATM   19  O2  UNL     1      23.038   2.398  51.061  1.00  0.00    -0.347 OA
BRANCH  19  20
HETATM   20  C8  UNL     1      22.988   2.319  52.493  1.00  0.00     0.214 C 
BRANCH  20  21
HETATM   21  C7  UNL     1      24.072   1.475  53.016  1.00  0.00    -0.034 A 
HETATM   22  C6  UNL     1      25.183   2.149  53.476  1.00  0.00     0.012 A 
HETATM   23  C5  UNL     1      26.286   1.472  54.000  1.00  0.00     0.037 A 
HETATM   24  C4  UNL     1      26.253   0.074  54.055  1.00  0.00     0.068 A 
HETATM   25  C20 UNL     1      25.119  -0.564  53.584  1.00  0.00     0.037 A 
HETATM   26  C19 UNL     1      24.028   0.097  53.065  1.00  0.00     0.012 A 
BRANCH  24  27
HETATM   27  O1  UNL     1      27.366  -0.531  54.578  1.00  0.00    -0.351 OA
BRANCH  27  28
HETATM   28  C3  UNL     1      28.536   0.242  54.772  1.00  0.00     0.175 C 
BRANCH  28  29
HETATM   29  C2  UNL     1      29.551  -0.143  53.712  1.00  0.00     0.022 C 
HETATM   30  C1  UNL     1      29.435  -1.617  53.386  1.00  0.00     0.007 C 
ENDBRANCH  28  29
ENDBRANCH  27  28
ENDBRANCH  24  27
ENDBRANCH  20  21
ENDBRANCH  19  20
ENDBRANCH   1  19
TORSDOF 9
ENDMDL
MODEL 4
REMARK VINA RESULT:      -7.8      3.146      5.000
REMARK  9 active torsions:
REMARK  status: ('A' for Active; 'I' for Inactive)
REMARK    1  A    between atoms: C2_2  and  C3_3 
REMARK    2  A    between atoms: C3_3  and  O1_4 
REMARK    3  A    between atoms: O1_4  and  C4_5 
REMARK    4  A    between atoms: C7_8  and  C8_9 
REMARK    5  A    between atoms: C8_9  and  O2_10 
REMARK    6  A    between atoms: O2_10  and  C9_11 
REMARK    7  A    between atoms: C11_13  and  C12_14 
REMARK    8  A    between atoms: C15_18  and  N2_19 
REMARK    9  A    between atoms: C16_21  and  N4_22 
ROOT
HETATM    1  C9  UNL     1      20.794   1.417  52.831  1.00  0.00     0.066 A 
HETATM    2  C10 UNL     1      21.489   0.888  53.862  1.00  0.00     0.023 A 
HETATM    3  C11 UNL     1      22.232  -0.376  53.465  1.00  0.00     0.072 A 
HETATM    4  C17 UNL     1      21.845  -0.481  52.061  1.00  0.00    -0.010 A 
HETATM    5  C18 UNL     1      21.031   0.528  51.680  1.00  0.00     0.033 A 
ENDROOT
BRANCH   3   6
HETATM    6  C12 UNL     1      23.668  -0.175  53.684  1.00  0.00     0.024 A 
HETATM    7  C13 UNL     1      24.696   0.492  53.072  1.00  0.00     0.060 A 
HETATM    8  C14 UNL     1      24.288   1.242  51.871  1.00  0.00     0.072 C 
HETATM    9  N1  UNL     1      25.955   0.476  53.503  1.00  0.00    -0.068 NA
HETATM   10  C15 UNL     1      26.363  -0.196  54.585  1.00  0.00     0.722 A 
HETATM   11  N3  UNL     1      25.414  -0.873  55.236  1.00  0.00    -0.045 NA
HETATM   12  C16 UNL     1      24.137  -0.865  54.811  1.00  0.00     0.149 A 
BRANCH  10  13
HETATM   13  N2  UNL     1      27.743  -0.073  54.859  1.00  0.00    -0.231 N 
HETATM   14  H17 UNL     1      27.854   0.953  55.045  1.00  0.00     0.174 HD
HETATM   15  H18 UNL     1      28.437  -0.852  54.861  1.00  0.00     0.174 HD
ENDBRANCH  10  13
BRANCH  12  16
HETATM   16  N4  UNL     1      23.423  -1.710  55.740  1.00  0.00    -0.383 N 
HETATM   17  H19 UNL     1      23.643  -2.720  55.881  1.00  0.00     0.157 HD
HETATM   18  H20 UNL     1      22.713  -1.069  56.165  1.00  0.00     0.157 HD
ENDBRANCH  12  16
ENDBRANCH   3   6
BRANCH   1  19
HETATM   19  O2  UNL     1      19.971   2.567  52.726  1.00  0.00    -0.347 OA
BRANCH  19  20
HETATM   20  C8  UNL     1      20.071   3.259  51.473  1.00  0.00     0.214 C 
BRANCH  20  21
HETATM   21  C7  UNL     1      21.381   3.909  51.329  1.00  0.00    -0.034 A 
HETATM   22  C6  UNL     1      21.995   3.747  50.106  1.00  0.00     0.012 A 
HETATM   23  C5  UNL     1      23.243   4.311  49.831  1.00  0.00     0.037 A 
HETATM   24  C4  UNL     1      23.878   5.057  50.830  1.00  0.00     0.068 A 
HETATM   25  C20 UNL     1      23.228   5.196  52.044  1.00  0.00     0.037 A 
HETATM   26  C19 UNL     1      21.997   4.642  52.322  1.00  0.00     0.012 A 
BRANCH  24  27
HETATM   27  O1  UNL     1      25.100   5.582  50.499  1.00  0.00    -0.351 OA
BRANCH  27  28
HETATM   28  C3  UNL     1      25.392   5.824  49.135  1.00  0.00     0.175 C 
BRANCH  28  29
HETATM   29  C2  UNL     1      26.773   5.273  48.832  1.00  0.00     0.022 C 
HETATM   30  C1  UNL     1      26.892   3.850  49.340  1.00  0.00     0.007 C 
ENDBRANCH  28  29
ENDBRANCH  27  28
ENDBRANCH  24  27
ENDBRANCH  20  21
ENDBRANCH  19  20
ENDBRANCH   1  19
TORSDOF 9
ENDMDL
MODEL 5
REMARK VINA RESULT:      -7.7      1.178      1.642
REMARK  9 active torsions:
REMARK  status: ('A' for Active; 'I' for Inactive)
REMARK    1  A    between atoms: C2_2  and  C3_3 
REMARK    2  A    between atoms: C3_3  and  O1_4 
REMARK    3  A    between atoms: O1_4  and  C4_5 
REMARK    4  A    between atoms: C7_8  and  C8_9 
REMARK    5  A    between atoms: C8_9  and  O2_10 
REMARK    6  A    between atoms: O2_10  and  C9_11 
REMARK    7  A    between atoms: C11_13  and  C12_14 
REMARK    8  A    between atoms: C15_18  and  N2_19 
REMARK    9  A    between atoms: C16_21  and  N4_22 
ROOT
HETATM    1  C9  UNL     1      25.232   2.930  51.886  1.00  0.00     0.066 A 
HETATM    2  C10 UNL     1      26.483   2.419  51.916  1.00  0.00     0.023 A 
HETATM    3  C11 UNL     1      26.873   1.933  53.302  1.00  0.00     0.072 A 
HETATM    4  C17 UNL     1      25.657   2.254  54.046  1.00  0.00    -0.010 A 
HETATM    5  C18 UNL     1      24.713   2.818  53.261  1.00  0.00     0.033 A 
ENDROOT
BRANCH   3   6
HETATM    6  C12 UNL     1      27.182   0.501  53.236  1.00  0.00     0.024 A 
HETATM    7  C13 UNL     1      26.490  -0.674  53.117  1.00  0.00     0.060 A 
HETATM    8  C14 UNL     1      25.031  -0.498  53.001  1.00  0.00     0.072 C 
HETATM    9  N1  UNL     1      27.060  -1.877  53.108  1.00  0.00    -0.068 NA
HETATM   10  C15 UNL     1      28.378  -2.076  53.215  1.00  0.00     0.722 A 
HETATM   11  N3  UNL     1      29.121  -0.974  53.336  1.00  0.00    -0.045 NA
HETATM   12  C16 UNL     1      28.557   0.249  53.347  1.00  0.00     0.149 A 
BRANCH  10  13
HETATM   13  N2  UNL     1      28.764  -3.435  53.182  1.00  0.00    -0.231 N 
HETATM   14  H17 UNL     1      28.632  -3.739  54.177  1.00  0.00     0.174 HD
HETATM   15  H18 UNL     1      29.093  -3.956  52.340  1.00  0.00     0.174 HD
ENDBRANCH  10  13
BRANCH  12  16
HETATM   16  N4  UNL     1      29.656   1.172  53.510  1.00  0.00    -0.383 N 
HETATM   17  H19 UNL     1      30.316   1.418  52.741  1.00  0.00     0.157 HD
HETATM   18  H20 UNL     1      29.583   1.472  54.511  1.00  0.00     0.157 HD
ENDBRANCH  12  16
ENDBRANCH   3   6
BRANCH   1  19
HETATM   19  O2  UNL     1      24.455   3.490  50.841  1.00  0.00    -0.347 OA
BRANCH  19  20
HETATM   20  C8  UNL     1      24.992   3.286  49.525  1.00  0.00     0.214 C 
BRANCH  20  21
HETATM   21  C7  UNL     1      25.833   4.419  49.114  1.00  0.00    -0.034 A 
HETATM   22  C6  UNL     1      25.170   5.612  48.916  1.00  0.00     0.012 A 
HETATM   23  C5  UNL     1      25.845   6.770  48.525  1.00  0.00     0.037 A 
HETATM   24  C4  UNL     1      27.230   6.707  48.332  1.00  0.00     0.068 A 
HETATM   25  C20 UNL     1      27.858   5.492  48.542  1.00  0.00     0.037 A 
HETATM   26  C19 UNL     1      27.198   4.346  48.928  1.00  0.00     0.012 A 
BRANCH  24  27
HETATM   27  O1  UNL     1      27.834   7.876  47.948  1.00  0.00    -0.351 OA
BRANCH  27  28
HETATM   28  C3  UNL     1      27.268   9.106  48.363  1.00  0.00     0.175 C 
BRANCH  28  29
HETATM   29  C2  UNL     1      27.278  10.065  47.188  1.00  0.00     0.022 C 
HETATM   30  C1  UNL     1      26.925   9.331  45.910  1.00  0.00     0.007 C 
ENDBRANCH  28  29
ENDBRANCH  27  28
ENDBRANCH  24  27
ENDBRANCH  20  21
ENDBRANCH  19  20
ENDBRANCH   1  19
TORSDOF 9
ENDMDL
MODEL 6
REMARK VINA RESULT:      -7.7      1.770      2.671
REMARK  9 active torsions:
REMARK  status: ('A' for Active; 'I' for Inactive)
REMARK    1  A    between atoms: C2_2  and  C3_3 
REMARK    2  A    between atoms: C3_3  and  O1_4 
REMARK    3  A    between atoms: O1_4  and  C4_5 
REMARK    4  A    between atoms: C7_8  and  C8_9 
REMARK    5  A    between atoms: C8_9  and  O2_10 
REMARK    6  A    between atoms: O2_10  and  C9_11 
REMARK    7  A    between atoms: C11_13  and  C12_14 
REMARK    8  A    between atoms: C15_18  and  N2_19 
REMARK    9  A    between atoms: C16_21  and  N4_22 
ROOT
HETATM    1  C9  UNL     1      23.707   3.183  52.356  1.00  0.00     0.066 A 
HETATM    2  C10 UNL     1      24.470   2.811  53.407  1.00  0.00     0.023 A 
HETATM    3  C11 UNL     1      24.791   1.326  53.387  1.00  0.00     0.072 A 
HETATM    4  C17 UNL     1      24.089   0.920  52.172  1.00  0.00    -0.010 A 
HETATM    5  C18 UNL     1      23.470   1.959  51.570  1.00  0.00     0.033 A 
ENDROOT
BRANCH   3   6
HETATM    6  C12 UNL     1      26.246   1.152  53.332  1.00  0.00     0.024 A 
HETATM    7  C13 UNL     1      27.286   1.608  52.567  1.00  0.00     0.060 A 
HETATM    8  C14 UNL     1      26.880   2.548  51.507  1.00  0.00     0.072 C 
HETATM    9  N1  UNL     1      28.555   1.245  52.743  1.00  0.00    -0.068 NA
HETATM   10  C15 UNL     1      28.960   0.392  53.689  1.00  0.00     0.722 A 
HETATM   11  N3  UNL     1      28.000  -0.097  54.477  1.00  0.00    -0.045 NA
HETATM   12  C16 UNL     1      26.713   0.261  54.309  1.00  0.00     0.149 A 
BRANCH  10  13
HETATM   13  N2  UNL     1      30.352   0.150  53.695  1.00  0.00    -0.231 N 
HETATM   14  H17 UNL     1      30.650   0.477  52.744  1.00  0.00     0.174 HD
HETATM   15  H18 UNL     1      30.898  -0.259  54.485  1.00  0.00     0.174 HD
ENDBRANCH  10  13
BRANCH  12  16
HETATM   16  N4  UNL     1      25.981  -0.473  55.315  1.00  0.00    -0.383 N 
HETATM   17  H19 UNL     1      25.546  -0.022  56.149  1.00  0.00     0.157 HD
HETATM   18  H20 UNL     1      26.023  -1.464  54.981  1.00  0.00     0.157 HD
ENDBRANCH  12  16
ENDBRANCH   3   6
BRANCH   1  19
HETATM   19  O2  UNL     1      23.174   4.436  51.961  1.00  0.00    -0.347 OA
BRANCH  19  20
HETATM   20  C8  UNL     1      23.206   4.679  50.546  1.00  0.00     0.214 C 
BRANCH  20  21
HETATM   21  C7  UNL     1      24.348   5.527  50.180  1.00  0.00    -0.034 A 
HETATM   22  C6  UNL     1      25.198   5.003  49.230  1.00  0.00     0.012 A 
HETATM   23  C5  UNL     1      26.323   5.702  48.787  1.00  0.00     0.037 A 
HETATM   24  C4  UNL     1      26.585   6.966  49.328  1.00  0.00     0.068 A 
HETATM   25  C20 UNL     1      25.707   7.457  50.278  1.00  0.00     0.037 A 
HETATM   26  C19 UNL     1      24.595   6.772  50.719  1.00  0.00     0.012 A 
BRANCH  24  27
HETATM   27  O1  UNL     1      27.704   7.600  48.854  1.00  0.00    -0.351 OA
BRANCH  27  28
HETATM   28  C3  UNL     1      28.395   7.034  47.755  1.00  0.00     0.175 C 
BRANCH  28  29
HETATM   29  C2  UNL     1      29.834   6.785  48.166  1.00  0.00     0.022 C 
HETATM   30  C1  UNL     1      30.227   5.355  47.856  1.00  0.00     0.007 C 
ENDBRANCH  28  29
ENDBRANCH  27  28
ENDBRANCH  24  27
ENDBRANCH  20  21
ENDBRANCH  19  20
ENDBRANCH   1  19
TORSDOF 9
ENDMDL
MODEL 7
REMARK VINA RESULT:      -7.6      2.546      3.602
REMARK  9 active torsions:
REMARK  status: ('A' for Active; 'I' for Inactive)
REMARK    1  A    between atoms: C2_2  and  C3_3 
REMARK    2  A    between atoms: C3_3  and  O1_4 
REMARK    3  A    between atoms: O1_4  and  C4_5 
REMARK    4  A    between atoms: C7_8  and  C8_9 
REMARK    5  A    between atoms: C8_9  and  O2_10 
REMARK    6  A    between atoms: O2_10  and  C9_11 
REMARK    7  A    between atoms: C11_13  and  C12_14 
REMARK    8  A    between atoms: C15_18  and  N2_19 
REMARK    9  A    between atoms: C16_21  and  N4_22 
ROOT
HETATM    1  C9  UNL     1      26.757   1.727  52.211  1.00  0.00     0.066 A 
HETATM    2  C10 UNL     1      26.179   0.507  52.232  1.00  0.00     0.023 A 
HETATM    3  C11 UNL     1      25.826   0.062  53.642  1.00  0.00     0.072 A 
HETATM    4  C17 UNL     1      26.299   1.212  54.408  1.00  0.00    -0.010 A 
HETATM    5  C18 UNL     1      26.829   2.170  53.615  1.00  0.00     0.033 A 
ENDROOT
BRANCH   3   6
HETATM    6  C12 UNL     1      24.380  -0.166  53.723  1.00  0.00     0.024 A 
HETATM    7  C13 UNL     1      23.259   0.221  53.037  1.00  0.00     0.060 A 
HETATM    8  C14 UNL     1      23.539   1.090  51.880  1.00  0.00     0.072 C 
HETATM    9  N1  UNL     1      22.022  -0.140  53.369  1.00  0.00    -0.068 NA
HETATM   10  C15 UNL     1      21.729  -0.923  54.413  1.00  0.00     0.722 A 
HETATM   11  N3  UNL     1      22.773  -1.340  55.133  1.00  0.00    -0.045 NA
HETATM   12  C16 UNL     1      24.030  -0.982  54.809  1.00  0.00     0.149 A 
BRANCH  10  13
HETATM   13  N2  UNL     1      20.350  -1.178  54.579  1.00  0.00    -0.231 N 
HETATM   14  H17 UNL     1      20.302  -1.589  55.542  1.00  0.00     0.174 HD
HETATM   15  H18 UNL     1      19.604  -0.982  53.876  1.00  0.00     0.174 HD
ENDBRANCH  10  13
BRANCH  12  16
HETATM   16  N4  UNL     1      24.870  -1.598  55.810  1.00  0.00    -0.383 N 
HETATM   17  H19 UNL     1      25.708  -2.174  55.578  1.00  0.00     0.157 HD
HETATM   18  H20 UNL     1      24.426  -1.317  56.715  1.00  0.00     0.157 HD
ENDBRANCH  12  16
ENDBRANCH   3   6
BRANCH   1  19
HETATM   19  O2  UNL     1      27.243   2.534  51.151  1.00  0.00    -0.347 OA
BRANCH  19  20
HETATM   20  C8  UNL     1      26.290   2.785  50.108  1.00  0.00     0.214 C 
BRANCH  20  21
HETATM   21  C7  UNL     1      26.307   4.197  49.702  1.00  0.00    -0.034 A 
HETATM   22  C6  UNL     1      27.364   4.574  48.901  1.00  0.00     0.012 A 
HETATM   23  C5  UNL     1      27.505   5.885  48.441  1.00  0.00     0.037 A 
HETATM   24  C4  UNL     1      26.543   6.833  48.809  1.00  0.00     0.068 A 
HETATM   25  C20 UNL     1      25.498   6.415  49.613  1.00  0.00     0.037 A 
HETATM   26  C19 UNL     1      25.353   5.123  50.070  1.00  0.00     0.012 A 
BRANCH  24  27
HETATM   27  O1  UNL     1      26.738   8.101  48.326  1.00  0.00    -0.351 OA
BRANCH  27  28
HETATM   28  C3  UNL     1      26.898   9.165  49.247  1.00  0.00     0.175 C 
BRANCH  28  29
HETATM   29  C2  UNL     1      28.368   9.280  49.602  1.00  0.00     0.022 C 
HETATM   30  C1  UNL     1      29.169   9.711  48.391  1.00  0.00     0.007 C 
ENDBRANCH  28  29
ENDBRANCH  27  28
ENDBRANCH  24  27
ENDBRANCH  20  21
ENDBRANCH  19  20
ENDBRANCH   1  19
TORSDOF 9
ENDMDL
MODEL 8
REMARK VINA RESULT:      -7.5      1.715      2.547
REMARK  9 active torsions:
REMARK  status: ('A' for Active; 'I' for Inactive)
REMARK    1  A    between atoms: C2_2  and  C3_3 
REMARK    2  A    between atoms: C3_3  and  O1_4 
REMARK    3  A    between atoms: O1_4  and  C4_5 
REMARK    4  A    between atoms: C7_8  and  C8_9 
REMARK    5  A    between atoms: C8_9  and  O2_10 
REMARK    6  A    between atoms: O2_10  and  C9_11 
REMARK    7  A    between atoms: C11_13  and  C12_14 
REMARK    8  A    between atoms: C15_18  and  N2_19 
REMARK    9  A    between atoms: C16_21  and  N4_22 
ROOT
HETATM    1  C9  UNL     1      23.957   3.623  51.357  1.00  0.00     0.066 A 
HETATM    2  C10 UNL     1      24.435   3.058  52.488  1.00  0.00     0.023 A 
HETATM    3  C11 UNL     1      23.986   1.615  52.644  1.00  0.00     0.072 A 
HETATM    4  C17 UNL     1      23.181   1.457  51.436  1.00  0.00    -0.010 A 
HETATM    5  C18 UNL     1      23.153   2.583  50.690  1.00  0.00     0.033 A 
ENDROOT
BRANCH   3   6
HETATM    6  C12 UNL     1      25.169   0.750  52.700  1.00  0.00     0.024 A 
HETATM    7  C13 UNL     1      26.413   0.707  52.130  1.00  0.00     0.060 A 
HETATM    8  C14 UNL     1      26.688   1.829  51.214  1.00  0.00     0.072 C 
HETATM    9  N1  UNL     1      27.306  -0.252  52.362  1.00  0.00    -0.068 NA
HETATM   10  C15 UNL     1      27.091  -1.286  53.182  1.00  0.00     0.722 A 
HETATM   11  N3  UNL     1      25.896  -1.313  53.777  1.00  0.00    -0.045 NA
HETATM   12  C16 UNL     1      24.983  -0.350  53.550  1.00  0.00     0.149 A 
BRANCH  10  13
HETATM   13  N2  UNL     1      28.177  -2.185  53.280  1.00  0.00    -0.231 N 
HETATM   14  H17 UNL     1      27.843  -2.877  53.994  1.00  0.00     0.174 HD
HETATM   15  H18 UNL     1      29.070  -2.123  52.745  1.00  0.00     0.174 HD
ENDBRANCH  10  13
BRANCH  12  16
HETATM   16  N4  UNL     1      23.832  -0.724  54.339  1.00  0.00    -0.383 N 
HETATM   17  H19 UNL     1      22.902  -0.946  53.923  1.00  0.00     0.157 HD
HETATM   18  H20 UNL     1      24.187  -0.703  55.323  1.00  0.00     0.157 HD
ENDBRANCH  12  16
ENDBRANCH   3   6
BRANCH   1  19
HETATM   19  O2  UNL     1      24.108   4.918  50.800  1.00  0.00    -0.347 OA
BRANCH  19  20
HETATM   20  C8  UNL     1      24.227   4.941  49.369  1.00  0.00     0.214 C 
BRANCH  20  21
HETATM   21  C7  UNL     1      25.537   5.462  48.954  1.00  0.00    -0.034 A 
HETATM   22  C6  UNL     1      26.581   4.564  49.013  1.00  0.00     0.012 A 
HETATM   23  C5  UNL     1      27.879   4.924  48.647  1.00  0.00     0.037 A 
HETATM   24  C4  UNL     1      28.116   6.232  48.211  1.00  0.00     0.068 A 
HETATM   25  C20 UNL     1      27.042   7.103  48.166  1.00  0.00     0.037 A 
HETATM   26  C19 UNL     1      25.758   6.754  48.526  1.00  0.00     0.012 A 
BRANCH  24  27
HETATM   27  O1  UNL     1      29.411   6.523  47.868  1.00  0.00    -0.351 OA
BRANCH  27  28
HETATM   28  C3  UNL     1      30.076   7.578  48.539  1.00  0.00     0.175 C 
BRANCH  28  29
HETATM   29  C2  UNL     1      31.550   7.235  48.637  1.00  0.00     0.022 C 
HETATM   30  C1  UNL     1      31.760   6.091  49.607  1.00  0.00     0.007 C 
ENDBRANCH  28  29
ENDBRANCH  27  28
ENDBRANCH  24  27
ENDBRANCH  20  21
ENDBRANCH  19  20
ENDBRANCH   1  19
TORSDOF 9
ENDMDL
MODEL 9
REMARK VINA RESULT:      -7.4      4.398      8.437
REMARK  9 active torsions:
REMARK  status: ('A' for Active; 'I' for Inactive)
REMARK    1  A    between atoms: C2_2  and  C3_3 
REMARK    2  A    between atoms: C3_3  and  O1_4 
REMARK    3  A    between atoms: O1_4  and  C4_5 
REMARK    4  A    between atoms: C7_8  and  C8_9 
REMARK    5  A    between atoms: C8_9  and  O2_10 
REMARK    6  A    between atoms: O2_10  and  C9_11 
REMARK    7  A    between atoms: C11_13  and  C12_14 
REMARK    8  A    between atoms: C15_18  and  N2_19 
REMARK    9  A    between atoms: C16_21  and  N4_22 
ROOT
HETATM    1  C9  UNL     1      24.899   5.689  49.027  1.00  0.00     0.066 A 
HETATM    2  C10 UNL     1      26.229   5.771  48.805  1.00  0.00     0.023 A 
HETATM    3  C11 UNL     1      26.588   6.919  47.877  1.00  0.00     0.072 A 
HETATM    4  C17 UNL     1      25.260   7.464  47.606  1.00  0.00    -0.010 A 
HETATM    5  C18 UNL     1      24.288   6.783  48.250  1.00  0.00     0.033 A 
ENDROOT
BRANCH   3   6
HETATM    6  C12 UNL     1      27.487   7.839  48.580  1.00  0.00     0.024 A 
HETATM    7  C13 UNL     1      27.380   8.843  49.505  1.00  0.00     0.060 A 
HETATM    8  C14 UNL     1      25.999   9.089  49.959  1.00  0.00     0.072 C 
HETATM    9  N1  UNL     1      28.411   9.549  49.962  1.00  0.00    -0.068 NA
HETATM   10  C15 UNL     1      29.675   9.357  49.570  1.00  0.00     0.722 A 
HETATM   11  N3  UNL     1      29.861   8.392  48.667  1.00  0.00    -0.045 NA
HETATM   12  C16 UNL     1      28.826   7.671  48.195  1.00  0.00     0.149 A 
BRANCH  10  13
HETATM   13  N2  UNL     1      30.611  10.219  50.185  1.00  0.00    -0.231 N 
HETATM   14  H17 UNL     1      30.736  10.976  49.470  1.00  0.00     0.174 HD
HETATM   15  H18 UNL     1      31.039  10.083  51.127  1.00  0.00     0.174 HD
ENDBRANCH  10  13
BRANCH  12  16
HETATM   16  N4  UNL     1      29.405   6.755  47.241  1.00  0.00    -0.383 N 
HETATM   17  H19 UNL     1      28.855   6.296  46.483  1.00  0.00     0.157 HD
HETATM   18  H20 UNL     1      30.413   6.709  47.519  1.00  0.00     0.157 HD
ENDBRANCH  12  16
ENDBRANCH   3   6
BRANCH   1  19
HETATM   19  O2  UNL     1      24.115   4.801  49.807  1.00  0.00    -0.347 OA
BRANCH  19  20
HETATM   20  C8  UNL     1      24.534   3.429  49.751  1.00  0.00     0.214 C 
BRANCH  20  21
HETATM   21  C7  UNL     1      25.053   2.980  51.050  1.00  0.00    -0.034 A 
HETATM   22  C6  UNL     1      26.354   2.522  51.045  1.00  0.00     0.012 A 
HETATM   23  C5  UNL     1      26.974   2.066  52.210  1.00  0.00     0.037 A 
HETATM   24  C4  UNL     1      26.249   2.077  53.407  1.00  0.00     0.068 A 
HETATM   25  C20 UNL     1      24.947   2.545  53.369  1.00  0.00     0.037 A 
HETATM   26  C19 UNL     1      24.329   2.997  52.224  1.00  0.00     0.012 A 
BRANCH  24  27
HETATM   27  O1  UNL     1      26.914   1.616  54.513  1.00  0.00    -0.351 OA
BRANCH  27  28
HETATM   28  C3  UNL     1      27.207   0.234  54.607  1.00  0.00     0.175 C 
BRANCH  28  29
HETATM   29  C2  UNL     1      28.695   0.071  54.852  1.00  0.00     0.022 C 
HETATM   30  C1  UNL     1      29.379  -0.445  53.602  1.00  0.00     0.007 C 
ENDBRANCH  28  29
ENDBRANCH  27  28
ENDBRANCH  24  27
ENDBRANCH  20  21
ENDBRANCH  19  20
ENDBRANCH   1  19
TORSDOF 9
ENDMDL
