MODEL 1
REMARK VINA RESULT:      -9.5      0.000      0.000
REMARK  1 active torsions:
REMARK  status: ('A' for Active; 'I' for Inactive)
REMARK    1  A    between atoms: N1_2  and  C2_3 
ROOT
HETATM    1  C2  UNL     1      21.261   0.840  51.316  1.00  0.00     0.029 C 
HETATM    2  C3  UNL     1      20.762   0.260  52.544  1.00  0.00     0.197 A 
HETATM    3  C4  UNL     1      21.227  -0.322  53.604  1.00  0.00     0.048 A 
HETATM    4 CL1  UNL     1      19.454  -0.196  53.679  1.00  0.00    -0.199 Cl
HETATM    5  C5  UNL     1      21.864  -0.962  54.739  1.00  0.00    -0.004 C 
HETATM    6  C6  UNL     1      23.153  -1.173  54.835  1.00  0.00     0.019 C 
HETATM    7  C7  UNL     1      24.459  -1.037  54.224  1.00  0.00     0.146 C 
HETATM    8  N2  UNL     1      25.723  -1.251  54.332  1.00  0.00    -0.141 NA
HETATM    9  O1  UNL     1      26.509  -0.833  53.286  1.00  0.00    -0.213 OA
HETATM   10  C8  UNL     1      27.368   0.227  53.525  1.00  0.00     0.109 A 
HETATM   11  C9  UNL     1      28.293   0.257  54.546  1.00  0.00     0.040 A 
HETATM   12  C10 UNL     1      29.149   1.304  54.789  1.00  0.00     0.003 A 
HETATM   13  C11 UNL     1      29.082   2.398  53.959  1.00  0.00     0.001 A 
HETATM   14  C12 UNL     1      28.166   2.406  52.922  1.00  0.00     0.012 A 
HETATM   15  C13 UNL     1      27.300   1.326  52.691  1.00  0.00     0.006 A 
HETATM   16  C14 UNL     1      26.427   1.560  51.545  1.00  0.00     0.312 C 
HETATM   17  N3  UNL     1      25.305   2.413  51.779  1.00  0.00     0.101 N 
HETATM   18  C15 UNL     1      24.583   2.575  50.525  1.00  0.00     0.286 C 
HETATM   19  P1  UNL     1      24.659   4.420  50.115  1.00  0.00    -0.008 P 
HETATM   20  C16 UNL     1      23.860   5.278  51.298  1.00  0.00    -0.012 C 
HETATM   21  C17 UNL     1      23.130   4.467  52.055  1.00  0.00     0.014 C 
HETATM   22  C18 UNL     1      22.453   3.296  51.482  1.00  0.00     0.007 C 
HETATM   23  C19 UNL     1      23.106   2.391  50.758  1.00  0.00    -0.037 C 
HETATM   24  C20 UNL     1      22.220   1.312  50.261  1.00  0.00     0.092 C 
HETATM   25  H14 UNL     1      24.707   2.175  52.562  1.00  0.00     0.317 HD
ENDROOT
BRANCH   1  26
HETATM   26  N1  UNL     1      19.961   0.995  51.205  1.00  0.00    -0.301 NA
HETATM   27  C1  UNL     1      19.450   1.283  49.884  1.00  0.00     0.177 C 
ENDBRANCH   1  26
TORSDOF 1
ENDMDL
MODEL 2
REMARK VINA RESULT:      -8.4      2.604      4.780
REMARK  1 active torsions:
REMARK  status: ('A' for Active; 'I' for Inactive)
REMARK    1  A    between atoms: N1_2  and  C2_3 
ROOT
HETATM    1  C2  UNL     1      22.717  -0.577  53.061  1.00  0.00     0.029 C 
HETATM    2  C3  UNL     1      23.762  -0.518  54.060  1.00  0.00     0.197 A 
HETATM    3  C4  UNL     1      24.942  -0.002  54.204  1.00  0.00     0.048 A 
HETATM    4 CL1  UNL     1      24.462  -0.898  55.664  1.00  0.00    -0.199 Cl
HETATM    5  C5  UNL     1      26.252   0.618  54.245  1.00  0.00    -0.004 C 
HETATM    6  C6  UNL     1      26.781   1.283  53.248  1.00  0.00     0.019 C 
HETATM    7  C7  UNL     1      26.634   1.767  51.892  1.00  0.00     0.146 C 
HETATM    8  N2  UNL     1      27.167   2.422  50.921  1.00  0.00    -0.141 NA
HETATM    9  O1  UNL     1      26.423   2.532  49.772  1.00  0.00    -0.213 OA
HETATM   10  C8  UNL     1      25.944   3.791  49.447  1.00  0.00     0.109 A 
HETATM   11  C9  UNL     1      26.737   4.911  49.328  1.00  0.00     0.040 A 
HETATM   12  C10 UNL     1      26.269   6.163  49.005  1.00  0.00     0.003 A 
HETATM   13  C11 UNL     1      24.921   6.312  48.786  1.00  0.00     0.001 A 
HETATM   14  C12 UNL     1      24.092   5.209  48.896  1.00  0.00     0.012 A 
HETATM   15  C13 UNL     1      24.589   3.939  49.227  1.00  0.00     0.006 A 
HETATM   16  C14 UNL     1      23.531   2.935  49.284  1.00  0.00     0.312 C 
HETATM   17  N3  UNL     1      22.734   2.935  50.470  1.00  0.00     0.101 N 
HETATM   18  C15 UNL     1      21.706   1.913  50.331  1.00  0.00     0.286 C 
HETATM   19  P1  UNL     1      20.052   2.828  50.395  1.00  0.00    -0.008 P 
HETATM   20  C16 UNL     1      19.880   3.550  51.887  1.00  0.00    -0.012 C 
HETATM   21  C17 UNL     1      20.775   3.074  52.745  1.00  0.00     0.014 C 
HETATM   22  C18 UNL     1      21.190   1.665  52.707  1.00  0.00     0.007 C 
HETATM   23  C19 UNL     1      21.630   1.091  51.591  1.00  0.00    -0.037 C 
HETATM   24  C20 UNL     1      21.967  -0.339  51.782  1.00  0.00     0.092 C 
HETATM   25  H14 UNL     1      23.231   2.892  51.353  1.00  0.00     0.317 HD
ENDROOT
BRANCH   1  26
HETATM   26  N1  UNL     1      22.219  -1.290  54.047  1.00  0.00    -0.301 NA
HETATM   27  C1  UNL     1      20.792  -1.515  54.031  1.00  0.00     0.177 C 
ENDBRANCH   1  26
TORSDOF 1
ENDMDL
MODEL 3
REMARK VINA RESULT:      -8.4      3.050      6.532
REMARK  1 active torsions:
REMARK  status: ('A' for Active; 'I' for Inactive)
REMARK    1  A    between atoms: N1_2  and  C2_3 
ROOT
HETATM    1  C2  UNL     1      24.760   2.924  51.295  1.00  0.00     0.029 C 
HETATM    2  C3  UNL     1      25.558   1.792  51.714  1.00  0.00     0.197 A 
HETATM    3  C4  UNL     1      25.407   0.687  52.373  1.00  0.00     0.048 A 
HETATM    4 CL1  UNL     1      27.088   0.866  51.818  1.00  0.00    -0.199 Cl
HETATM    5  C5  UNL     1      25.117  -0.516  53.130  1.00  0.00    -0.004 C 
HETATM    6  C6  UNL     1      23.946  -0.793  53.647  1.00  0.00     0.019 C 
HETATM    7  C7  UNL     1      22.572  -0.381  53.844  1.00  0.00     0.146 C 
HETATM    8  N2  UNL     1      21.428  -0.667  54.358  1.00  0.00    -0.141 NA
HETATM    9  O1  UNL     1      20.421   0.247  54.162  1.00  0.00    -0.213 OA
HETATM   10  C8  UNL     1      19.373  -0.134  53.340  1.00  0.00     0.109 A 
HETATM   11  C9  UNL     1      18.627  -1.278  53.519  1.00  0.00     0.040 A 
HETATM   12  C10 UNL     1      17.586  -1.662  52.708  1.00  0.00     0.003 A 
HETATM   13  C11 UNL     1      17.264  -0.853  51.645  1.00  0.00     0.001 A 
HETATM   14  C12 UNL     1      17.989   0.306  51.432  1.00  0.00     0.012 A 
HETATM   15  C13 UNL     1      19.050   0.681  52.272  1.00  0.00     0.006 A 
HETATM   16  C14 UNL     1      19.663   1.936  51.852  1.00  0.00     0.312 C 
HETATM   17  N3  UNL     1      20.566   1.851  50.747  1.00  0.00     0.101 N 
HETATM   18  C15 UNL     1      21.037   3.193  50.436  1.00  0.00     0.286 C 
HETATM   19  P1  UNL     1      20.455   3.553  48.673  1.00  0.00    -0.008 P 
HETATM   20  C16 UNL     1      21.184   2.482  47.625  1.00  0.00    -0.012 C 
HETATM   21  C17 UNL     1      22.191   1.854  48.220  1.00  0.00     0.014 C 
HETATM   22  C18 UNL     1      23.042   2.541  49.201  1.00  0.00     0.007 C 
HETATM   23  C19 UNL     1      22.531   3.179  50.250  1.00  0.00    -0.037 C 
HETATM   24  C20 UNL     1      23.572   3.819  51.089  1.00  0.00     0.092 C 
HETATM   25  H14 UNL     1      21.311   1.167  50.819  1.00  0.00     0.317 HD
ENDROOT
BRANCH   1  26
HETATM   26  N1  UNL     1      25.953   3.219  50.829  1.00  0.00    -0.301 NA
HETATM   27  C1  UNL     1      26.042   4.355  49.941  1.00  0.00     0.177 C 
ENDBRANCH   1  26
TORSDOF 1
ENDMDL
MODEL 4
REMARK VINA RESULT:      -7.7      3.205      5.260
REMARK  1 active torsions:
REMARK  status: ('A' for Active; 'I' for Inactive)
REMARK    1  A    between atoms: N1_2  and  C2_3 
ROOT
HETATM    1  C2  UNL     1      22.216   5.203  50.308  1.00  0.00     0.029 C 
HETATM    2  C3  UNL     1      23.150   5.516  49.249  1.00  0.00     0.197 A 
HETATM    3  C4  UNL     1      24.379   5.261  48.929  1.00  0.00     0.048 A 
HETATM    4 CL1  UNL     1      23.611   6.300  47.705  1.00  0.00    -0.199 Cl
HETATM    5  C5  UNL     1      25.765   4.911  48.681  1.00  0.00    -0.004 C 
HETATM    6  C6  UNL     1      26.496   4.188  49.492  1.00  0.00     0.019 C 
HETATM    7  C7  UNL     1      26.570   3.451  50.736  1.00  0.00     0.146 C 
HETATM    8  N2  UNL     1      27.301   2.744  51.523  1.00  0.00    -0.141 NA
HETATM    9  O1  UNL     1      26.705   2.295  52.677  1.00  0.00    -0.213 OA
HETATM   10  C8  UNL     1      26.481   0.932  52.784  1.00  0.00     0.109 A 
HETATM   11  C9  UNL     1      27.459  -0.026  52.631  1.00  0.00     0.040 A 
HETATM   12  C10 UNL     1      27.244  -1.380  52.736  1.00  0.00     0.003 A 
HETATM   13  C11 UNL     1      25.969  -1.811  53.012  1.00  0.00     0.001 A 
HETATM   14  C12 UNL     1      24.959  -0.879  53.173  1.00  0.00     0.012 A 
HETATM   15  C13 UNL     1      25.199   0.500  53.062  1.00  0.00     0.006 A 
HETATM   16  C14 UNL     1      23.987   1.285  53.272  1.00  0.00     0.312 C 
HETATM   17  N3  UNL     1      23.086   1.350  52.164  1.00  0.00     0.101 N 
HETATM   18  C15 UNL     1      21.920   2.123  52.567  1.00  0.00     0.286 C 
HETATM   19  P1  UNL     1      20.446   0.945  52.440  1.00  0.00    -0.008 P 
HETATM   20  C16 UNL     1      20.248   0.482  50.851  1.00  0.00    -0.012 C 
HETATM   21  C17 UNL     1      20.959   1.259  50.043  1.00  0.00     0.014 C 
HETATM   22  C18 UNL     1      21.133   2.692  50.324  1.00  0.00     0.007 C 
HETATM   23  C19 UNL     1      21.580   3.128  51.498  1.00  0.00    -0.037 C 
HETATM   24  C20 UNL     1      21.650   4.607  51.565  1.00  0.00     0.092 C 
HETATM   25  H14 UNL     1      23.477   1.641  51.275  1.00  0.00     0.317 HD
ENDROOT
BRANCH   1  26
HETATM   26  N1  UNL     1      21.509   5.976  49.515  1.00  0.00    -0.301 NA
HETATM   27  C1  UNL     1      20.138   6.223  49.900  1.00  0.00     0.177 C 
ENDBRANCH   1  26
TORSDOF 1
ENDMDL
MODEL 5
REMARK VINA RESULT:      -7.7      4.208      7.533
REMARK  1 active torsions:
REMARK  status: ('A' for Active; 'I' for Inactive)
REMARK    1  A    between atoms: N1_2  and  C2_3 
ROOT
HETATM    1  C2  UNL     1      25.475   7.722  49.586  1.00  0.00     0.029 C 
HETATM    2  C3  UNL     1      26.507   6.923  48.962  1.00  0.00     0.197 A 
HETATM    3  C4  UNL     1      26.883   5.684  48.916  1.00  0.00     0.048 A 
HETATM    4 CL1  UNL     1      27.945   6.703  47.917  1.00  0.00    -0.199 Cl
HETATM    5  C5  UNL     1      27.210   4.271  48.946  1.00  0.00    -0.004 C 
HETATM    6  C6  UNL     1      26.561   3.383  49.656  1.00  0.00     0.019 C 
HETATM    7  C7  UNL     1      25.481   3.116  50.584  1.00  0.00     0.146 C 
HETATM    8  N2  UNL     1      24.854   2.232  51.277  1.00  0.00    -0.141 NA
HETATM    9  O1  UNL     1      23.799   2.680  52.034  1.00  0.00    -0.213 OA
HETATM   10  C8  UNL     1      22.530   2.279  51.651  1.00  0.00     0.109 A 
HETATM   11  C9  UNL     1      22.156   0.965  51.472  1.00  0.00     0.040 A 
HETATM   12  C10 UNL     1      20.898   0.560  51.091  1.00  0.00     0.003 A 
HETATM   13  C11 UNL     1      19.947   1.528  50.874  1.00  0.00     0.001 A 
HETATM   14  C12 UNL     1      20.284   2.859  51.043  1.00  0.00     0.012 A 
HETATM   15  C13 UNL     1      21.574   3.252  51.432  1.00  0.00     0.006 A 
HETATM   16  C14 UNL     1      21.693   4.702  51.546  1.00  0.00     0.312 C 
HETATM   17  N3  UNL     1      21.843   5.415  50.317  1.00  0.00     0.101 N 
HETATM   18  C15 UNL     1      21.892   6.839  50.617  1.00  0.00     0.286 C 
HETATM   19  P1  UNL     1      20.399   7.606  49.746  1.00  0.00    -0.008 P 
HETATM   20  C16 UNL     1      20.561   7.408  48.099  1.00  0.00    -0.012 C 
HETATM   21  C17 UNL     1      21.799   7.041  47.790  1.00  0.00     0.014 C 
HETATM   22  C18 UNL     1      22.955   7.559  48.536  1.00  0.00     0.007 C 
HETATM   23  C19 UNL     1      23.027   7.481  49.862  1.00  0.00    -0.037 C 
HETATM   24  C20 UNL     1      24.267   8.089  50.400  1.00  0.00     0.092 C 
HETATM   25  H14 UNL     1      22.584   5.106  49.698  1.00  0.00     0.317 HD
ENDROOT
BRANCH   1  26
HETATM   26  N1  UNL     1      26.168   8.614  48.914  1.00  0.00    -0.301 NA
HETATM   27  C1  UNL     1      26.866   9.613  49.689  1.00  0.00     0.177 C 
ENDBRANCH   1  26
TORSDOF 1
ENDMDL
MODEL 6
REMARK VINA RESULT:      -7.6      3.466      7.559
REMARK  1 active torsions:
REMARK  status: ('A' for Active; 'I' for Inactive)
REMARK    1  A    between atoms: N1_2  and  C2_3 
ROOT
HETATM    1  C2  UNL     1      22.827   1.853  52.665  1.00  0.00     0.029 C 
HETATM    2  C3  UNL     1      23.159   0.582  53.270  1.00  0.00     0.197 A 
HETATM    3  C4  UNL     1      22.558  -0.499  53.656  1.00  0.00     0.048 A 
HETATM    4 CL1  UNL     1      24.308  -0.609  53.956  1.00  0.00    -0.199 Cl
HETATM    5  C5  UNL     1      21.774  -1.653  54.053  1.00  0.00    -0.004 C 
HETATM    6  C6  UNL     1      20.472  -1.730  53.941  1.00  0.00     0.019 C 
HETATM    7  C7  UNL     1      19.243  -1.081  53.534  1.00  0.00     0.146 C 
HETATM    8  N2  UNL     1      17.964  -1.171  53.432  1.00  0.00    -0.141 NA
HETATM    9  O1  UNL     1      17.312  -0.083  52.903  1.00  0.00    -0.213 OA
HETATM   10  C8  UNL     1      16.731  -0.240  51.655  1.00  0.00     0.109 A 
HETATM   11  C9  UNL     1      15.831  -1.235  51.341  1.00  0.00     0.040 A 
HETATM   12  C10 UNL     1      15.251  -1.396  50.105  1.00  0.00     0.003 A 
HETATM   13  C11 UNL     1      15.588  -0.506  49.113  1.00  0.00     0.001 A 
HETATM   14  C12 UNL     1      16.488   0.507  49.390  1.00  0.00     0.012 A 
HETATM   15  C13 UNL     1      17.070   0.655  50.658  1.00  0.00     0.006 A 
HETATM   16  C14 UNL     1      17.984   1.791  50.713  1.00  0.00     0.312 C 
HETATM   17  N3  UNL     1      19.277   1.580  50.141  1.00  0.00     0.101 N 
HETATM   18  C15 UNL     1      20.028   2.824  50.235  1.00  0.00     0.286 C 
HETATM   19  P1  UNL     1      20.404   3.341  48.456  1.00  0.00    -0.008 P 
HETATM   20  C16 UNL     1      21.375   2.191  47.742  1.00  0.00    -0.012 C 
HETATM   21  C17 UNL     1      21.881   1.371  48.656  1.00  0.00     0.014 C 
HETATM   22  C18 UNL     1      22.260   1.859  49.989  1.00  0.00     0.007 C 
HETATM   23  C19 UNL     1      21.415   2.544  50.753  1.00  0.00    -0.037 C 
HETATM   24  C20 UNL     1      22.020   2.956  52.042  1.00  0.00     0.092 C 
HETATM   25  H14 UNL     1      19.793   0.770  50.466  1.00  0.00     0.317 HD
ENDROOT
BRANCH   1  26
HETATM   26  N1  UNL     1      24.127   1.942  52.834  1.00  0.00    -0.301 NA
HETATM   27  C1  UNL     1      24.627   3.171  53.403  1.00  0.00     0.177 C 
ENDBRANCH   1  26
TORSDOF 1
ENDMDL
MODEL 7
REMARK VINA RESULT:      -7.3      3.293      6.981
REMARK  1 active torsions:
REMARK  status: ('A' for Active; 'I' for Inactive)
REMARK    1  A    between atoms: N1_2  and  C2_3 
ROOT
HETATM    1  C2  UNL     1      24.138   2.155  53.178  1.00  0.00     0.029 C 
HETATM    2  C3  UNL     1      23.605   0.812  53.095  1.00  0.00     0.197 A 
HETATM    3  C4  UNL     1      22.487   0.225  52.806  1.00  0.00     0.048 A 
HETATM    4 CL1  UNL     1      23.738  -0.969  53.221  1.00  0.00    -0.199 Cl
HETATM    5  C5  UNL     1      21.184  -0.315  52.468  1.00  0.00    -0.004 C 
HETATM    6  C6  UNL     1      20.139   0.418  52.174  1.00  0.00     0.019 C 
HETATM    7  C7  UNL     1      19.592   1.747  52.003  1.00  0.00     0.146 C 
HETATM    8  N2  UNL     1      18.556   2.454  51.714  1.00  0.00    -0.141 NA
HETATM    9  O1  UNL     1      18.719   3.818  51.731  1.00  0.00    -0.213 OA
HETATM   10  C8  UNL     1      18.654   4.477  50.515  1.00  0.00     0.109 A 
HETATM   11  C9  UNL     1      17.600   4.372  49.634  1.00  0.00     0.040 A 
HETATM   12  C10 UNL     1      17.528   5.024  48.425  1.00  0.00     0.003 A 
HETATM   13  C11 UNL     1      18.577   5.836  48.067  1.00  0.00     0.001 A 
HETATM   14  C12 UNL     1      19.655   5.967  48.925  1.00  0.00     0.012 A 
HETATM   15  C13 UNL     1      19.709   5.294  50.155  1.00  0.00     0.006 A 
HETATM   16  C14 UNL     1      20.938   5.586  50.886  1.00  0.00     0.312 C 
HETATM   17  N3  UNL     1      22.106   4.888  50.449  1.00  0.00     0.101 N 
HETATM   18  C15 UNL     1      23.235   5.339  51.249  1.00  0.00     0.286 C 
HETATM   19  P1  UNL     1      24.448   6.133  50.035  1.00  0.00    -0.008 P 
HETATM   20  C16 UNL     1      24.989   4.977  48.963  1.00  0.00    -0.012 C 
HETATM   21  C17 UNL     1      24.682   3.758  49.393  1.00  0.00     0.014 C 
HETATM   22  C18 UNL     1      24.700   3.429  50.825  1.00  0.00     0.007 C 
HETATM   23  C19 UNL     1      24.034   4.152  51.720  1.00  0.00    -0.037 C 
HETATM   24  C20 UNL     1      24.217   3.653  53.104  1.00  0.00     0.092 C 
HETATM   25  H14 UNL     1      22.035   3.879  50.382  1.00  0.00     0.317 HD
ENDROOT
BRANCH   1  26
HETATM   26  N1  UNL     1      25.164   1.412  53.526  1.00  0.00    -0.301 NA
HETATM   27  C1  UNL     1      26.389   2.106  53.851  1.00  0.00     0.177 C 
ENDBRANCH   1  26
TORSDOF 1
ENDMDL
MODEL 8
REMARK VINA RESULT:      -7.2      3.670      6.948
REMARK  1 active torsions:
REMARK  status: ('A' for Active; 'I' for Inactive)
REMARK    1  A    between atoms: N1_2  and  C2_3 
ROOT
HETATM    1  C2  UNL     1      23.866   2.752  52.722  1.00  0.00     0.029 C 
HETATM    2  C3  UNL     1      23.358   1.397  52.692  1.00  0.00     0.197 A 
HETATM    3  C4  UNL     1      22.489   0.699  52.032  1.00  0.00     0.048 A 
HETATM    4 CL1  UNL     1      23.298  -0.299  53.262  1.00  0.00    -0.199 Cl
HETATM    5  C5  UNL     1      21.487   0.025  51.229  1.00  0.00    -0.004 C 
HETATM    6  C6  UNL     1      20.768   0.613  50.306  1.00  0.00     0.019 C 
HETATM    7  C7  UNL     1      20.462   1.836  49.595  1.00  0.00     0.146 C 
HETATM    8  N2  UNL     1      19.748   2.400  48.686  1.00  0.00    -0.141 NA
HETATM    9  O1  UNL     1      19.968   3.740  48.474  1.00  0.00    -0.213 OA
HETATM   10  C8  UNL     1      20.549   4.102  47.270  1.00  0.00     0.109 A 
HETATM   11  C9  UNL     1      20.056   3.742  46.035  1.00  0.00     0.040 A 
HETATM   12  C10 UNL     1      20.627   4.098  44.836  1.00  0.00     0.003 A 
HETATM   13  C11 UNL     1      21.767   4.865  44.867  1.00  0.00     0.001 A 
HETATM   14  C12 UNL     1      22.293   5.247  46.088  1.00  0.00     0.012 A 
HETATM   15  C13 UNL     1      21.695   4.873  47.302  1.00  0.00     0.006 A 
HETATM   16  C14 UNL     1      22.425   5.391  48.454  1.00  0.00     0.312 C 
HETATM   17  N3  UNL     1      23.610   4.678  48.815  1.00  0.00     0.101 N 
HETATM   18  C15 UNL     1      24.230   5.361  49.942  1.00  0.00     0.286 C 
HETATM   19  P1  UNL     1      25.930   5.926  49.336  1.00  0.00    -0.008 P 
HETATM   20  C16 UNL     1      26.850   4.589  48.957  1.00  0.00    -0.012 C 
HETATM   21  C17 UNL     1      26.295   3.484  49.441  1.00  0.00     0.014 C 
HETATM   22  C18 UNL     1      25.589   3.489  50.730  1.00  0.00     0.007 C 
HETATM   23  C19 UNL     1      24.617   4.358  50.996  1.00  0.00    -0.037 C 
HETATM   24  C20 UNL     1      24.068   4.196  52.363  1.00  0.00     0.092 C 
HETATM   25  H14 UNL     1      23.516   3.678  48.950  1.00  0.00     0.317 HD
ENDROOT
BRANCH   1  26
HETATM   26  N1  UNL     1      24.542   2.165  53.685  1.00  0.00    -0.301 NA
HETATM   27  C1  UNL     1      25.981   2.266  53.625  1.00  0.00     0.177 C 
ENDBRANCH   1  26
TORSDOF 1
ENDMDL
MODEL 9
REMARK VINA RESULT:      -7.2      3.603      5.911
REMARK  1 active torsions:
REMARK  status: ('A' for Active; 'I' for Inactive)
REMARK    1  A    between atoms: N1_2  and  C2_3 
ROOT
HETATM    1  C2  UNL     1      19.683   0.082  52.037  1.00  0.00     0.029 C 
HETATM    2  C3  UNL     1      20.659   0.094  53.104  1.00  0.00     0.197 A 
HETATM    3  C4  UNL     1      21.851   0.551  53.328  1.00  0.00     0.048 A 
HETATM    4 CL1  UNL     1      21.229  -0.314  54.752  1.00  0.00    -0.199 Cl
HETATM    5  C5  UNL     1      23.185   1.106  53.457  1.00  0.00    -0.004 C 
HETATM    6  C6  UNL     1      23.813   1.739  52.499  1.00  0.00     0.019 C 
HETATM    7  C7  UNL     1      23.783   2.225  51.135  1.00  0.00     0.146 C 
HETATM    8  N2  UNL     1      24.413   2.848  50.202  1.00  0.00    -0.141 NA
HETATM    9  O1  UNL     1      23.754   2.990  49.005  1.00  0.00    -0.213 OA
HETATM   10  C8  UNL     1      23.362   4.270  48.647  1.00  0.00     0.109 A 
HETATM   11  C9  UNL     1      24.215   5.349  48.581  1.00  0.00     0.040 A 
HETATM   12  C10 UNL     1      23.834   6.622  48.227  1.00  0.00     0.003 A 
HETATM   13  C11 UNL     1      22.512   6.835  47.916  1.00  0.00     0.001 A 
HETATM   14  C12 UNL     1      21.624   5.776  47.971  1.00  0.00     0.012 A 
HETATM   15  C13 UNL     1      22.033   4.484  48.335  1.00  0.00     0.006 A 
HETATM   16  C14 UNL     1      20.926   3.534  48.321  1.00  0.00     0.312 C 
HETATM   17  N3  UNL     1      20.051   3.578  49.450  1.00  0.00     0.101 N 
HETATM   18  C15 UNL     1      18.985   2.608  49.242  1.00  0.00     0.286 C 
HETATM   19  P1  UNL     1      17.378   3.603  49.192  1.00  0.00    -0.008 P 
HETATM   20  C16 UNL     1      17.141   4.339  50.668  1.00  0.00    -0.012 C 
HETATM   21  C17 UNL     1      17.951   3.823  51.585  1.00  0.00     0.014 C 
HETATM   22  C18 UNL     1      18.297   2.395  51.578  1.00  0.00     0.007 C 
HETATM   23  C19 UNL     1      18.783   1.796  50.494  1.00  0.00    -0.037 C 
HETATM   24  C20 UNL     1      19.035   0.351  50.709  1.00  0.00     0.092 C 
HETATM   25  H14 UNL     1      20.484   3.514  50.365  1.00  0.00     0.317 HD
ENDROOT
BRANCH   1  26
HETATM   26  N1  UNL     1      19.085  -0.601  52.986  1.00  0.00    -0.301 NA
HETATM   27  C1  UNL     1      17.757  -1.091  52.698  1.00  0.00     0.177 C 
ENDBRANCH   1  26
TORSDOF 1
ENDMDL
