MODEL 1
REMARK VINA RESULT:      -8.2      0.000      0.000
REMARK  3 active torsions:
REMARK  status: ('A' for Active; 'I' for Inactive)
REMARK    1  A    between atoms: O1_2  and  C2_3 
REMARK    2  A    between atoms: C3_4  and  O2_5 
REMARK    3  A    between atoms: O2_5  and  C4_6 
ROOT
HETATM    1  C2  UNL     1      24.306   0.589  53.066  1.00  0.00     0.110 A 
HETATM    2  C3  UNL     1      22.961   0.215  52.950  1.00  0.00     0.114 A 
HETATM    3  C6  UNL     1      22.040   1.183  52.649  1.00  0.00     0.058 A 
HETATM    4  C7  UNL     1      22.498   2.403  52.495  1.00  0.00     0.042 A 
HETATM    5  C8  UNL     1      21.948   3.533  52.083  1.00  0.00     0.138 A 
HETATM    6  N1  UNL     1      22.043   4.815  51.778  1.00  0.00    -0.224 NA
HETATM    7  C9  UNL     1      23.347   5.270  51.941  1.00  0.00     0.236 A 
HETATM    8  N2  UNL     1      24.119   4.253  52.347  1.00  0.00    -0.240 NA
HETATM    9  C10 UNL     1      23.703   3.032  52.563  1.00  0.00     0.081 A 
HETATM   10  C11 UNL     1      24.439   1.927  52.848  1.00  0.00     0.008 A 
HETATM   11  C12 UNL     1      25.888   2.212  52.476  1.00  0.00     0.049 C 
HETATM   12  C13 UNL     1      25.692   2.756  51.033  1.00  0.00     0.003 C 
HETATM   13  C14 UNL     1      25.061   3.172  49.871  1.00  0.00     0.021 C 
HETATM   14  C15 UNL     1      23.683   3.328  49.289  1.00  0.00    -0.015 C 
HETATM   15  C16 UNL     1      22.315   3.235  49.318  1.00  0.00    -0.049 A 
HETATM   16  C17 UNL     1      20.947   3.382  48.788  1.00  0.00     0.045 A 
HETATM   17  C18 UNL     1      20.535   2.673  47.543  1.00  0.00     0.017 C 
HETATM   18  C19 UNL     1      21.214   2.594  49.999  1.00  0.00     0.059 A 
HETATM   19  C20 UNL     1      21.125   1.082  49.822  1.00  0.00     0.044 C 
HETATM   20  N3  UNL     1      20.776   3.119  51.264  1.00  0.00    -0.361 N 
HETATM   21  H21 UNL     1      19.966   3.343  51.870  1.00  0.00     0.162 HD
ENDROOT
BRANCH   2  22
HETATM   22  O2  UNL     1      22.528  -1.083  53.126  1.00  0.00    -0.276 OA
BRANCH  22  23
HETATM   23  C4  UNL     1      21.846  -1.548  54.239  1.00  0.00     0.260 C 
HETATM   24  C5  UNL     1      20.373  -1.671  54.111  1.00  0.00     0.126 C 
HETATM   25  O3  UNL     1      22.273  -1.892  55.364  1.00  0.00    -0.265 OA
ENDBRANCH  22  23
ENDBRANCH   2  22
BRANCH   1  26
HETATM   26  O1  UNL     1      25.275  -0.329  53.360  1.00  0.00    -0.352 OA
HETATM   27  C1  UNL     1      25.586  -0.529  54.746  1.00  0.00     0.210 C 
ENDBRANCH   1  26
TORSDOF 3
ENDMDL
MODEL 2
REMARK VINA RESULT:      -8.0      1.496      1.999
REMARK  3 active torsions:
REMARK  status: ('A' for Active; 'I' for Inactive)
REMARK    1  A    between atoms: O1_2  and  C2_3 
REMARK    2  A    between atoms: C3_4  and  O2_5 
REMARK    3  A    between atoms: O2_5  and  C4_6 
ROOT
HETATM    1  C2  UNL     1      25.642   1.437  52.183  1.00  0.00     0.110 A 
HETATM    2  C3  UNL     1      24.608   0.790  52.874  1.00  0.00     0.114 A 
HETATM    3  C6  UNL     1      23.426   1.460  53.053  1.00  0.00     0.058 A 
HETATM    4  C7  UNL     1      23.358   2.674  52.560  1.00  0.00     0.042 A 
HETATM    5  C8  UNL     1      22.371   3.544  52.425  1.00  0.00     0.138 A 
HETATM    6  N1  UNL     1      21.913   4.710  52.004  1.00  0.00    -0.224 NA
HETATM    7  C9  UNL     1      22.914   5.436  51.369  1.00  0.00     0.236 A 
HETATM    8  N2  UNL     1      24.043   4.716  51.363  1.00  0.00    -0.240 NA
HETATM    9  C10 UNL     1      24.179   3.525  51.884  1.00  0.00     0.081 A 
HETATM   10  C11 UNL     1      25.243   2.684  51.808  1.00  0.00     0.008 A 
HETATM   11  C12 UNL     1      26.135   3.151  50.666  1.00  0.00     0.049 C 
HETATM   12  C13 UNL     1      25.075   3.288  49.536  1.00  0.00     0.003 C 
HETATM   13  C14 UNL     1      23.847   3.285  48.894  1.00  0.00     0.021 C 
HETATM   14  C15 UNL     1      22.392   3.025  49.171  1.00  0.00    -0.015 C 
HETATM   15  C16 UNL     1      21.331   2.676  49.968  1.00  0.00    -0.049 A 
HETATM   16  C17 UNL     1      19.914   2.422  50.283  1.00  0.00     0.045 A 
HETATM   17  C18 UNL     1      19.150   1.372  49.552  1.00  0.00     0.017 C 
HETATM   18  C19 UNL     1      20.984   2.012  51.203  1.00  0.00     0.059 A 
HETATM   19  C20 UNL     1      21.265   0.514  51.244  1.00  0.00     0.044 C 
HETATM   20  N3  UNL     1      21.127   2.727  52.443  1.00  0.00    -0.361 N 
HETATM   21  H21 UNL     1      20.720   2.925  53.375  1.00  0.00     0.162 HD
ENDROOT
BRANCH   2  22
HETATM   22  O2  UNL     1      24.731  -0.488  53.378  1.00  0.00    -0.276 OA
BRANCH  22  23
HETATM   23  C4  UNL     1      24.881  -0.800  54.720  1.00  0.00     0.260 C 
HETATM   24  C5  UNL     1      23.684  -1.335  55.413  1.00  0.00     0.126 C 
HETATM   25  O3  UNL     1      25.881  -0.705  55.466  1.00  0.00    -0.265 OA
ENDBRANCH  22  23
ENDBRANCH   2  22
BRANCH   1  26
HETATM   26  O1  UNL     1      26.843   0.823  51.966  1.00  0.00    -0.352 OA
HETATM   27  C1  UNL     1      27.834   0.945  52.997  1.00  0.00     0.210 C 
ENDBRANCH   1  26
TORSDOF 3
ENDMDL
MODEL 3
REMARK VINA RESULT:      -7.8      2.136      4.475
REMARK  3 active torsions:
REMARK  status: ('A' for Active; 'I' for Inactive)
REMARK    1  A    between atoms: O1_2  and  C2_3 
REMARK    2  A    between atoms: C3_4  and  O2_5 
REMARK    3  A    between atoms: O2_5  and  C4_6 
ROOT
HETATM    1  C2  UNL     1      24.532   3.145  50.394  1.00  0.00     0.110 A 
HETATM    2  C3  UNL     1      24.653   2.973  51.779  1.00  0.00     0.114 A 
HETATM    3  C6  UNL     1      23.515   3.017  52.542  1.00  0.00     0.058 A 
HETATM    4  C7  UNL     1      22.387   3.225  51.905  1.00  0.00     0.042 A 
HETATM    5  C8  UNL     1      21.118   3.198  52.275  1.00  0.00     0.138 A 
HETATM    6  N1  UNL     1      19.832   3.294  51.986  1.00  0.00    -0.224 NA
HETATM    7  C9  UNL     1      19.644   3.537  50.630  1.00  0.00     0.236 A 
HETATM    8  N2  UNL     1      20.837   3.583  50.023  1.00  0.00    -0.240 NA
HETATM    9  C10 UNL     1      21.991   3.434  50.618  1.00  0.00     0.081 A 
HETATM   10  C11 UNL     1      23.226   3.340  50.060  1.00  0.00     0.008 A 
HETATM   11  C12 UNL     1      23.054   3.016  48.582  1.00  0.00     0.049 C 
HETATM   12  C13 UNL     1      22.070   1.815  48.682  1.00  0.00     0.003 C 
HETATM   13  C14 UNL     1      21.231   0.861  49.236  1.00  0.00     0.021 C 
HETATM   14  C15 UNL     1      20.705   0.409  50.570  1.00  0.00    -0.015 C 
HETATM   15  C16 UNL     1      20.603   0.461  51.937  1.00  0.00    -0.049 A 
HETATM   16  C17 UNL     1      20.103   0.055  53.263  1.00  0.00     0.045 A 
HETATM   17  C18 UNL     1      20.328  -1.329  53.767  1.00  0.00     0.017 C 
HETATM   18  C19 UNL     1      21.255   0.958  53.126  1.00  0.00     0.059 A 
HETATM   19  C20 UNL     1      22.610   0.332  53.440  1.00  0.00     0.044 C 
HETATM   20  N3  UNL     1      21.085   2.339  53.490  1.00  0.00    -0.361 N 
HETATM   21  H21 UNL     1      20.943   3.015  54.262  1.00  0.00     0.162 HD
ENDROOT
BRANCH   2  22
HETATM   22  O2  UNL     1      25.864   2.762  52.404  1.00  0.00    -0.276 OA
BRANCH  22  23
HETATM   23  C4  UNL     1      26.167   1.668  53.199  1.00  0.00     0.260 C 
HETATM   24  C5  UNL     1      26.260   0.356  52.513  1.00  0.00     0.126 C 
HETATM   25  O3  UNL     1      26.379   1.597  54.430  1.00  0.00    -0.265 OA
ENDBRANCH  22  23
ENDBRANCH   2  22
BRANCH   1  26
HETATM   26  O1  UNL     1      25.626   3.107  49.576  1.00  0.00    -0.352 OA
HETATM   27  C1  UNL     1      26.380   4.319  49.437  1.00  0.00     0.210 C 
ENDBRANCH   1  26
TORSDOF 3
ENDMDL
MODEL 4
REMARK VINA RESULT:      -7.6      1.818      4.031
REMARK  3 active torsions:
REMARK  status: ('A' for Active; 'I' for Inactive)
REMARK    1  A    between atoms: O1_2  and  C2_3 
REMARK    2  A    between atoms: C3_4  and  O2_5 
REMARK    3  A    between atoms: O2_5  and  C4_6 
ROOT
HETATM    1  C2  UNL     1      22.292   0.391  53.120  1.00  0.00     0.110 A 
HETATM    2  C3  UNL     1      23.579   0.849  52.805  1.00  0.00     0.114 A 
HETATM    3  C6  UNL     1      23.786   1.410  51.572  1.00  0.00     0.058 A 
HETATM    4  C7  UNL     1      22.748   1.471  50.771  1.00  0.00     0.042 A 
HETATM    5  C8  UNL     1      22.540   2.045  49.599  1.00  0.00     0.138 A 
HETATM    6  N1  UNL     1      21.740   2.350  48.592  1.00  0.00    -0.224 NA
HETATM    7  C9  UNL     1      20.457   1.860  48.810  1.00  0.00     0.236 A 
HETATM    8  N2  UNL     1      20.421   1.237  49.995  1.00  0.00    -0.240 NA
HETATM    9  C10 UNL     1      21.437   1.104  50.807  1.00  0.00     0.081 A 
HETATM   10  C11 UNL     1      21.451   0.603  52.070  1.00  0.00     0.008 A 
HETATM   11  C12 UNL     1      20.020   0.587  52.589  1.00  0.00     0.049 C 
HETATM   12  C13 UNL     1      19.595   2.045  52.255  1.00  0.00     0.003 C 
HETATM   13  C14 UNL     1      19.660   3.343  51.774  1.00  0.00     0.021 C 
HETATM   14  C15 UNL     1      20.603   4.273  51.062  1.00  0.00    -0.015 C 
HETATM   15  C16 UNL     1      21.796   4.605  50.471  1.00  0.00    -0.049 A 
HETATM   16  C17 UNL     1      22.746   5.482  49.764  1.00  0.00     0.045 A 
HETATM   17  C18 UNL     1      23.185   6.771  50.369  1.00  0.00     0.017 C 
HETATM   18  C19 UNL     1      23.185   4.222  50.378  1.00  0.00     0.059 A 
HETATM   19  C20 UNL     1      23.995   4.374  51.662  1.00  0.00     0.044 C 
HETATM   20  N3  UNL     1      23.552   3.133  49.513  1.00  0.00    -0.361 N 
HETATM   21  H21 UNL     1      24.241   2.770  48.830  1.00  0.00     0.162 HD
ENDROOT
BRANCH   2  22
HETATM   22  O2  UNL     1      24.640   0.758  53.681  1.00  0.00    -0.276 OA
BRANCH  22  23
HETATM   23  C4  UNL     1      25.397  -0.383  53.895  1.00  0.00     0.260 C 
HETATM   24  C5  UNL     1      26.283  -0.808  52.783  1.00  0.00     0.126 C 
HETATM   25  O3  UNL     1      25.461  -1.136  54.892  1.00  0.00    -0.265 OA
ENDBRANCH  22  23
ENDBRANCH   2  22
BRANCH   1  26
HETATM   26  O1  UNL     1      22.017  -0.174  54.333  1.00  0.00    -0.352 OA
HETATM   27  C1  UNL     1      21.951  -1.606  54.387  1.00  0.00     0.210 C 
ENDBRANCH   1  26
TORSDOF 3
ENDMDL
MODEL 5
REMARK VINA RESULT:      -7.4      8.655     11.169
REMARK  3 active torsions:
REMARK  status: ('A' for Active; 'I' for Inactive)
REMARK    1  A    between atoms: O1_2  and  C2_3 
REMARK    2  A    between atoms: C3_4  and  O2_5 
REMARK    3  A    between atoms: O2_5  and  C4_6 
ROOT
HETATM    1  C2  UNL     1      32.816   5.257  45.838  1.00  0.00     0.110 A 
HETATM    2  C3  UNL     1      32.334   4.625  46.993  1.00  0.00     0.114 A 
HETATM    3  C6  UNL     1      31.831   5.407  48.000  1.00  0.00     0.058 A 
HETATM    4  C7  UNL     1      31.846   6.704  47.801  1.00  0.00     0.042 A 
HETATM    5  C8  UNL     1      31.341   7.729  48.466  1.00  0.00     0.138 A 
HETATM    6  N1  UNL     1      31.115   9.025  48.586  1.00  0.00    -0.224 NA
HETATM    7  C9  UNL     1      31.635   9.722  47.500  1.00  0.00     0.236 A 
HETATM    8  N2  UNL     1      32.196   8.853  46.649  1.00  0.00    -0.240 NA
HETATM    9  C10 UNL     1      32.253   7.559  46.823  1.00  0.00     0.081 A 
HETATM   10  C11 UNL     1      32.686   6.607  45.956  1.00  0.00     0.008 A 
HETATM   11  C12 UNL     1      32.723   7.218  44.562  1.00  0.00     0.049 C 
HETATM   12  C13 UNL     1      31.299   7.839  44.503  1.00  0.00     0.003 C 
HETATM   13  C14 UNL     1      30.026   8.220  44.897  1.00  0.00     0.021 C 
HETATM   14  C15 UNL     1      29.104   8.141  46.082  1.00  0.00    -0.015 C 
HETATM   15  C16 UNL     1      28.764   7.766  47.358  1.00  0.00    -0.049 A 
HETATM   16  C17 UNL     1      27.895   7.675  48.544  1.00  0.00     0.045 A 
HETATM   17  C18 UNL     1      26.562   7.013  48.461  1.00  0.00     0.017 C 
HETATM   18  C19 UNL     1      29.106   6.852  48.423  1.00  0.00     0.059 A 
HETATM   19  C20 UNL     1      28.861   5.377  48.126  1.00  0.00     0.044 C 
HETATM   20  N3  UNL     1      30.226   7.159  49.272  1.00  0.00    -0.361 N 
HETATM   21  H21 UNL     1      30.602   7.155  50.237  1.00  0.00     0.162 HD
ENDROOT
BRANCH   2  22
HETATM   22  O2  UNL     1      32.344   3.256  47.156  1.00  0.00    -0.276 OA
BRANCH  22  23
HETATM   23  C4  UNL     1      33.342   2.540  47.798  1.00  0.00     0.260 C 
HETATM   24  C5  UNL     1      32.988   1.173  48.254  1.00  0.00     0.126 C 
HETATM   25  O3  UNL     1      34.522   2.860  48.066  1.00  0.00    -0.265 OA
ENDBRANCH  22  23
ENDBRANCH   2  22
BRANCH   1  26
HETATM   26  O1  UNL     1      33.325   4.535  44.795  1.00  0.00    -0.352 OA
HETATM   27  C1  UNL     1      34.740   4.293  44.798  1.00  0.00     0.210 C 
ENDBRANCH   1  26
TORSDOF 3
ENDMDL
MODEL 6
REMARK VINA RESULT:      -7.2      3.055      5.020
REMARK  3 active torsions:
REMARK  status: ('A' for Active; 'I' for Inactive)
REMARK    1  A    between atoms: O1_2  and  C2_3 
REMARK    2  A    between atoms: C3_4  and  O2_5 
REMARK    3  A    between atoms: O2_5  and  C4_6 
ROOT
HETATM    1  C2  UNL     1      19.872   1.906  50.884  1.00  0.00     0.110 A 
HETATM    2  C3  UNL     1      19.634   2.980  51.752  1.00  0.00     0.114 A 
HETATM    3  C6  UNL     1      20.708   3.584  52.351  1.00  0.00     0.058 A 
HETATM    4  C7  UNL     1      21.892   3.098  52.063  1.00  0.00     0.042 A 
HETATM    5  C8  UNL     1      23.125   3.491  52.334  1.00  0.00     0.138 A 
HETATM    6  N1  UNL     1      24.433   3.341  52.220  1.00  0.00    -0.224 NA
HETATM    7  C9  UNL     1      24.740   2.243  51.425  1.00  0.00     0.236 A 
HETATM    8  N2  UNL     1      23.602   1.678  50.999  1.00  0.00    -0.240 NA
HETATM    9  C10 UNL     1      22.399   2.091  51.297  1.00  0.00     0.081 A 
HETATM   10  C11 UNL     1      21.209   1.656  50.808  1.00  0.00     0.008 A 
HETATM   11  C12 UNL     1      21.480   0.876  49.528  1.00  0.00     0.049 C 
HETATM   12  C13 UNL     1      22.388   1.893  48.780  1.00  0.00     0.003 C 
HETATM   13  C14 UNL     1      23.130   3.035  48.526  1.00  0.00     0.021 C 
HETATM   14  C15 UNL     1      23.525   4.333  49.173  1.00  0.00    -0.015 C 
HETATM   15  C16 UNL     1      23.522   5.256  50.189  1.00  0.00    -0.049 A 
HETATM   16  C17 UNL     1      23.893   6.513  50.862  1.00  0.00     0.045 A 
HETATM   17  C18 UNL     1      23.557   7.830  50.250  1.00  0.00     0.017 C 
HETATM   18  C19 UNL     1      22.804   5.668  51.373  1.00  0.00     0.059 A 
HETATM   19  C20 UNL     1      21.398   6.207  51.133  1.00  0.00     0.044 C 
HETATM   20  N3  UNL     1      23.017   4.952  52.602  1.00  0.00    -0.361 N 
HETATM   21  H21 UNL     1      23.133   5.019  53.629  1.00  0.00     0.162 HD
ENDROOT
BRANCH   2  22
HETATM   22  O2  UNL     1      18.367   3.453  52.026  1.00  0.00    -0.276 OA
BRANCH  22  23
HETATM   23  C4  UNL     1      17.584   4.181  51.145  1.00  0.00     0.260 C 
HETATM   24  C5  UNL     1      16.135   4.259  51.456  1.00  0.00     0.126 C 
HETATM   25  O3  UNL     1      17.899   4.799  50.104  1.00  0.00    -0.265 OA
ENDBRANCH  22  23
ENDBRANCH   2  22
BRANCH   1  26
HETATM   26  O1  UNL     1      18.846   1.263  50.251  1.00  0.00    -0.352 OA
HETATM   27  C1  UNL     1      18.210   0.191  50.962  1.00  0.00     0.210 C 
ENDBRANCH   1  26
TORSDOF 3
ENDMDL
MODEL 7
REMARK VINA RESULT:      -7.1      3.440      6.354
REMARK  3 active torsions:
REMARK  status: ('A' for Active; 'I' for Inactive)
REMARK    1  A    between atoms: O1_2  and  C2_3 
REMARK    2  A    between atoms: C3_4  and  O2_5 
REMARK    3  A    between atoms: O2_5  and  C4_6 
ROOT
HETATM    1  C2  UNL     1      22.291   4.714  48.042  1.00  0.00     0.110 A 
HETATM    2  C3  UNL     1      23.326   5.101  48.904  1.00  0.00     0.114 A 
HETATM    3  C6  UNL     1      23.152   4.922  50.252  1.00  0.00     0.058 A 
HETATM    4  C7  UNL     1      22.010   4.400  50.633  1.00  0.00     0.042 A 
HETATM    5  C8  UNL     1      21.554   3.970  51.797  1.00  0.00     0.138 A 
HETATM    6  N1  UNL     1      20.605   3.408  52.525  1.00  0.00    -0.224 NA
HETATM    7  C9  UNL     1      19.513   3.063  51.737  1.00  0.00     0.236 A 
HETATM    8  N2  UNL     1      19.767   3.394  50.464  1.00  0.00    -0.240 NA
HETATM    9  C10 UNL     1      20.865   3.962  50.040  1.00  0.00     0.081 A 
HETATM   10  C11 UNL     1      21.249   4.211  48.760  1.00  0.00     0.008 A 
HETATM   11  C12 UNL     1      20.395   3.355  47.835  1.00  0.00     0.049 C 
HETATM   12  C13 UNL     1      20.562   1.969  48.520  1.00  0.00     0.003 C 
HETATM   13  C14 UNL     1      20.961   1.007  49.435  1.00  0.00     0.021 C 
HETATM   14  C15 UNL     1      21.756   0.868  50.703  1.00  0.00    -0.015 C 
HETATM   15  C16 UNL     1      22.534   1.342  51.729  1.00  0.00    -0.049 A 
HETATM   16  C17 UNL     1      23.313   1.250  52.977  1.00  0.00     0.045 A 
HETATM   17  C18 UNL     1      24.505   0.360  53.063  1.00  0.00     0.017 C 
HETATM   18  C19 UNL     1      23.379   2.445  52.124  1.00  0.00     0.059 A 
HETATM   19  C20 UNL     1      24.668   2.602  51.324  1.00  0.00     0.044 C 
HETATM   20  N3  UNL     1      22.768   3.657  52.600  1.00  0.00    -0.361 N 
HETATM   21  H21 UNL     1      22.810   4.431  53.287  1.00  0.00     0.162 HD
ENDROOT
BRANCH   2  22
HETATM   22  O2  UNL     1      24.508   5.651  48.453  1.00  0.00    -0.276 OA
BRANCH  22  23
HETATM   23  C4  UNL     1      25.654   5.804  49.218  1.00  0.00     0.260 C 
HETATM   24  C5  UNL     1      26.703   4.769  49.051  1.00  0.00     0.126 C 
HETATM   25  O3  UNL     1      25.962   6.690  50.046  1.00  0.00    -0.265 OA
ENDBRANCH  22  23
ENDBRANCH   2  22
BRANCH   1  26
HETATM   26  O1  UNL     1      22.403   4.860  46.688  1.00  0.00    -0.352 OA
HETATM   27  C1  UNL     1      22.040   6.134  46.137  1.00  0.00     0.210 C 
ENDBRANCH   1  26
TORSDOF 3
ENDMDL
MODEL 8
REMARK VINA RESULT:      -6.8     22.467     24.566
REMARK  3 active torsions:
REMARK  status: ('A' for Active; 'I' for Inactive)
REMARK    1  A    between atoms: O1_2  and  C2_3 
REMARK    2  A    between atoms: C3_4  and  O2_5 
REMARK    3  A    between atoms: O2_5  and  C4_6 
ROOT
HETATM    1  C2  UNL     1      42.157  -1.198  68.064  1.00  0.00     0.110 A 
HETATM    2  C3  UNL     1      41.681   0.117  67.981  1.00  0.00     0.114 A 
HETATM    3  C6  UNL     1      40.358   0.313  67.683  1.00  0.00     0.058 A 
HETATM    4  C7  UNL     1      39.633  -0.764  67.492  1.00  0.00     0.042 A 
HETATM    5  C8  UNL     1      38.337  -0.966  67.325  1.00  0.00     0.138 A 
HETATM    6  N1  UNL     1      37.311  -1.783  67.161  1.00  0.00    -0.224 NA
HETATM    7  C9  UNL     1      37.726  -3.109  67.162  1.00  0.00     0.236 A 
HETATM    8  N2  UNL     1      39.052  -3.154  67.348  1.00  0.00    -0.240 NA
HETATM    9  C10 UNL     1      39.827  -2.111  67.493  1.00  0.00     0.081 A 
HETATM   10  C11 UNL     1      41.148  -2.077  67.811  1.00  0.00     0.008 A 
HETATM   11  C12 UNL     1      41.531  -3.431  68.391  1.00  0.00     0.049 C 
HETATM   12  C13 UNL     1      40.405  -3.600  69.449  1.00  0.00     0.003 C 
HETATM   13  C14 UNL     1      39.267  -3.334  70.195  1.00  0.00     0.021 C 
HETATM   14  C15 UNL     1      38.183  -2.301  70.333  1.00  0.00    -0.015 C 
HETATM   15  C16 UNL     1      37.551  -1.127  70.013  1.00  0.00    -0.049 A 
HETATM   16  C17 UNL     1      36.501  -0.097  70.110  1.00  0.00     0.045 A 
HETATM   17  C18 UNL     1      36.270   0.633  71.389  1.00  0.00     0.017 C 
HETATM   18  C19 UNL     1      37.744   0.150  69.366  1.00  0.00     0.059 A 
HETATM   19  C20 UNL     1      38.734   1.089  70.048  1.00  0.00     0.044 C 
HETATM   20  N3  UNL     1      37.676   0.222  67.931  1.00  0.00    -0.361 N 
HETATM   21  H21 UNL     1      37.351   0.764  67.110  1.00  0.00     0.162 HD
ENDROOT
BRANCH   2  22
HETATM   22  O2  UNL     1      42.486   1.218  68.186  1.00  0.00    -0.276 OA
BRANCH  22  23
HETATM   23  C4  UNL     1      42.311   2.153  69.195  1.00  0.00     0.260 C 
HETATM   24  C5  UNL     1      42.426   1.653  70.587  1.00  0.00     0.126 C 
HETATM   25  O3  UNL     1      42.065   3.378  69.129  1.00  0.00    -0.265 OA
ENDBRANCH  22  23
ENDBRANCH   2  22
BRANCH   1  26
HETATM   26  O1  UNL     1      43.464  -1.462  68.362  1.00  0.00    -0.352 OA
HETATM   27  C1  UNL     1      43.824  -1.491  69.751  1.00  0.00     0.210 C 
ENDBRANCH   1  26
TORSDOF 3
ENDMDL
MODEL 9
REMARK VINA RESULT:      -6.7      2.361      4.553
REMARK  3 active torsions:
REMARK  status: ('A' for Active; 'I' for Inactive)
REMARK    1  A    between atoms: O1_2  and  C2_3 
REMARK    2  A    between atoms: C3_4  and  O2_5 
REMARK    3  A    between atoms: O2_5  and  C4_6 
ROOT
HETATM    1  C2  UNL     1      19.876   0.658  51.841  1.00  0.00     0.110 A 
HETATM    2  C3  UNL     1      21.142   0.192  51.463  1.00  0.00     0.114 A 
HETATM    3  C6  UNL     1      21.641   0.580  50.247  1.00  0.00     0.058 A 
HETATM    4  C7  UNL     1      20.880   1.364  49.521  1.00  0.00     0.042 A 
HETATM    5  C8  UNL     1      21.074   2.026  48.394  1.00  0.00     0.138 A 
HETATM    6  N1  UNL     1      20.648   2.857  47.458  1.00  0.00    -0.224 NA
HETATM    7  C9  UNL     1      19.362   3.304  47.738  1.00  0.00     0.236 A 
HETATM    8  N2  UNL     1      18.951   2.762  48.892  1.00  0.00    -0.240 NA
HETATM    9  C10 UNL     1      19.649   1.936  49.627  1.00  0.00     0.081 A 
HETATM   10  C11 UNL     1      19.357   1.449  50.861  1.00  0.00     0.008 A 
HETATM   11  C12 UNL     1      18.273   2.326  51.473  1.00  0.00     0.049 C 
HETATM   12  C13 UNL     1      18.899   3.730  51.238  1.00  0.00     0.003 C 
HETATM   13  C14 UNL     1      19.787   4.707  50.816  1.00  0.00     0.021 C 
HETATM   14  C15 UNL     1      21.093   4.854  50.087  1.00  0.00    -0.015 C 
HETATM   15  C16 UNL     1      22.201   4.376  49.434  1.00  0.00    -0.049 A 
HETATM   16  C17 UNL     1      23.479   4.477  48.706  1.00  0.00     0.045 A 
HETATM   17  C18 UNL     1      24.666   5.117  49.341  1.00  0.00     0.017 C 
HETATM   18  C19 UNL     1      23.000   3.190  49.230  1.00  0.00     0.059 A 
HETATM   19  C20 UNL     1      23.738   2.676  50.463  1.00  0.00     0.044 C 
HETATM   20  N3  UNL     1      22.550   2.197  48.292  1.00  0.00    -0.361 N 
HETATM   21  H21 UNL     1      22.821   1.529  47.548  1.00  0.00     0.162 HD
ENDROOT
BRANCH   2  22
HETATM   22  O2  UNL     1      21.903  -0.636  52.261  1.00  0.00    -0.276 OA
BRANCH  22  23
HETATM   23  C4  UNL     1      22.634  -0.223  53.364  1.00  0.00     0.260 C 
HETATM   24  C5  UNL     1      22.302  -0.870  54.658  1.00  0.00     0.126 C 
HETATM   25  O3  UNL     1      23.549   0.625  53.457  1.00  0.00    -0.265 OA
ENDBRANCH  22  23
ENDBRANCH   2  22
BRANCH   1  26
HETATM   26  O1  UNL     1      19.323   0.314  53.043  1.00  0.00    -0.352 OA
HETATM   27  C1  UNL     1      18.548  -0.893  53.082  1.00  0.00     0.210 C 
ENDBRANCH   1  26
TORSDOF 3
ENDMDL
