MODEL 1
REMARK VINA RESULT:      -7.9      0.000      0.000
REMARK  5 active torsions:
REMARK  status: ('A' for Active; 'I' for Inactive)
REMARK    1  A    between atoms: C2_2  and  O1_3 
REMARK    2  A    between atoms: O1_3  and  C3_4 
REMARK    3  A    between atoms: C6_7  and  N1_8 
REMARK    4  A    between atoms: N1_8  and  C7_9 
REMARK    5  A    between atoms: C16_22  and  O2_23 
ROOT
HETATM    1  C3  UNL     1      22.302   0.790  52.534  1.00  0.00     0.103 A 
HETATM    2  C4  UNL     1      23.557   1.348  52.606  1.00  0.00     0.057 A 
HETATM    3  C5  UNL     1      24.160   2.096  51.623  1.00  0.00     0.042 A 
HETATM    4  C6  UNL     1      25.411   2.643  51.710  1.00  0.00     0.142 A 
HETATM    5  N2  UNL     1      25.770   3.321  50.631  1.00  0.00    -0.224 NA
HETATM    6  C13 UNL     1      25.051   3.509  49.520  1.00  0.00     0.236 A 
HETATM    7  N3  UNL     1      23.827   2.967  49.447  1.00  0.00    -0.241 NA
HETATM    8  C14 UNL     1      23.385   2.263  50.499  1.00  0.00     0.075 A 
HETATM    9  C15 UNL     1      22.122   1.727  50.377  1.00  0.00     0.072 A 
HETATM   10  C16 UNL     1      21.559   0.982  51.391  1.00  0.00     0.103 A 
ENDROOT
BRANCH   4  11
HETATM   11  N1  UNL     1      26.177   2.455  52.884  1.00  0.00    -0.340 N 
HETATM   12  H7  UNL     1      26.034   3.035  53.731  1.00  0.00     0.167 HD
BRANCH  11  13
HETATM   13  C7  UNL     1      27.212   1.520  53.141  1.00  0.00     0.035 A 
HETATM   14  C8  UNL     1      28.451   1.812  53.665  1.00  0.00     0.032 A 
HETATM   15  C9  UNL     1      29.428   0.893  53.907  1.00  0.00     0.046 A 
HETATM   16  C10 UNL     1      29.226  -0.429  53.630  1.00  0.00     0.138 A 
HETATM   17  F1  UNL     1      30.227  -1.289  53.890  1.00  0.00    -0.204 F 
HETATM   18  C11 UNL     1      27.989  -0.788  53.096  1.00  0.00     0.074 A 
HETATM   19 CL1  UNL     1      27.776  -2.491  52.758  1.00  0.00    -0.081 Cl
HETATM   20  C12 UNL     1      27.038   0.183  52.873  1.00  0.00     0.056 A 
ENDBRANCH  11  13
ENDBRANCH   4  11
BRANCH   1  21
HETATM   21  O1  UNL     1      21.730   0.041  53.549  1.00  0.00    -0.349 OA
BRANCH  21  22
HETATM   22  C2  UNL     1      22.096  -1.265  53.902  1.00  0.00     0.171 C 
HETATM   23  C1  UNL     1      22.800  -1.327  55.240  1.00  0.00     0.034 C 
ENDBRANCH  21  22
ENDBRANCH   1  21
BRANCH  10  24
HETATM   24  O2  UNL     1      20.290   0.462  51.226  1.00  0.00    -0.353 OA
HETATM   25  C17 UNL     1      19.173   1.298  51.233  1.00  0.00     0.210 C 
ENDBRANCH  10  24
TORSDOF 5
ENDMDL
MODEL 2
REMARK VINA RESULT:      -7.9      2.397      4.088
REMARK  5 active torsions:
REMARK  status: ('A' for Active; 'I' for Inactive)
REMARK    1  A    between atoms: C2_2  and  O1_3 
REMARK    2  A    between atoms: O1_3  and  C3_4 
REMARK    3  A    between atoms: C6_7  and  N1_8 
REMARK    4  A    between atoms: N1_8  and  C7_9 
REMARK    5  A    between atoms: C16_22  and  O2_23 
ROOT
HETATM    1  C3  UNL     1      20.877   1.028  51.678  1.00  0.00     0.103 A 
HETATM    2  C4  UNL     1      22.152   0.760  52.119  1.00  0.00     0.057 A 
HETATM    3  C5  UNL     1      22.479  -0.009  53.210  1.00  0.00     0.042 A 
HETATM    4  C6  UNL     1      23.755  -0.264  53.635  1.00  0.00     0.142 A 
HETATM    5  N2  UNL     1      23.810  -1.033  54.711  1.00  0.00    -0.224 NA
HETATM    6  C13 UNL     1      22.780  -1.556  55.385  1.00  0.00     0.236 A 
HETATM    7  N3  UNL     1      21.536  -1.297  54.957  1.00  0.00    -0.241 NA
HETATM    8  C14 UNL     1      21.389  -0.525  53.871  1.00  0.00     0.075 A 
HETATM    9  C15 UNL     1      20.093  -0.289  53.471  1.00  0.00     0.072 A 
HETATM   10  C16 UNL     1      19.814   0.491  52.369  1.00  0.00     0.103 A 
ENDROOT
BRANCH   4  11
HETATM   11  N1  UNL     1      24.850   0.279  52.926  1.00  0.00    -0.340 N 
HETATM   12  H7  UNL     1      24.720   0.940  52.138  1.00  0.00     0.167 HD
BRANCH  11  13
HETATM   13  C7  UNL     1      26.239   0.063  53.116  1.00  0.00     0.035 A 
HETATM   14  C8  UNL     1      26.912  -1.114  52.878  1.00  0.00     0.032 A 
HETATM   15  C9  UNL     1      28.250  -1.295  53.065  1.00  0.00     0.046 A 
HETATM   16  C10 UNL     1      29.035  -0.275  53.519  1.00  0.00     0.138 A 
HETATM   17  F1  UNL     1      30.349  -0.513  53.684  1.00  0.00    -0.204 F 
HETATM   18  C11 UNL     1      28.410   0.945  53.779  1.00  0.00     0.074 A 
HETATM   19 CL1  UNL     1      29.455   2.223  54.358  1.00  0.00    -0.081 Cl
HETATM   20  C12 UNL     1      27.055   1.071  53.571  1.00  0.00     0.056 A 
ENDBRANCH  11  13
ENDBRANCH   4  11
BRANCH   1  21
HETATM   21  O1  UNL     1      20.589   1.810  50.572  1.00  0.00    -0.349 OA
BRANCH  21  22
HETATM   22  C2  UNL     1      20.437   1.340  49.260  1.00  0.00     0.171 C 
HETATM   23  C1  UNL     1      21.747   1.293  48.506  1.00  0.00     0.034 C 
ENDBRANCH  21  22
ENDBRANCH   1  21
BRANCH  10  24
HETATM   24  O2  UNL     1      18.498   0.704  52.004  1.00  0.00    -0.353 OA
HETATM   25  C17 UNL     1      17.749  -0.319  51.421  1.00  0.00     0.210 C 
ENDBRANCH  10  24
TORSDOF 5
ENDMDL
MODEL 3
REMARK VINA RESULT:      -7.6      3.860      5.870
REMARK  5 active torsions:
REMARK  status: ('A' for Active; 'I' for Inactive)
REMARK    1  A    between atoms: C2_2  and  O1_3 
REMARK    2  A    between atoms: O1_3  and  C3_4 
REMARK    3  A    between atoms: C6_7  and  N1_8 
REMARK    4  A    between atoms: N1_8  and  C7_9 
REMARK    5  A    between atoms: C16_22  and  O2_23 
ROOT
HETATM    1  C3  UNL     1      25.817   1.322  53.761  1.00  0.00     0.103 A 
HETATM    2  C4  UNL     1      25.356   2.314  52.927  1.00  0.00     0.057 A 
HETATM    3  C5  UNL     1      24.231   2.242  52.140  1.00  0.00     0.042 A 
HETATM    4  C6  UNL     1      23.788   3.239  51.313  1.00  0.00     0.142 A 
HETATM    5  N2  UNL     1      22.681   2.929  50.657  1.00  0.00    -0.224 NA
HETATM    6  C13 UNL     1      21.993   1.785  50.727  1.00  0.00     0.236 A 
HETATM    7  N3  UNL     1      22.440   0.817  51.540  1.00  0.00    -0.241 NA
HETATM    8  C14 UNL     1      23.557   1.048  52.244  1.00  0.00     0.075 A 
HETATM    9  C15 UNL     1      23.975   0.024  53.065  1.00  0.00     0.072 A 
HETATM   10  C16 UNL     1      25.111   0.143  53.836  1.00  0.00     0.103 A 
ENDROOT
BRANCH   4  11
HETATM   11  N1  UNL     1      24.505   4.455  51.236  1.00  0.00    -0.340 N 
HETATM   12  H7  UNL     1      24.347   5.229  51.907  1.00  0.00     0.167 HD
BRANCH  11  13
HETATM   13  C7  UNL     1      25.505   4.850  50.312  1.00  0.00     0.035 A 
HETATM   14  C8  UNL     1      26.433   4.021  49.723  1.00  0.00     0.032 A 
HETATM   15  C9  UNL     1      27.383   4.427  48.833  1.00  0.00     0.046 A 
HETATM   16  C10 UNL     1      27.473   5.736  48.458  1.00  0.00     0.138 A 
HETATM   17  F1  UNL     1      28.431   6.077  47.576  1.00  0.00    -0.204 F 
HETATM   18  C11 UNL     1      26.559   6.627  49.021  1.00  0.00     0.074 A 
HETATM   19 CL1  UNL     1      26.712   8.293  48.510  1.00  0.00    -0.081 Cl
HETATM   20  C12 UNL     1      25.620   6.161  49.914  1.00  0.00     0.056 A 
ENDBRANCH  11  13
ENDBRANCH   4  11
BRANCH   1  21
HETATM   21  O1  UNL     1      26.957   1.435  54.539  1.00  0.00    -0.349 OA
BRANCH  21  22
HETATM   22  C2  UNL     1      28.275   1.386  54.065  1.00  0.00     0.171 C 
HETATM   23  C1  UNL     1      28.854  -0.011  54.104  1.00  0.00     0.034 C 
ENDBRANCH  21  22
ENDBRANCH   1  21
BRANCH  10  24
HETATM   24  O2  UNL     1      25.495  -0.910  54.645  1.00  0.00    -0.353 OA
HETATM   25  C17 UNL     1      24.752  -1.243  55.778  1.00  0.00     0.210 C 
ENDBRANCH  10  24
TORSDOF 5
ENDMDL
MODEL 4
REMARK VINA RESULT:      -7.6      2.483      3.934
REMARK  5 active torsions:
REMARK  status: ('A' for Active; 'I' for Inactive)
REMARK    1  A    between atoms: C2_2  and  O1_3 
REMARK    2  A    between atoms: O1_3  and  C3_4 
REMARK    3  A    between atoms: C6_7  and  N1_8 
REMARK    4  A    between atoms: N1_8  and  C7_9 
REMARK    5  A    between atoms: C16_22  and  O2_23 
ROOT
HETATM    1  C3  UNL     1      21.752   2.572  51.839  1.00  0.00     0.103 A 
HETATM    2  C4  UNL     1      22.795   1.721  52.126  1.00  0.00     0.057 A 
HETATM    3  C5  UNL     1      22.771   0.707  53.053  1.00  0.00     0.042 A 
HETATM    4  C6  UNL     1      23.819  -0.129  53.326  1.00  0.00     0.142 A 
HETATM    5  N2  UNL     1      23.551  -1.027  54.261  1.00  0.00    -0.224 NA
HETATM    6  C13 UNL     1      22.402  -1.179  54.928  1.00  0.00     0.236 A 
HETATM    7  N3  UNL     1      21.384  -0.352  54.651  1.00  0.00    -0.241 NA
HETATM    8  C14 UNL     1      21.571   0.588  53.714  1.00  0.00     0.075 A 
HETATM    9  C15 UNL     1      20.496   1.412  53.464  1.00  0.00     0.072 A 
HETATM   10  C16 UNL     1      20.568   2.418  52.524  1.00  0.00     0.103 A 
ENDROOT
BRANCH   4  11
HETATM   11  N1  UNL     1      25.036   0.020  52.622  1.00  0.00    -0.340 N 
HETATM   12  H7  UNL     1      25.133  -0.259  51.628  1.00  0.00     0.167 HD
BRANCH  11  13
HETATM   13  C7  UNL     1      26.277   0.536  53.074  1.00  0.00     0.035 A 
HETATM   14  C8  UNL     1      26.517   1.832  53.470  1.00  0.00     0.032 A 
HETATM   15  C9  UNL     1      27.720   2.302  53.904  1.00  0.00     0.046 A 
HETATM   16  C10 UNL     1      28.807   1.478  53.974  1.00  0.00     0.138 A 
HETATM   17  F1  UNL     1      29.968   1.999  54.411  1.00  0.00    -0.204 F 
HETATM   18  C11 UNL     1      28.627   0.150  53.586  1.00  0.00     0.074 A 
HETATM   19 CL1  UNL     1      30.046  -0.868  53.693  1.00  0.00    -0.081 Cl
HETATM   20  C12 UNL     1      27.388  -0.270  53.156  1.00  0.00     0.056 A 
ENDBRANCH  11  13
ENDBRANCH   4  11
BRANCH   1  21
HETATM   21  O1  UNL     1      21.816   3.584  50.896  1.00  0.00    -0.349 OA
BRANCH  21  22
HETATM   22  C2  UNL     1      22.031   4.941  51.172  1.00  0.00     0.171 C 
HETATM   23  C1  UNL     1      23.349   5.190  51.870  1.00  0.00     0.034 C 
ENDBRANCH  21  22
ENDBRANCH   1  21
BRANCH  10  24
HETATM   24  O2  UNL     1      19.466   3.222  52.307  1.00  0.00    -0.353 OA
HETATM   25  C17 UNL     1      18.409   2.779  51.511  1.00  0.00     0.210 C 
ENDBRANCH  10  24
TORSDOF 5
ENDMDL
MODEL 5
REMARK VINA RESULT:      -7.5      4.041      6.951
REMARK  5 active torsions:
REMARK  status: ('A' for Active; 'I' for Inactive)
REMARK    1  A    between atoms: C2_2  and  O1_3 
REMARK    2  A    between atoms: O1_3  and  C3_4 
REMARK    3  A    between atoms: C6_7  and  N1_8 
REMARK    4  A    between atoms: N1_8  and  C7_9 
REMARK    5  A    between atoms: C16_22  and  O2_23 
ROOT
HETATM    1  C3  UNL     1      25.806   0.832  52.318  1.00  0.00     0.103 A 
HETATM    2  C4  UNL     1      24.464   1.135  52.322  1.00  0.00     0.057 A 
HETATM    3  C5  UNL     1      23.509   0.540  53.111  1.00  0.00     0.042 A 
HETATM    4  C6  UNL     1      22.177   0.854  53.100  1.00  0.00     0.142 A 
HETATM    5  N2  UNL     1      21.458   0.139  53.951  1.00  0.00    -0.224 NA
HETATM    6  C13 UNL     1      21.898  -0.814  54.779  1.00  0.00     0.236 A 
HETATM    7  N3  UNL     1      23.205  -1.112  54.778  1.00  0.00    -0.241 NA
HETATM    8  C14 UNL     1      24.006  -0.434  53.944  1.00  0.00     0.075 A 
HETATM    9  C15 UNL     1      25.341  -0.775  53.981  1.00  0.00     0.072 A 
HETATM   10  C16 UNL     1      26.263  -0.149  53.169  1.00  0.00     0.103 A 
ENDROOT
BRANCH   4  11
HETATM   11  N1  UNL     1      21.703   1.864  52.233  1.00  0.00    -0.340 N 
HETATM   12  H7  UNL     1      21.138   2.662  52.577  1.00  0.00     0.167 HD
BRANCH  11  13
HETATM   13  C7  UNL     1      21.876   2.000  50.832  1.00  0.00     0.035 A 
HETATM   14  C8  UNL     1      21.548   1.057  49.883  1.00  0.00     0.032 A 
HETATM   15  C9  UNL     1      21.722   1.214  48.541  1.00  0.00     0.046 A 
HETATM   16  C10 UNL     1      22.255   2.365  48.035  1.00  0.00     0.138 A 
HETATM   17  F1  UNL     1      22.402   2.462  46.702  1.00  0.00    -0.204 F 
HETATM   18  C11 UNL     1      22.608   3.360  48.948  1.00  0.00     0.074 A 
HETATM   19 CL1  UNL     1      23.286   4.816  48.256  1.00  0.00    -0.081 Cl
HETATM   20  C12 UNL     1      22.410   3.147  50.294  1.00  0.00     0.056 A 
ENDBRANCH  11  13
ENDBRANCH   4  11
BRANCH   1  21
HETATM   21  O1  UNL     1      26.738   1.456  51.506  1.00  0.00    -0.349 OA
BRANCH  21  22
HETATM   22  C2  UNL     1      26.733   2.813  51.155  1.00  0.00     0.171 C 
HETATM   23  C1  UNL     1      26.372   3.035  49.703  1.00  0.00     0.034 C 
ENDBRANCH  21  22
ENDBRANCH   1  21
BRANCH  10  24
HETATM   24  O2  UNL     1      27.591  -0.524  53.237  1.00  0.00    -0.353 OA
HETATM   25  C17 UNL     1      28.393  -0.106  54.300  1.00  0.00     0.210 C 
ENDBRANCH  10  24
TORSDOF 5
ENDMDL
MODEL 6
REMARK VINA RESULT:      -7.4      3.685      6.320
REMARK  5 active torsions:
REMARK  status: ('A' for Active; 'I' for Inactive)
REMARK    1  A    between atoms: C2_2  and  O1_3 
REMARK    2  A    between atoms: O1_3  and  C3_4 
REMARK    3  A    between atoms: C6_7  and  N1_8 
REMARK    4  A    between atoms: N1_8  and  C7_9 
REMARK    5  A    between atoms: C16_22  and  O2_23 
ROOT
HETATM    1  C3  UNL     1      25.762  -0.297  53.818  1.00  0.00     0.103 A 
HETATM    2  C4  UNL     1      24.876   0.644  53.346  1.00  0.00     0.057 A 
HETATM    3  C5  UNL     1      25.154   1.608  52.406  1.00  0.00     0.042 A 
HETATM    4  C6  UNL     1      24.260   2.538  51.949  1.00  0.00     0.142 A 
HETATM    5  N2  UNL     1      24.767   3.359  51.044  1.00  0.00    -0.224 NA
HETATM    6  C13 UNL     1      26.014   3.361  50.562  1.00  0.00     0.236 A 
HETATM    7  N3  UNL     1      26.880   2.445  51.020  1.00  0.00    -0.241 NA
HETATM    8  C14 UNL     1      26.447   1.571  51.940  1.00  0.00     0.075 A 
HETATM    9  C15 UNL     1      27.372   0.649  52.378  1.00  0.00     0.072 A 
HETATM   10  C16 UNL     1      27.046  -0.299  53.324  1.00  0.00     0.103 A 
ENDROOT
BRANCH   4  11
HETATM   11  N1  UNL     1      22.937   2.541  52.448  1.00  0.00    -0.340 N 
HETATM   12  H7  UNL     1      22.665   3.102  53.277  1.00  0.00     0.167 HD
BRANCH  11  13
HETATM   13  C7  UNL     1      21.796   1.846  51.974  1.00  0.00     0.035 A 
HETATM   14  C8  UNL     1      21.263   1.939  50.708  1.00  0.00     0.032 A 
HETATM   15  C9  UNL     1      20.166   1.255  50.275  1.00  0.00     0.046 A 
HETATM   16  C10 UNL     1      19.502   0.402  51.108  1.00  0.00     0.138 A 
HETATM   17  F1  UNL     1      18.426  -0.245  50.625  1.00  0.00    -0.204 F 
HETATM   18  C11 UNL     1      19.995   0.264  52.406  1.00  0.00     0.074 A 
HETATM   19 CL1  UNL     1      19.113  -0.840  53.438  1.00  0.00    -0.081 Cl
HETATM   20  C12 UNL     1      21.108   0.979  52.789  1.00  0.00     0.056 A 
ENDBRANCH  11  13
ENDBRANCH   4  11
BRANCH   1  21
HETATM   21  O1  UNL     1      25.441  -1.252  54.767  1.00  0.00    -0.349 OA
BRANCH  21  22
HETATM   22  C2  UNL     1      24.450  -1.124  55.749  1.00  0.00     0.171 C 
HETATM   23  C1  UNL     1      23.068  -1.440  55.223  1.00  0.00     0.034 C 
ENDBRANCH  21  22
ENDBRANCH   1  21
BRANCH  10  24
HETATM   24  O2  UNL     1      28.006  -1.204  53.736  1.00  0.00    -0.353 OA
HETATM   25  C17 UNL     1      29.339  -0.812  53.873  1.00  0.00     0.210 C 
ENDBRANCH  10  24
TORSDOF 5
ENDMDL
MODEL 7
REMARK VINA RESULT:      -7.3      7.365     10.019
REMARK  5 active torsions:
REMARK  status: ('A' for Active; 'I' for Inactive)
REMARK    1  A    between atoms: C2_2  and  O1_3 
REMARK    2  A    between atoms: O1_3  and  C3_4 
REMARK    3  A    between atoms: C6_7  and  N1_8 
REMARK    4  A    between atoms: N1_8  and  C7_9 
REMARK    5  A    between atoms: C16_22  and  O2_23 
ROOT
HETATM    1  C3  UNL     1      31.894   5.304  48.411  1.00  0.00     0.103 A 
HETATM    2  C4  UNL     1      30.613   5.792  48.289  1.00  0.00     0.057 A 
HETATM    3  C5  UNL     1      30.212   7.074  48.581  1.00  0.00     0.042 A 
HETATM    4  C6  UNL     1      28.932   7.542  48.455  1.00  0.00     0.142 A 
HETATM    5  N2  UNL     1      28.798   8.813  48.798  1.00  0.00    -0.224 NA
HETATM    6  C13 UNL     1      29.754   9.638  49.236  1.00  0.00     0.236 A 
HETATM    7  N3  UNL     1      31.004   9.165  49.356  1.00  0.00    -0.241 NA
HETATM    8  C14 UNL     1      31.228   7.885  49.028  1.00  0.00     0.075 A 
HETATM    9  C15 UNL     1      32.527   7.447  49.166  1.00  0.00     0.072 A 
HETATM   10  C16 UNL     1      32.882   6.150  48.862  1.00  0.00     0.103 A 
ENDROOT
BRANCH   4  11
HETATM   11  N1  UNL     1      27.914   6.680  47.988  1.00  0.00    -0.340 N 
HETATM   12  H7  UNL     1      27.668   6.616  46.983  1.00  0.00     0.167 HD
BRANCH  11  13
HETATM   13  C7  UNL     1      27.082   5.794  48.718  1.00  0.00     0.035 A 
HETATM   14  C8  UNL     1      27.275   4.439  48.861  1.00  0.00     0.032 A 
HETATM   15  C9  UNL     1      26.461   3.609  49.573  1.00  0.00     0.046 A 
HETATM   16  C10 UNL     1      25.358   4.096  50.215  1.00  0.00     0.138 A 
HETATM   17  F1  UNL     1      24.592   3.229  50.902  1.00  0.00    -0.204 F 
HETATM   18  C11 UNL     1      25.109   5.464  50.108  1.00  0.00     0.074 A 
HETATM   19 CL1  UNL     1      23.686   6.043  50.946  1.00  0.00    -0.081 Cl
HETATM   20  C12 UNL     1      25.966   6.255  49.375  1.00  0.00     0.056 A 
ENDBRANCH  11  13
ENDBRANCH   4  11
BRANCH   1  21
HETATM   21  O1  UNL     1      32.258   4.003  48.107  1.00  0.00    -0.349 OA
BRANCH  21  22
HETATM   22  C2  UNL     1      32.221   3.425  46.831  1.00  0.00     0.171 C 
HETATM   23  C1  UNL     1      32.535   1.946  46.855  1.00  0.00     0.034 C 
ENDBRANCH  21  22
ENDBRANCH   1  21
BRANCH  10  24
HETATM   24  O2  UNL     1      34.196   5.752  49.017  1.00  0.00    -0.353 OA
HETATM   25  C17 UNL     1      35.240   6.555  48.556  1.00  0.00     0.210 C 
ENDBRANCH  10  24
TORSDOF 5
ENDMDL
MODEL 8
REMARK VINA RESULT:      -7.2      2.295      4.021
REMARK  5 active torsions:
REMARK  status: ('A' for Active; 'I' for Inactive)
REMARK    1  A    between atoms: C2_2  and  O1_3 
REMARK    2  A    between atoms: O1_3  and  C3_4 
REMARK    3  A    between atoms: C6_7  and  N1_8 
REMARK    4  A    between atoms: N1_8  and  C7_9 
REMARK    5  A    between atoms: C16_22  and  O2_23 
ROOT
HETATM    1  C3  UNL     1      24.049   3.158  49.745  1.00  0.00     0.103 A 
HETATM    2  C4  UNL     1      24.417   2.610  50.952  1.00  0.00     0.057 A 
HETATM    3  C5  UNL     1      23.720   1.645  51.639  1.00  0.00     0.042 A 
HETATM    4  C6  UNL     1      24.101   1.111  52.841  1.00  0.00     0.142 A 
HETATM    5  N2  UNL     1      23.263   0.196  53.302  1.00  0.00    -0.224 NA
HETATM    6  C13 UNL     1      22.134  -0.230  52.726  1.00  0.00     0.236 A 
HETATM    7  N3  UNL     1      21.774   0.302  51.549  1.00  0.00    -0.241 NA
HETATM    8  C14 UNL     1      22.568   1.238  51.010  1.00  0.00     0.075 A 
HETATM    9  C15 UNL     1      22.156   1.753  49.800  1.00  0.00     0.072 A 
HETATM   10  C16 UNL     1      22.888   2.722  49.148  1.00  0.00     0.103 A 
ENDROOT
BRANCH   4  11
HETATM   11  N1  UNL     1      25.295   1.551  53.456  1.00  0.00    -0.340 N 
HETATM   12  H7  UNL     1      25.336   2.425  54.012  1.00  0.00     0.167 HD
BRANCH  11  13
HETATM   13  C7  UNL     1      26.581   0.954  53.450  1.00  0.00     0.035 A 
HETATM   14  C8  UNL     1      27.772   1.602  53.687  1.00  0.00     0.032 A 
HETATM   15  C9  UNL     1      28.997   1.003  53.679  1.00  0.00     0.046 A 
HETATM   16  C10 UNL     1      29.119  -0.333  53.424  1.00  0.00     0.138 A 
HETATM   17  F1  UNL     1      30.353  -0.867  53.430  1.00  0.00    -0.204 F 
HETATM   18  C11 UNL     1      27.945  -1.045  53.177  1.00  0.00     0.074 A 
HETATM   19 CL1  UNL     1      28.150  -2.753  52.856  1.00  0.00    -0.081 Cl
HETATM   20  C12 UNL     1      26.735  -0.389  53.198  1.00  0.00     0.056 A 
ENDBRANCH  11  13
ENDBRANCH   4  11
BRANCH   1  21
HETATM   21  O1  UNL     1      24.779   4.131  49.083  1.00  0.00    -0.349 OA
BRANCH  21  22
HETATM   22  C2  UNL     1      24.800   5.495  49.406  1.00  0.00     0.171 C 
HETATM   23  C1  UNL     1      25.916   6.239  48.708  1.00  0.00     0.034 C 
ENDBRANCH  21  22
ENDBRANCH   1  21
BRANCH  10  24
HETATM   24  O2  UNL     1      22.437   3.212  47.937  1.00  0.00    -0.353 OA
HETATM   25  C17 UNL     1      21.113   3.019  47.542  1.00  0.00     0.210 C 
ENDBRANCH  10  24
TORSDOF 5
ENDMDL
MODEL 9
REMARK VINA RESULT:      -7.2      3.757      5.694
REMARK  5 active torsions:
REMARK  status: ('A' for Active; 'I' for Inactive)
REMARK    1  A    between atoms: C2_2  and  O1_3 
REMARK    2  A    between atoms: O1_3  and  C3_4 
REMARK    3  A    between atoms: C6_7  and  N1_8 
REMARK    4  A    between atoms: N1_8  and  C7_9 
REMARK    5  A    between atoms: C16_22  and  O2_23 
ROOT
HETATM    1  C3  UNL     1      23.264   0.558  52.119  1.00  0.00     0.103 A 
HETATM    2  C4  UNL     1      24.218   1.333  51.501  1.00  0.00     0.057 A 
HETATM    3  C5  UNL     1      25.486   1.573  51.974  1.00  0.00     0.042 A 
HETATM    4  C6  UNL     1      26.422   2.349  51.345  1.00  0.00     0.142 A 
HETATM    5  N2  UNL     1      27.570   2.428  52.000  1.00  0.00    -0.224 NA
HETATM    6  C13 UNL     1      27.878   1.845  53.163  1.00  0.00     0.236 A 
HETATM    7  N3  UNL     1      26.951   1.089  53.768  1.00  0.00    -0.241 NA
HETATM    8  C14 UNL     1      25.758   0.955  53.171  1.00  0.00     0.075 A 
HETATM    9  C15 UNL     1      24.839   0.168  53.830  1.00  0.00     0.072 A 
HETATM   10  C16 UNL     1      23.578  -0.044  53.316  1.00  0.00     0.103 A 
ENDROOT
BRANCH   4  11
HETATM   11  N1  UNL     1      26.108   2.965  50.113  1.00  0.00    -0.340 N 
HETATM   12  H7  UNL     1      25.620   2.455  49.353  1.00  0.00     0.167 HD
BRANCH  11  13
HETATM   13  C7  UNL     1      26.365   4.291  49.680  1.00  0.00     0.035 A 
HETATM   14  C8  UNL     1      27.371   4.680  48.824  1.00  0.00     0.032 A 
HETATM   15  C9  UNL     1      27.594   5.962  48.420  1.00  0.00     0.046 A 
HETATM   16  C10 UNL     1      26.799   6.981  48.860  1.00  0.00     0.138 A 
HETATM   17  F1  UNL     1      27.068   8.225  48.427  1.00  0.00    -0.204 F 
HETATM   18  C11 UNL     1      25.760   6.650  49.731  1.00  0.00     0.074 A 
HETATM   19 CL1  UNL     1      24.768   7.987  50.268  1.00  0.00    -0.081 Cl
HETATM   20  C12 UNL     1      25.581   5.337  50.106  1.00  0.00     0.056 A 
ENDBRANCH  11  13
ENDBRANCH   4  11
BRANCH   1  21
HETATM   21  O1  UNL     1      21.995   0.341  51.609  1.00  0.00    -0.349 OA
BRANCH  21  22
HETATM   22  C2  UNL     1      21.247   1.264  50.866  1.00  0.00     0.171 C 
HETATM   23  C1  UNL     1      21.165   0.898  49.401  1.00  0.00     0.034 C 
ENDBRANCH  21  22
ENDBRANCH   1  21
BRANCH  10  24
HETATM   24  O2  UNL     1      22.687  -0.840  54.011  1.00  0.00    -0.353 OA
HETATM   25  C17 UNL     1      21.626  -0.270  54.715  1.00  0.00     0.210 C 
ENDBRANCH  10  24
TORSDOF 5
ENDMDL
