MODEL 1
REMARK VINA RESULT:      -7.5      0.000      0.000
REMARK  6 active torsions:
REMARK  status: ('A' for Active; 'I' for Inactive)
REMARK    1  A    between atoms: C2_2  and  C3_3 
REMARK    2  A    between atoms: C4_4  and  C5_5 
REMARK       I    between atoms: C5_5  and  N1_7 
REMARK    3  A    between atoms: N1_7  and  C6_8 
REMARK    4  A    between atoms: C10_12  and  N2_13 
REMARK    5  A    between atoms: N2_13  and  N3_14 
REMARK    6  A    between atoms: N3_14  and  C11_15 
ROOT
HETATM    1  C6  UNL     1      27.437  -1.352  53.034  1.00  0.00     0.035 A 
HETATM    2  C7  UNL     1      28.123  -2.480  53.093  1.00  0.00     0.027 A 
HETATM    3  C8  UNL     1      29.546  -2.258  53.321  1.00  0.00     0.000 A 
HETATM    4  C9  UNL     1      29.688  -0.944  53.396  1.00  0.00     0.001 A 
HETATM    5  C10 UNL     1      28.394  -0.232  53.227  1.00  0.00     0.149 A 
ENDROOT
BRANCH   5   6
HETATM    6  N2  UNL     1      28.163   0.458  54.484  1.00  0.00    -0.226 NA
HETATM    7  H13 UNL     1      28.861   0.255  55.201  1.00  0.00     0.147 HD
BRANCH   6   8
HETATM    8  N3  UNL     1      27.895   1.807  54.299  1.00  0.00    -0.320 N 
HETATM    9  H14 UNL     1      28.478   2.582  54.735  1.00  0.00     0.181 HD
BRANCH   8  10
HETATM   10  C11 UNL     1      26.791   2.225  53.490  1.00  0.00     0.044 A 
HETATM   11  C12 UNL     1      25.498   2.359  53.967  1.00  0.00     0.030 A 
HETATM   12  C13 UNL     1      24.482   2.766  53.130  1.00  0.00     0.004 A 
HETATM   13  C14 UNL     1      24.721   3.052  51.800  1.00  0.00     0.019 A 
HETATM   14  C15 UNL     1      25.995   2.930  51.289  1.00  0.00     0.013 A 
HETATM   15 BR1  UNL     1      26.482   3.290  49.463  1.00  0.00    -0.051 Br
HETATM   16  C16 UNL     1      26.976   2.519  52.164  1.00  0.00     0.049 A 
ENDBRANCH   8  10
ENDBRANCH   6   8
ENDBRANCH   5   6
BRANCH   1  17
HETATM   17  N1  UNL     1      26.043  -1.170  52.829  1.00  0.00    -0.325 N 
HETATM   18  C5  UNL     1      25.065  -1.002  53.845  1.00  0.00     0.245 C 
HETATM   19  O1  UNL     1      25.431  -1.012  55.046  1.00  0.00    -0.268 OA
HETATM   20  H8  UNL     1      25.636  -1.148  51.867  1.00  0.00     0.169 HD
BRANCH  18  21
HETATM   21  C4  UNL     1      23.648  -0.820  53.549  1.00  0.00     0.070 C 
HETATM   22  C3  UNL     1      22.670  -1.011  54.436  1.00  0.00    -0.022 C 
BRANCH  22  23
HETATM   23  C2  UNL     1      21.207  -0.827  54.143  1.00  0.00     0.023 C 
HETATM   24  C1  UNL     1      20.894   0.668  54.016  1.00  0.00     0.009 C 
ENDBRANCH  22  23
ENDBRANCH  18  21
ENDBRANCH   1  17
TORSDOF 6
ENDMDL
MODEL 2
REMARK VINA RESULT:      -7.4      2.193      4.387
REMARK  6 active torsions:
REMARK  status: ('A' for Active; 'I' for Inactive)
REMARK    1  A    between atoms: C2_2  and  C3_3 
REMARK    2  A    between atoms: C4_4  and  C5_5 
REMARK       I    between atoms: C5_5  and  N1_7 
REMARK    3  A    between atoms: N1_7  and  C6_8 
REMARK    4  A    between atoms: C10_12  and  N2_13 
REMARK    5  A    between atoms: N2_13  and  N3_14 
REMARK    6  A    between atoms: N3_14  and  C11_15 
ROOT
HETATM    1  C6  UNL     1      27.372   1.677  53.709  1.00  0.00     0.035 A 
HETATM    2  C7  UNL     1      28.651   1.705  53.378  1.00  0.00     0.027 A 
HETATM    3  C8  UNL     1      29.404   0.600  53.958  1.00  0.00     0.000 A 
HETATM    4  C9  UNL     1      28.522  -0.098  54.656  1.00  0.00     0.001 A 
HETATM    5  C10 UNL     1      27.159   0.492  54.580  1.00  0.00     0.149 A 
ENDROOT
BRANCH   5   6
HETATM    6  N2  UNL     1      26.337  -0.511  53.926  1.00  0.00    -0.226 NA
HETATM    7  H13 UNL     1      26.872  -1.219  53.420  1.00  0.00     0.147 HD
BRANCH   6   8
HETATM    8  N3  UNL     1      25.359  -1.018  54.770  1.00  0.00    -0.320 N 
HETATM    9  H14 UNL     1      25.576  -1.527  55.677  1.00  0.00     0.181 HD
BRANCH   8  10
HETATM   10  C11 UNL     1      23.973  -0.871  54.444  1.00  0.00     0.044 A 
HETATM   11  C12 UNL     1      22.942  -1.291  55.269  1.00  0.00     0.030 A 
HETATM   12  C13 UNL     1      21.628  -1.118  54.892  1.00  0.00     0.004 A 
HETATM   13  C14 UNL     1      21.301  -0.523  53.688  1.00  0.00     0.019 A 
HETATM   14  C15 UNL     1      22.299  -0.092  52.841  1.00  0.00     0.013 A 
HETATM   15 BR1  UNL     1      22.001   0.750  51.138  1.00  0.00    -0.051 Br
HETATM   16  C16 UNL     1      23.596  -0.288  53.262  1.00  0.00     0.049 A 
ENDBRANCH   8  10
ENDBRANCH   6   8
ENDBRANCH   5   6
BRANCH   1  17
HETATM   17  N1  UNL     1      26.337   2.577  53.339  1.00  0.00    -0.325 N 
HETATM   18  C5  UNL     1      25.537   2.491  52.169  1.00  0.00     0.245 C 
HETATM   19  O1  UNL     1      25.735   1.546  51.367  1.00  0.00    -0.268 OA
HETATM   20  H8  UNL     1      26.094   3.397  53.937  1.00  0.00     0.169 HD
BRANCH  18  21
HETATM   21  C4  UNL     1      24.491   3.460  51.860  1.00  0.00     0.070 C 
HETATM   22  C3  UNL     1      23.529   3.817  52.712  1.00  0.00    -0.022 C 
BRANCH  22  23
HETATM   23  C2  UNL     1      22.447   4.814  52.405  1.00  0.00     0.023 C 
HETATM   24  C1  UNL     1      22.864   5.671  51.206  1.00  0.00     0.009 C 
ENDBRANCH  22  23
ENDBRANCH  18  21
ENDBRANCH   1  17
TORSDOF 6
ENDMDL
MODEL 3
REMARK VINA RESULT:      -7.2      2.919      5.839
REMARK  6 active torsions:
REMARK  status: ('A' for Active; 'I' for Inactive)
REMARK    1  A    between atoms: C2_2  and  C3_3 
REMARK    2  A    between atoms: C4_4  and  C5_5 
REMARK       I    between atoms: C5_5  and  N1_7 
REMARK    3  A    between atoms: N1_7  and  C6_8 
REMARK    4  A    between atoms: C10_12  and  N2_13 
REMARK    5  A    between atoms: N2_13  and  N3_14 
REMARK    6  A    between atoms: N3_14  and  C11_15 
ROOT
HETATM    1  C6  UNL     1      27.495   1.840  53.253  1.00  0.00     0.035 A 
HETATM    2  C7  UNL     1      28.694   1.384  53.569  1.00  0.00     0.027 A 
HETATM    3  C8  UNL     1      28.647   0.334  54.578  1.00  0.00     0.000 A 
HETATM    4  C9  UNL     1      27.362   0.176  54.859  1.00  0.00     0.001 A 
HETATM    5  C10 UNL     1      26.501   1.093  54.067  1.00  0.00     0.149 A 
ENDROOT
BRANCH   5   6
HETATM    6  N2  UNL     1      25.673   0.233  53.241  1.00  0.00    -0.226 NA
HETATM    7  H13 UNL     1      25.666  -0.745  53.538  1.00  0.00     0.147 HD
BRANCH   6   8
HETATM    8  N3  UNL     1      24.418   0.777  53.011  1.00  0.00    -0.320 N 
HETATM    9  H14 UNL     1      24.266   1.717  52.537  1.00  0.00     0.181 HD
BRANCH   8  10
HETATM   10  C11 UNL     1      23.237   0.076  53.413  1.00  0.00     0.044 A 
HETATM   11  C12 UNL     1      23.212  -0.866  54.428  1.00  0.00     0.030 A 
HETATM   12  C13 UNL     1      22.038  -1.505  54.763  1.00  0.00     0.004 A 
HETATM   13  C14 UNL     1      20.857  -1.226  54.102  1.00  0.00     0.019 A 
HETATM   14  C15 UNL     1      20.842  -0.295  53.086  1.00  0.00     0.013 A 
HETATM   15 BR1  UNL     1      19.282   0.198  52.075  1.00  0.00    -0.051 Br
HETATM   16  C16 UNL     1      22.041   0.316  52.788  1.00  0.00     0.049 A 
ENDBRANCH   8  10
ENDBRANCH   6   8
ENDBRANCH   5   6
BRANCH   1  17
HETATM   17  N1  UNL     1      27.146   2.852  52.319  1.00  0.00    -0.325 N 
HETATM   18  C5  UNL     1      26.624   2.640  51.016  1.00  0.00     0.245 C 
HETATM   19  O1  UNL     1      26.441   1.462  50.621  1.00  0.00    -0.268 OA
HETATM   20  H8  UNL     1      27.261   3.864  52.550  1.00  0.00     0.169 HD
BRANCH  18  21
HETATM   21  C4  UNL     1      26.290   3.737  50.115  1.00  0.00     0.070 C 
HETATM   22  C3  UNL     1      27.195   4.459  49.450  1.00  0.00    -0.022 C 
BRANCH  22  23
HETATM   23  C2  UNL     1      26.863   5.592  48.520  1.00  0.00     0.023 C 
HETATM   24  C1  UNL     1      28.151   6.308  48.104  1.00  0.00     0.009 C 
ENDBRANCH  22  23
ENDBRANCH  18  21
ENDBRANCH   1  17
TORSDOF 6
ENDMDL
MODEL 4
REMARK VINA RESULT:      -6.8      3.667      6.018
REMARK  6 active torsions:
REMARK  status: ('A' for Active; 'I' for Inactive)
REMARK    1  A    between atoms: C2_2  and  C3_3 
REMARK    2  A    between atoms: C4_4  and  C5_5 
REMARK       I    between atoms: C5_5  and  N1_7 
REMARK    3  A    between atoms: N1_7  and  C6_8 
REMARK    4  A    between atoms: C10_12  and  N2_13 
REMARK    5  A    between atoms: N2_13  and  N3_14 
REMARK    6  A    between atoms: N3_14  and  C11_15 
ROOT
HETATM    1  C6  UNL     1      26.522   1.820  52.118  1.00  0.00     0.035 A 
HETATM    2  C7  UNL     1      26.707   0.514  52.049  1.00  0.00     0.027 A 
HETATM    3  C8  UNL     1      26.047  -0.204  53.132  1.00  0.00     0.000 A 
HETATM    4  C9  UNL     1      25.455   0.730  53.861  1.00  0.00     0.001 A 
HETATM    5  C10 UNL     1      25.682   2.093  53.313  1.00  0.00     0.149 A 
ENDROOT
BRANCH   5   6
HETATM    6  N2  UNL     1      24.368   2.587  52.941  1.00  0.00    -0.226 NA
HETATM    7  H13 UNL     1      23.597   2.084  53.384  1.00  0.00     0.147 HD
BRANCH   6   8
HETATM    8  N3  UNL     1      24.284   3.969  53.026  1.00  0.00    -0.320 N 
HETATM    9  H14 UNL     1      24.905   4.554  53.661  1.00  0.00     0.181 HD
BRANCH   8  10
HETATM   10  C11 UNL     1      23.330   4.689  52.239  1.00  0.00     0.044 A 
HETATM   11  C12 UNL     1      22.013   4.292  52.077  1.00  0.00     0.030 A 
HETATM   12  C13 UNL     1      21.148   5.033  51.303  1.00  0.00     0.004 A 
HETATM   13  C14 UNL     1      21.564   6.189  50.670  1.00  0.00     0.019 A 
HETATM   14  C15 UNL     1      22.867   6.617  50.808  1.00  0.00     0.013 A 
HETATM   15 BR1  UNL     1      23.593   8.199  49.990  1.00  0.00    -0.051 Br
HETATM   16  C16 UNL     1      23.694   5.841  51.591  1.00  0.00     0.049 A 
ENDBRANCH   8  10
ENDBRANCH   6   8
ENDBRANCH   5   6
BRANCH   1  17
HETATM   17  N1  UNL     1      27.004   2.834  51.248  1.00  0.00    -0.325 N 
HETATM   18  C5  UNL     1      26.302   3.392  50.147  1.00  0.00     0.245 C 
HETATM   19  O1  UNL     1      25.146   2.973  49.890  1.00  0.00    -0.268 OA
HETATM   20  H8  UNL     1      27.954   3.248  51.375  1.00  0.00     0.169 HD
BRANCH  18  21
HETATM   21  C4  UNL     1      26.871   4.433  49.298  1.00  0.00     0.070 C 
HETATM   22  C3  UNL     1      26.315   5.632  49.114  1.00  0.00    -0.022 C 
BRANCH  22  23
HETATM   23  C2  UNL     1      26.891   6.713  48.242  1.00  0.00     0.023 C 
HETATM   24  C1  UNL     1      28.392   6.470  48.049  1.00  0.00     0.009 C 
ENDBRANCH  22  23
ENDBRANCH  18  21
ENDBRANCH   1  17
TORSDOF 6
ENDMDL
MODEL 5
REMARK VINA RESULT:      -6.8      2.317      5.748
REMARK  6 active torsions:
REMARK  status: ('A' for Active; 'I' for Inactive)
REMARK    1  A    between atoms: C2_2  and  C3_3 
REMARK    2  A    between atoms: C4_4  and  C5_5 
REMARK       I    between atoms: C5_5  and  N1_7 
REMARK    3  A    between atoms: N1_7  and  C6_8 
REMARK    4  A    between atoms: C10_12  and  N2_13 
REMARK    5  A    between atoms: N2_13  and  N3_14 
REMARK    6  A    between atoms: N3_14  and  C11_15 
ROOT
HETATM    1  C6  UNL     1      22.470   0.446  52.933  1.00  0.00     0.035 A 
HETATM    2  C7  UNL     1      21.515   0.661  53.819  1.00  0.00     0.027 A 
HETATM    3  C8  UNL     1      21.401  -0.417  54.794  1.00  0.00     0.000 A 
HETATM    4  C9  UNL     1      22.333  -1.294  54.456  1.00  0.00     0.001 A 
HETATM    5  C10 UNL     1      23.103  -0.858  53.261  1.00  0.00     0.149 A 
ENDROOT
BRANCH   5   6
HETATM    6  N2  UNL     1      24.470  -0.687  53.720  1.00  0.00    -0.226 NA
HETATM    7  H13 UNL     1      24.669  -1.152  54.608  1.00  0.00     0.147 HD
BRANCH   6   8
HETATM    8  N3  UNL     1      25.395  -0.934  52.716  1.00  0.00    -0.320 N 
HETATM    9  H14 UNL     1      25.124  -1.126  51.706  1.00  0.00     0.181 HD
BRANCH   8  10
HETATM   10  C11 UNL     1      26.797  -0.941  53.006  1.00  0.00     0.044 A 
HETATM   11  C12 UNL     1      27.603  -2.059  52.872  1.00  0.00     0.030 A 
HETATM   12  C13 UNL     1      28.947  -1.993  53.169  1.00  0.00     0.004 A 
HETATM   13  C14 UNL     1      29.527  -0.818  53.606  1.00  0.00     0.019 A 
HETATM   14  C15 UNL     1      28.758   0.316  53.751  1.00  0.00     0.013 A 
HETATM   15 BR1  UNL     1      29.419   2.020  54.347  1.00  0.00    -0.051 Br
HETATM   16  C16 UNL     1      27.420   0.200  53.442  1.00  0.00     0.049 A 
ENDBRANCH   8  10
ENDBRANCH   6   8
ENDBRANCH   5   6
BRANCH   1  17
HETATM   17  N1  UNL     1      22.873   1.264  51.843  1.00  0.00    -0.325 N 
HETATM   18  C5  UNL     1      23.969   2.167  51.839  1.00  0.00     0.245 C 
HETATM   19  O1  UNL     1      24.667   2.277  52.877  1.00  0.00    -0.268 OA
HETATM   20  H8  UNL     1      22.358   1.247  50.935  1.00  0.00     0.169 HD
BRANCH  18  21
HETATM   21  C4  UNL     1      24.318   2.974  50.675  1.00  0.00     0.070 C 
HETATM   22  C3  UNL     1      23.474   3.808  50.065  1.00  0.00    -0.022 C 
BRANCH  22  23
HETATM   23  C2  UNL     1      23.822   4.644  48.866  1.00  0.00     0.023 C 
HETATM   24  C1  UNL     1      25.230   5.223  49.035  1.00  0.00     0.009 C 
ENDBRANCH  22  23
ENDBRANCH  18  21
ENDBRANCH   1  17
TORSDOF 6
ENDMDL
MODEL 6
REMARK VINA RESULT:      -6.8      2.804      5.096
REMARK  6 active torsions:
REMARK  status: ('A' for Active; 'I' for Inactive)
REMARK    1  A    between atoms: C2_2  and  C3_3 
REMARK    2  A    between atoms: C4_4  and  C5_5 
REMARK       I    between atoms: C5_5  and  N1_7 
REMARK    3  A    between atoms: N1_7  and  C6_8 
REMARK    4  A    between atoms: C10_12  and  N2_13 
REMARK    5  A    between atoms: N2_13  and  N3_14 
REMARK    6  A    between atoms: N3_14  and  C11_15 
ROOT
HETATM    1  C6  UNL     1      24.061   2.918  50.397  1.00  0.00     0.035 A 
HETATM    2  C7  UNL     1      23.850   3.370  49.174  1.00  0.00     0.027 A 
HETATM    3  C8  UNL     1      24.560   4.615  48.907  1.00  0.00     0.000 A 
HETATM    4  C9  UNL     1      25.209   4.895  50.026  1.00  0.00     0.001 A 
HETATM    5  C10 UNL     1      24.973   3.872  51.079  1.00  0.00     0.149 A 
ENDROOT
BRANCH   5   6
HETATM    6  N2  UNL     1      26.271   3.277  51.340  1.00  0.00    -0.226 NA
HETATM    7  H13 UNL     1      27.057   3.825  50.985  1.00  0.00     0.147 HD
BRANCH   6   8
HETATM    8  N3  UNL     1      26.402   2.863  52.658  1.00  0.00    -0.320 N 
HETATM    9  H14 UNL     1      25.855   3.291  53.462  1.00  0.00     0.181 HD
BRANCH   8  10
HETATM   10  C11 UNL     1      27.306   1.808  53.001  1.00  0.00     0.044 A 
HETATM   11  C12 UNL     1      28.522   2.013  53.633  1.00  0.00     0.030 A 
HETATM   12  C13 UNL     1      29.344   0.950  53.933  1.00  0.00     0.004 A 
HETATM   13  C14 UNL     1      28.983  -0.346  53.618  1.00  0.00     0.019 A 
HETATM   14  C15 UNL     1      27.781  -0.591  52.990  1.00  0.00     0.013 A 
HETATM   15 BR1  UNL     1      27.142  -2.334  52.488  1.00  0.00    -0.051 Br
HETATM   16  C16 UNL     1      26.994   0.505  52.709  1.00  0.00     0.049 A 
ENDBRANCH   8  10
ENDBRANCH   6   8
ENDBRANCH   5   6
BRANCH   1  17
HETATM   17  N1  UNL     1      23.546   1.746  51.013  1.00  0.00    -0.325 N 
HETATM   18  C5  UNL     1      22.468   1.693  51.936  1.00  0.00     0.245 C 
HETATM   19  O1  UNL     1      21.895   2.763  52.260  1.00  0.00    -0.268 OA
HETATM   20  H8  UNL     1      23.952   0.805  50.811  1.00  0.00     0.169 HD
BRANCH  18  21
HETATM   21  C4  UNL     1      21.998   0.445  52.525  1.00  0.00     0.070 C 
HETATM   22  C3  UNL     1      22.035   0.175  53.831  1.00  0.00    -0.022 C 
BRANCH  22  23
HETATM   23  C2  UNL     1      21.555  -1.108  54.449  1.00  0.00     0.023 C 
HETATM   24  C1  UNL     1      22.648  -1.682  55.357  1.00  0.00     0.009 C 
ENDBRANCH  22  23
ENDBRANCH  18  21
ENDBRANCH   1  17
TORSDOF 6
ENDMDL
MODEL 7
REMARK VINA RESULT:      -6.7      2.603      3.359
REMARK  6 active torsions:
REMARK  status: ('A' for Active; 'I' for Inactive)
REMARK    1  A    between atoms: C2_2  and  C3_3 
REMARK    2  A    between atoms: C4_4  and  C5_5 
REMARK       I    between atoms: C5_5  and  N1_7 
REMARK    3  A    between atoms: N1_7  and  C6_8 
REMARK    4  A    between atoms: C10_12  and  N2_13 
REMARK    5  A    between atoms: N2_13  and  N3_14 
REMARK    6  A    between atoms: N3_14  and  C11_15 
ROOT
HETATM    1  C6  UNL     1      26.206   0.549  53.179  1.00  0.00     0.035 A 
HETATM    2  C7  UNL     1      26.869   0.233  54.277  1.00  0.00     0.027 A 
HETATM    3  C8  UNL     1      28.219   0.782  54.295  1.00  0.00     0.000 A 
HETATM    4  C9  UNL     1      28.342   1.444  53.155  1.00  0.00     0.001 A 
HETATM    5  C10 UNL     1      27.105   1.376  52.333  1.00  0.00     0.149 A 
ENDROOT
BRANCH   5   6
HETATM    6  N2  UNL     1      26.632   2.744  52.229  1.00  0.00    -0.226 NA
HETATM    7  H13 UNL     1      26.903   3.338  53.015  1.00  0.00     0.147 HD
BRANCH   6   8
HETATM    8  N3  UNL     1      26.881   3.291  50.978  1.00  0.00    -0.320 N 
HETATM    9  H14 UNL     1      27.851   3.348  50.548  1.00  0.00     0.181 HD
BRANCH   8  10
HETATM   10  C11 UNL     1      25.809   3.817  50.189  1.00  0.00     0.044 A 
HETATM   11  C12 UNL     1      25.807   5.093  49.651  1.00  0.00     0.030 A 
HETATM   12  C13 UNL     1      24.739   5.535  48.900  1.00  0.00     0.004 A 
HETATM   13  C14 UNL     1      23.646   4.723  48.661  1.00  0.00     0.019 A 
HETATM   14  C15 UNL     1      23.613   3.447  49.180  1.00  0.00     0.013 A 
HETATM   15 BR1  UNL     1      22.165   2.204  48.936  1.00  0.00    -0.051 Br
HETATM   16  C16 UNL     1      24.703   3.052  49.924  1.00  0.00     0.049 A 
ENDBRANCH   8  10
ENDBRANCH   6   8
ENDBRANCH   5   6
BRANCH   1  17
HETATM   17  N1  UNL     1      24.879   0.201  52.810  1.00  0.00    -0.325 N 
HETATM   18  C5  UNL     1      23.745   1.052  52.872  1.00  0.00     0.245 C 
HETATM   19  O1  UNL     1      23.893   2.228  53.287  1.00  0.00    -0.268 OA
HETATM   20  H8  UNL     1      24.651  -0.754  52.453  1.00  0.00     0.169 HD
BRANCH  18  21
HETATM   21  C4  UNL     1      22.412   0.616  52.473  1.00  0.00     0.070 C 
HETATM   22  C3  UNL     1      21.353   0.615  53.284  1.00  0.00    -0.022 C 
BRANCH  22  23
HETATM   23  C2  UNL     1      19.975   0.167  52.884  1.00  0.00     0.023 C 
HETATM   24  C1  UNL     1      19.819   0.281  51.364  1.00  0.00     0.009 C 
ENDBRANCH  22  23
ENDBRANCH  18  21
ENDBRANCH   1  17
TORSDOF 6
ENDMDL
MODEL 8
REMARK VINA RESULT:      -6.5      3.412      6.202
REMARK  6 active torsions:
REMARK  status: ('A' for Active; 'I' for Inactive)
REMARK    1  A    between atoms: C2_2  and  C3_3 
REMARK    2  A    between atoms: C4_4  and  C5_5 
REMARK       I    between atoms: C5_5  and  N1_7 
REMARK    3  A    between atoms: N1_7  and  C6_8 
REMARK    4  A    between atoms: C10_12  and  N2_13 
REMARK    5  A    between atoms: N2_13  and  N3_14 
REMARK    6  A    between atoms: N3_14  and  C11_15 
ROOT
HETATM    1  C6  UNL     1      23.071   0.208  53.230  1.00  0.00     0.035 A 
HETATM    2  C7  UNL     1      23.156  -0.708  54.178  1.00  0.00     0.027 A 
HETATM    3  C8  UNL     1      21.909  -0.866  54.917  1.00  0.00     0.000 A 
HETATM    4  C9  UNL     1      21.067  -0.002  54.371  1.00  0.00     0.001 A 
HETATM    5  C10 UNL     1      21.693   0.762  53.261  1.00  0.00     0.149 A 
ENDROOT
BRANCH   5   6
HETATM    6  N2  UNL     1      20.945   0.401  52.070  1.00  0.00    -0.226 NA
HETATM    7  H13 UNL     1      20.241  -0.322  52.227  1.00  0.00     0.147 HD
BRANCH   6   8
HETATM    8  N3  UNL     1      20.488   1.515  51.380  1.00  0.00    -0.320 N 
HETATM    9  H14 UNL     1      19.606   2.046  51.647  1.00  0.00     0.181 HD
BRANCH   8  10
HETATM   10  C11 UNL     1      21.206   2.013  50.247  1.00  0.00     0.044 A 
HETATM   11  C12 UNL     1      21.558   1.232  49.158  1.00  0.00     0.030 A 
HETATM   12  C13 UNL     1      22.251   1.778  48.099  1.00  0.00     0.004 A 
HETATM   13  C14 UNL     1      22.613   3.112  48.092  1.00  0.00     0.019 A 
HETATM   14  C15 UNL     1      22.280   3.920  49.157  1.00  0.00     0.013 A 
HETATM   15 BR1  UNL     1      22.713   5.789  49.291  1.00  0.00    -0.051 Br
HETATM   16  C16 UNL     1      21.588   3.328  50.191  1.00  0.00     0.049 A 
ENDBRANCH   8  10
ENDBRANCH   6   8
ENDBRANCH   5   6
BRANCH   1  17
HETATM   17  N1  UNL     1      24.070   0.634  52.313  1.00  0.00    -0.325 N 
HETATM   18  C5  UNL     1      24.693   1.909  52.293  1.00  0.00     0.245 C 
HETATM   19  O1  UNL     1      24.354   2.763  53.149  1.00  0.00    -0.268 OA
HETATM   20  H8  UNL     1      24.421  -0.001  51.562  1.00  0.00     0.169 HD
BRANCH  18  21
HETATM   21  C4  UNL     1      25.714   2.269  51.315  1.00  0.00     0.070 C 
HETATM   22  C3  UNL     1      25.596   3.278  50.449  1.00  0.00    -0.022 C 
BRANCH  22  23
HETATM   23  C2  UNL     1      26.641   3.658  49.437  1.00  0.00     0.023 C 
HETATM   24  C1  UNL     1      26.455   5.124  49.035  1.00  0.00     0.009 C 
ENDBRANCH  22  23
ENDBRANCH  18  21
ENDBRANCH   1  17
TORSDOF 6
ENDMDL
MODEL 9
REMARK VINA RESULT:      -6.3      4.264      6.410
REMARK  6 active torsions:
REMARK  status: ('A' for Active; 'I' for Inactive)
REMARK    1  A    between atoms: C2_2  and  C3_3 
REMARK    2  A    between atoms: C4_4  and  C5_5 
REMARK       I    between atoms: C5_5  and  N1_7 
REMARK    3  A    between atoms: N1_7  and  C6_8 
REMARK    4  A    between atoms: C10_12  and  N2_13 
REMARK    5  A    between atoms: N2_13  and  N3_14 
REMARK    6  A    between atoms: N3_14  and  C11_15 
ROOT
HETATM    1  C6  UNL     1      26.534   5.106  49.630  1.00  0.00     0.035 A 
HETATM    2  C7  UNL     1      27.363   5.369  48.635  1.00  0.00     0.027 A 
HETATM    3  C8  UNL     1      27.071   6.639  47.982  1.00  0.00     0.000 A 
HETATM    4  C9  UNL     1      26.026   7.132  48.628  1.00  0.00     0.001 A 
HETATM    5  C10 UNL     1      25.574   6.236  49.726  1.00  0.00     0.149 A 
ENDROOT
BRANCH   5   6
HETATM    6  N2  UNL     1      25.762   6.995  50.949  1.00  0.00    -0.226 NA
HETATM    7  H13 UNL     1      26.395   7.791  50.850  1.00  0.00     0.147 HD
BRANCH   6   8
HETATM    8  N3  UNL     1      24.558   7.288  51.575  1.00  0.00    -0.320 N 
HETATM    9  H14 UNL     1      24.363   8.212  52.062  1.00  0.00     0.181 HD
BRANCH   8  10
HETATM   10  C11 UNL     1      23.495   6.329  51.589  1.00  0.00     0.044 A 
HETATM   11  C12 UNL     1      23.495   5.196  52.385  1.00  0.00     0.030 A 
HETATM   12  C13 UNL     1      22.437   4.314  52.349  1.00  0.00     0.004 A 
HETATM   13  C14 UNL     1      21.351   4.533  51.523  1.00  0.00     0.019 A 
HETATM   14  C15 UNL     1      21.315   5.650  50.717  1.00  0.00     0.013 A 
HETATM   15 BR1  UNL     1      19.876   6.089  49.518  1.00  0.00    -0.051 Br
HETATM   16  C16 UNL     1      22.396   6.500  50.789  1.00  0.00     0.049 A 
ENDBRANCH   8  10
ENDBRANCH   6   8
ENDBRANCH   5   6
BRANCH   1  17
HETATM   17  N1  UNL     1      26.506   3.976  50.491  1.00  0.00    -0.325 N 
HETATM   18  C5  UNL     1      25.493   2.983  50.530  1.00  0.00     0.245 C 
HETATM   19  O1  UNL     1      24.516   3.081  49.747  1.00  0.00    -0.268 OA
HETATM   20  H8  UNL     1      27.271   3.803  51.180  1.00  0.00     0.169 HD
BRANCH  18  21
HETATM   21  C4  UNL     1      25.539   1.849  51.447  1.00  0.00     0.070 C 
HETATM   22  C3  UNL     1      24.460   1.290  51.998  1.00  0.00    -0.022 C 
BRANCH  22  23
HETATM   23  C2  UNL     1      24.495   0.122  52.944  1.00  0.00     0.023 C 
HETATM   24  C1  UNL     1      23.078  -0.178  53.442  1.00  0.00     0.009 C 
ENDBRANCH  22  23
ENDBRANCH  18  21
ENDBRANCH   1  17
TORSDOF 6
ENDMDL
