MODEL 1
REMARK VINA RESULT:      -7.3      0.000      0.000
REMARK  7 active torsions:
REMARK  status: ('A' for Active; 'I' for Inactive)
REMARK    1  A    between atoms: O1_2  and  C2_3 
REMARK    2  A    between atoms: N1_7  and  C6_8 
REMARK    3  A    between atoms: C6_8  and  C7_9 
REMARK    4  A    between atoms: N2_10  and  C8_11 
REMARK    5  A    between atoms: C8_11  and  N3_12 
REMARK    6  A    between atoms: N3_12  and  C9_13 
REMARK    7  A    between atoms: C17_21  and  O2_22 
ROOT
HETATM    1  C6  UNL     1      23.419   3.739  52.730  1.00  0.00     0.195 C 
ENDROOT
BRANCH   1   2
HETATM    2  N1  UNL     1      23.447   2.292  52.671  1.00  0.00    -0.289 NA
HETATM    3  C5  UNL     1      24.489   1.632  53.053  1.00  0.00     0.035 A 
HETATM    4  C4  UNL     1      24.275   0.166  52.898  1.00  0.00     0.088 A 
HETATM    5  C16 UNL     1      25.742   2.171  53.577  1.00  0.00     0.066 A 
HETATM    6  C3  UNL     1      25.481  -0.585  53.341  1.00  0.00     0.019 A 
HETATM    7  C2  UNL     1      26.620  -0.105  53.816  1.00  0.00     0.098 A 
HETATM    8  C17 UNL     1      26.723   1.353  53.927  1.00  0.00     0.103 A 
BRANCH   7   9
HETATM    9  O1  UNL     1      27.743  -0.810  54.228  1.00  0.00    -0.353 OA
HETATM   10  C1  UNL     1      28.637  -1.396  53.299  1.00  0.00     0.210 C 
ENDBRANCH   7   9
BRANCH   8  11
HETATM   11  O2  UNL     1      27.847   2.025  54.405  1.00  0.00    -0.353 OA
HETATM   12  C18 UNL     1      28.847   2.543  53.579  1.00  0.00     0.210 C 
ENDBRANCH   8  11
ENDBRANCH   1   2
BRANCH   1  13
HETATM   13  C7  UNL     1      22.175   4.220  52.065  1.00  0.00     0.107 C 
HETATM   14  N2  UNL     1      21.617   4.368  50.909  1.00  0.00    -0.285 NA
BRANCH  14  15
HETATM   15  C8  UNL     1      22.429   3.928  49.791  1.00  0.00     0.269 C 
BRANCH  15  16
HETATM   16  N3  UNL     1      23.254   5.005  49.283  1.00  0.00    -0.372 N 
HETATM   17  H12 UNL     1      22.825   5.893  49.000  1.00  0.00     0.161 HD
BRANCH  16  18
HETATM   18  C9  UNL     1      24.662   4.830  49.175  1.00  0.00     0.029 A 
HETATM   19  C10 UNL     1      25.278   3.635  49.484  1.00  0.00     0.029 A 
HETATM   20  C11 UNL     1      26.655   3.505  49.366  1.00  0.00     0.003 A 
HETATM   21  C12 UNL     1      27.467   4.552  48.939  1.00  0.00     0.007 A 
HETATM   22  C13 UNL     1      26.829   5.722  48.641  1.00  0.00    -0.060 A 
HETATM   23  C14 UNL     1      27.674   6.862  48.181  1.00  0.00     0.048 C 
HETATM   24  C15 UNL     1      25.464   5.870  48.752  1.00  0.00     0.036 A 
ENDBRANCH  16  18
ENDBRANCH  15  16
ENDBRANCH  14  15
ENDBRANCH   1  13
TORSDOF 7
ENDMDL
MODEL 2
REMARK VINA RESULT:      -6.9      2.973      6.295
REMARK  7 active torsions:
REMARK  status: ('A' for Active; 'I' for Inactive)
REMARK    1  A    between atoms: O1_2  and  C2_3 
REMARK    2  A    between atoms: N1_7  and  C6_8 
REMARK    3  A    between atoms: C6_8  and  C7_9 
REMARK    4  A    between atoms: N2_10  and  C8_11 
REMARK    5  A    between atoms: C8_11  and  N3_12 
REMARK    6  A    between atoms: N3_12  and  C9_13 
REMARK    7  A    between atoms: C17_21  and  O2_22 
ROOT
HETATM    1  C6  UNL     1      23.591   2.154  52.539  1.00  0.00     0.195 C 
ENDROOT
BRANCH   1   2
HETATM    2  N1  UNL     1      24.788   2.057  51.729  1.00  0.00    -0.289 NA
HETATM    3  C5  UNL     1      25.168   3.040  50.984  1.00  0.00     0.035 A 
HETATM    4  C4  UNL     1      26.420   2.699  50.253  1.00  0.00     0.088 A 
HETATM    5  C16 UNL     1      24.517   4.338  50.823  1.00  0.00     0.066 A 
HETATM    6  C3  UNL     1      26.848   3.839  49.397  1.00  0.00     0.019 A 
HETATM    7  C2  UNL     1      26.265   5.018  49.245  1.00  0.00     0.098 A 
HETATM    8  C17 UNL     1      25.038   5.247  50.012  1.00  0.00     0.103 A 
BRANCH   7   9
HETATM    9  O1  UNL     1      26.669   6.078  48.445  1.00  0.00    -0.353 OA
HETATM   10  C1  UNL     1      28.035   6.311  48.151  1.00  0.00     0.210 C 
ENDBRANCH   7   9
BRANCH   8  11
HETATM   11  O2  UNL     1      24.297   6.428  49.972  1.00  0.00    -0.353 OA
HETATM   12  C18 UNL     1      23.803   7.069  51.110  1.00  0.00     0.210 C 
ENDBRANCH   8  11
ENDBRANCH   1   2
BRANCH   1  13
HETATM   13  C7  UNL     1      23.003   0.793  52.688  1.00  0.00     0.107 C 
HETATM   14  N2  UNL     1      23.250  -0.391  53.143  1.00  0.00    -0.285 NA
BRANCH  14  15
HETATM   15  C8  UNL     1      24.560  -0.539  53.749  1.00  0.00     0.269 C 
BRANCH  15  16
HETATM   16  N3  UNL     1      25.576  -0.795  52.749  1.00  0.00    -0.372 N 
HETATM   17  H12 UNL     1      25.312  -1.157  51.827  1.00  0.00     0.161 HD
BRANCH  16  18
HETATM   18  C9  UNL     1      26.945  -0.544  53.048  1.00  0.00     0.029 A 
HETATM   19  C10 UNL     1      27.879  -1.556  53.112  1.00  0.00     0.029 A 
HETATM   20  C11 UNL     1      29.205  -1.269  53.408  1.00  0.00     0.003 A 
HETATM   21  C12 UNL     1      29.649   0.027  53.650  1.00  0.00     0.007 A 
HETATM   22  C13 UNL     1      28.701   1.008  53.581  1.00  0.00    -0.060 A 
HETATM   23  C14 UNL     1      29.149   2.408  53.836  1.00  0.00     0.048 C 
HETATM   24  C15 UNL     1      27.381   0.743  53.288  1.00  0.00     0.036 A 
ENDBRANCH  16  18
ENDBRANCH  15  16
ENDBRANCH  14  15
ENDBRANCH   1  13
TORSDOF 7
ENDMDL
MODEL 3
REMARK VINA RESULT:      -6.7      3.030      6.412
REMARK  7 active torsions:
REMARK  status: ('A' for Active; 'I' for Inactive)
REMARK    1  A    between atoms: O1_2  and  C2_3 
REMARK    2  A    between atoms: N1_7  and  C6_8 
REMARK    3  A    between atoms: C6_8  and  C7_9 
REMARK    4  A    between atoms: N2_10  and  C8_11 
REMARK    5  A    between atoms: C8_11  and  N3_12 
REMARK    6  A    between atoms: N3_12  and  C9_13 
REMARK    7  A    between atoms: C17_21  and  O2_22 
ROOT
HETATM    1  C6  UNL     1      25.415   6.008  48.788  1.00  0.00     0.195 C 
ENDROOT
BRANCH   1   2
HETATM    2  N1  UNL     1      24.938   6.078  50.154  1.00  0.00    -0.289 NA
HETATM    3  C5  UNL     1      23.866   5.456  50.516  1.00  0.00     0.035 A 
HETATM    4  C4  UNL     1      23.584   5.681  51.961  1.00  0.00     0.088 A 
HETATM    5  C16 UNL     1      22.994   4.627  49.687  1.00  0.00     0.066 A 
HETATM    6  C3  UNL     1      22.347   4.960  52.368  1.00  0.00     0.019 A 
HETATM    7  C2  UNL     1      21.552   4.207  51.623  1.00  0.00     0.098 A 
HETATM    8  C17 UNL     1      21.924   4.053  50.214  1.00  0.00     0.103 A 
BRANCH   7   9
HETATM    9  O1  UNL     1      20.398   3.537  52.008  1.00  0.00    -0.353 OA
HETATM   10  C1  UNL     1      20.448   2.260  52.619  1.00  0.00     0.210 C 
ENDBRANCH   7   9
BRANCH   8  11
HETATM   11  O2  UNL     1      21.200   3.299  49.291  1.00  0.00    -0.353 OA
HETATM   12  C18 UNL     1      21.794   2.495  48.316  1.00  0.00     0.210 C 
ENDBRANCH   8  11
ENDBRANCH   1   2
BRANCH   1  13
HETATM   13  C7  UNL     1      26.793   5.440  48.790  1.00  0.00     0.107 C 
HETATM   14  N2  UNL     1      27.465   4.372  49.068  1.00  0.00    -0.285 NA
BRANCH  14  15
HETATM   15  C8  UNL     1      26.662   3.270  49.564  1.00  0.00     0.269 C 
BRANCH  15  16
HETATM   16  N3  UNL     1      26.624   3.257  51.012  1.00  0.00    -0.372 N 
HETATM   17  H12 UNL     1      27.032   4.032  51.545  1.00  0.00     0.161 HD
BRANCH  16  18
HETATM   18  C9  UNL     1      26.020   2.164  51.696  1.00  0.00     0.029 A 
HETATM   19  C10 UNL     1      24.750   2.244  52.227  1.00  0.00     0.029 A 
HETATM   20  C11 UNL     1      24.196   1.156  52.889  1.00  0.00     0.003 A 
HETATM   21  C12 UNL     1      24.881  -0.045  53.045  1.00  0.00     0.007 A 
HETATM   22  C13 UNL     1      26.136  -0.094  52.509  1.00  0.00    -0.060 A 
HETATM   23  C14 UNL     1      26.894  -1.370  52.662  1.00  0.00     0.048 C 
HETATM   24  C15 UNL     1      26.702   0.975  51.849  1.00  0.00     0.036 A 
ENDBRANCH  16  18
ENDBRANCH  15  16
ENDBRANCH  14  15
ENDBRANCH   1  13
TORSDOF 7
ENDMDL
MODEL 4
REMARK VINA RESULT:      -6.7      3.733      6.148
REMARK  7 active torsions:
REMARK  status: ('A' for Active; 'I' for Inactive)
REMARK    1  A    between atoms: O1_2  and  C2_3 
REMARK    2  A    between atoms: N1_7  and  C6_8 
REMARK    3  A    between atoms: C6_8  and  C7_9 
REMARK    4  A    between atoms: N2_10  and  C8_11 
REMARK    5  A    between atoms: C8_11  and  N3_12 
REMARK    6  A    between atoms: N3_12  and  C9_13 
REMARK    7  A    between atoms: C17_21  and  O2_22 
ROOT
HETATM    1  C6  UNL     1      22.115   3.524  52.330  1.00  0.00     0.195 C 
ENDROOT
BRANCH   1   2
HETATM    2  N1  UNL     1      20.969   2.812  51.800  1.00  0.00    -0.289 NA
HETATM    3  C5  UNL     1      20.569   1.706  52.333  1.00  0.00     0.035 A 
HETATM    4  C4  UNL     1      19.380   1.171  51.614  1.00  0.00     0.088 A 
HETATM    5  C16 UNL     1      21.146   1.011  53.481  1.00  0.00     0.066 A 
HETATM    6  C3  UNL     1      18.927  -0.103  52.235  1.00  0.00     0.019 A 
HETATM    7  C2  UNL     1      19.443  -0.740  53.275  1.00  0.00     0.098 A 
HETATM    8  C17 UNL     1      20.613  -0.123  53.908  1.00  0.00     0.103 A 
BRANCH   7   9
HETATM    9  O1  UNL     1      19.017  -1.929  53.851  1.00  0.00    -0.353 OA
HETATM   10  C1  UNL     1      17.751  -2.489  53.552  1.00  0.00     0.210 C 
ENDBRANCH   7   9
BRANCH   8  11
HETATM   11  O2  UNL     1      21.280  -0.658  55.009  1.00  0.00    -0.353 OA
HETATM   12  C18 UNL     1      22.553  -1.229  54.939  1.00  0.00     0.210 C 
ENDBRANCH   8  11
ENDBRANCH   1   2
BRANCH   1  13
HETATM   13  C7  UNL     1      23.015   3.890  51.201  1.00  0.00     0.107 C 
HETATM   14  N2  UNL     1      24.109   3.548  50.603  1.00  0.00    -0.285 NA
BRANCH  14  15
HETATM   15  C8  UNL     1      24.768   2.390  51.177  1.00  0.00     0.269 C 
BRANCH  15  16
HETATM   16  N3  UNL     1      25.927   2.777  51.956  1.00  0.00    -0.372 N 
HETATM   17  H12 UNL     1      26.114   3.767  52.144  1.00  0.00     0.161 HD
BRANCH  16  18
HETATM   18  C9  UNL     1      26.808   1.779  52.459  1.00  0.00     0.029 A 
HETATM   19  C10 UNL     1      27.974   2.098  53.123  1.00  0.00     0.029 A 
HETATM   20  C11 UNL     1      28.808   1.094  53.598  1.00  0.00     0.003 A 
HETATM   21  C12 UNL     1      28.516  -0.256  53.431  1.00  0.00     0.007 A 
HETATM   22  C13 UNL     1      27.355  -0.541  52.770  1.00  0.00    -0.060 A 
HETATM   23  C14 UNL     1      27.016  -1.981  52.576  1.00  0.00     0.048 C 
HETATM   24  C15 UNL     1      26.515   0.441  52.292  1.00  0.00     0.036 A 
ENDBRANCH  16  18
ENDBRANCH  15  16
ENDBRANCH  14  15
ENDBRANCH   1  13
TORSDOF 7
ENDMDL
MODEL 5
REMARK VINA RESULT:      -6.6      1.586      2.659
REMARK  7 active torsions:
REMARK  status: ('A' for Active; 'I' for Inactive)
REMARK    1  A    between atoms: O1_2  and  C2_3 
REMARK    2  A    between atoms: N1_7  and  C6_8 
REMARK    3  A    between atoms: C6_8  and  C7_9 
REMARK    4  A    between atoms: N2_10  and  C8_11 
REMARK    5  A    between atoms: C8_11  and  N3_12 
REMARK    6  A    between atoms: N3_12  and  C9_13 
REMARK    7  A    between atoms: C17_21  and  O2_22 
ROOT
HETATM    1  C6  UNL     1      21.128   3.301  51.990  1.00  0.00     0.195 C 
ENDROOT
BRANCH   1   2
HETATM    2  N1  UNL     1      22.532   3.439  52.320  1.00  0.00    -0.289 NA
HETATM    3  C5  UNL     1      23.234   2.417  52.677  1.00  0.00     0.035 A 
HETATM    4  C4  UNL     1      24.641   2.813  52.962  1.00  0.00     0.088 A 
HETATM    5  C16 UNL     1      22.788   1.032  52.809  1.00  0.00     0.066 A 
HETATM    6  C3  UNL     1      25.442   1.628  53.373  1.00  0.00     0.019 A 
HETATM    7  C2  UNL     1      25.046   0.370  53.496  1.00  0.00     0.098 A 
HETATM    8  C17 UNL     1      23.640   0.092  53.190  1.00  0.00     0.103 A 
BRANCH   7   9
HETATM    9  O1  UNL     1      25.797  -0.733  53.880  1.00  0.00    -0.353 OA
HETATM   10  C1  UNL     1      26.689  -1.374  52.986  1.00  0.00     0.210 C 
ENDBRANCH   7   9
BRANCH   8  11
HETATM   11  O2  UNL     1      23.057  -1.172  53.267  1.00  0.00    -0.353 OA
HETATM   12  C18 UNL     1      21.772  -1.401  53.764  1.00  0.00     0.210 C 
ENDBRANCH   8  11
ENDBRANCH   1   2
BRANCH   1  13
HETATM   13  C7  UNL     1      20.699   4.496  51.211  1.00  0.00     0.107 C 
HETATM   14  N2  UNL     1      20.966   5.183  50.149  1.00  0.00    -0.285 NA
BRANCH  14  15
HETATM   15  C8  UNL     1      22.078   4.672  49.369  1.00  0.00     0.269 C 
BRANCH  15  16
HETATM   16  N3  UNL     1      23.178   5.614  49.340  1.00  0.00    -0.372 N 
HETATM   17  H12 UNL     1      22.995   6.622  49.383  1.00  0.00     0.161 HD
BRANCH  16  18
HETATM   18  C9  UNL     1      24.517   5.138  49.252  1.00  0.00     0.029 A 
HETATM   19  C10 UNL     1      24.860   3.847  49.597  1.00  0.00     0.029 A 
HETATM   20  C11 UNL     1      26.178   3.422  49.497  1.00  0.00     0.003 A 
HETATM   21  C12 UNL     1      27.197   4.258  49.053  1.00  0.00     0.007 A 
HETATM   22  C13 UNL     1      26.827   5.530  48.719  1.00  0.00    -0.060 A 
HETATM   23  C14 UNL     1      27.900   6.450  48.239  1.00  0.00     0.048 C 
HETATM   24  C15 UNL     1      25.525   5.970  48.811  1.00  0.00     0.036 A 
ENDBRANCH  16  18
ENDBRANCH  15  16
ENDBRANCH  14  15
ENDBRANCH   1  13
TORSDOF 7
ENDMDL
MODEL 6
REMARK VINA RESULT:      -6.5      3.405      7.029
REMARK  7 active torsions:
REMARK  status: ('A' for Active; 'I' for Inactive)
REMARK    1  A    between atoms: O1_2  and  C2_3 
REMARK    2  A    between atoms: N1_7  and  C6_8 
REMARK    3  A    between atoms: C6_8  and  C7_9 
REMARK    4  A    between atoms: N2_10  and  C8_11 
REMARK    5  A    between atoms: C8_11  and  N3_12 
REMARK    6  A    between atoms: N3_12  and  C9_13 
REMARK    7  A    between atoms: C17_21  and  O2_22 
ROOT
HETATM    1  C6  UNL     1      24.366   5.952  49.149  1.00  0.00     0.195 C 
ENDROOT
BRANCH   1   2
HETATM    2  N1  UNL     1      25.601   5.216  48.972  1.00  0.00    -0.289 NA
HETATM    3  C5  UNL     1      26.711   5.829  48.727  1.00  0.00     0.035 A 
HETATM    4  C4  UNL     1      27.833   4.860  48.586  1.00  0.00     0.088 A 
HETATM    5  C16 UNL     1      26.921   7.269  48.591  1.00  0.00     0.066 A 
HETATM    6  C3  UNL     1      29.106   5.577  48.303  1.00  0.00     0.019 A 
HETATM    7  C2  UNL     1      29.306   6.880  48.178  1.00  0.00     0.098 A 
HETATM    8  C17 UNL     1      28.132   7.742  48.336  1.00  0.00     0.103 A 
BRANCH   7   9
HETATM    9  O1  UNL     1      30.497   7.544  47.914  1.00  0.00    -0.353 OA
HETATM   10  C1  UNL     1      31.645   7.364  48.724  1.00  0.00     0.210 C 
ENDBRANCH   7   9
BRANCH   8  11
HETATM   11  O2  UNL     1      28.162   9.133  48.235  1.00  0.00    -0.353 OA
HETATM   12  C18 UNL     1      28.316   9.984  49.332  1.00  0.00     0.210 C 
ENDBRANCH   8  11
ENDBRANCH   1   2
BRANCH   1  13
HETATM   13  C7  UNL     1      24.107   6.108  50.608  1.00  0.00     0.107 C 
HETATM   14  N2  UNL     1      23.874   5.440  51.690  1.00  0.00    -0.285 NA
BRANCH  14  15
HETATM   15  C8  UNL     1      23.834   4.001  51.508  1.00  0.00     0.269 C 
BRANCH  15  16
HETATM   16  N3  UNL     1      25.167   3.435  51.494  1.00  0.00    -0.372 N 
HETATM   17  H12 UNL     1      25.961   3.994  51.164  1.00  0.00     0.161 HD
BRANCH  16  18
HETATM   18  C9  UNL     1      25.375   2.099  51.939  1.00  0.00     0.029 A 
HETATM   19  C10 UNL     1      26.544   1.414  51.681  1.00  0.00     0.029 A 
HETATM   20  C11 UNL     1      26.707   0.111  52.132  1.00  0.00     0.003 A 
HETATM   21  C12 UNL     1      25.721  -0.556  52.851  1.00  0.00     0.007 A 
HETATM   22  C13 UNL     1      24.575   0.148  53.091  1.00  0.00    -0.060 A 
HETATM   23  C14 UNL     1      23.499  -0.542  53.861  1.00  0.00     0.048 C 
HETATM   24  C15 UNL     1      24.395   1.441  52.652  1.00  0.00     0.036 A 
ENDBRANCH  16  18
ENDBRANCH  15  16
ENDBRANCH  14  15
ENDBRANCH   1  13
TORSDOF 7
ENDMDL
MODEL 7
REMARK VINA RESULT:      -6.5      1.529      1.847
REMARK  7 active torsions:
REMARK  status: ('A' for Active; 'I' for Inactive)
REMARK    1  A    between atoms: O1_2  and  C2_3 
REMARK    2  A    between atoms: N1_7  and  C6_8 
REMARK    3  A    between atoms: C6_8  and  C7_9 
REMARK    4  A    between atoms: N2_10  and  C8_11 
REMARK    5  A    between atoms: C8_11  and  N3_12 
REMARK    6  A    between atoms: N3_12  and  C9_13 
REMARK    7  A    between atoms: C17_21  and  O2_22 
ROOT
HETATM    1  C6  UNL     1      21.062   3.050  52.290  1.00  0.00     0.195 C 
ENDROOT
BRANCH   1   2
HETATM    2  N1  UNL     1      21.126   1.719  52.858  1.00  0.00    -0.289 NA
HETATM    3  C5  UNL     1      22.260   1.135  53.058  1.00  0.00     0.035 A 
HETATM    4  C4  UNL     1      22.063  -0.219  53.648  1.00  0.00     0.088 A 
HETATM    5  C16 UNL     1      23.593   1.659  52.774  1.00  0.00     0.066 A 
HETATM    6  C3  UNL     1      23.376  -0.883  53.874  1.00  0.00     0.019 A 
HETATM    7  C2  UNL     1      24.588  -0.415  53.620  1.00  0.00     0.098 A 
HETATM    8  C17 UNL     1      24.665   0.928  53.040  1.00  0.00     0.103 A 
BRANCH   7   9
HETATM    9  O1  UNL     1      25.810  -1.039  53.833  1.00  0.00    -0.353 OA
HETATM   10  C1  UNL     1      26.572  -1.569  52.763  1.00  0.00     0.210 C 
ENDBRANCH   7   9
BRANCH   8  11
HETATM   11  O2  UNL     1      25.858   1.572  52.710  1.00  0.00    -0.353 OA
HETATM   12  C18 UNL     1      26.646   2.260  53.635  1.00  0.00     0.210 C 
ENDBRANCH   8  11
ENDBRANCH   1   2
BRANCH   1  13
HETATM   13  C7  UNL     1      20.523   2.953  50.904  1.00  0.00     0.107 C 
HETATM   14  N2  UNL     1      20.878   2.829  49.668  1.00  0.00    -0.285 NA
BRANCH  14  15
HETATM   15  C8  UNL     1      22.312   2.745  49.462  1.00  0.00     0.269 C 
BRANCH  15  16
HETATM   16  N3  UNL     1      22.914   4.061  49.405  1.00  0.00    -0.372 N 
HETATM   17  H12 UNL     1      22.324   4.899  49.428  1.00  0.00     0.161 HD
BRANCH  16  18
HETATM   18  C9  UNL     1      24.329   4.191  49.317  1.00  0.00     0.029 A 
HETATM   19  C10 UNL     1      25.181   3.158  49.649  1.00  0.00     0.029 A 
HETATM   20  C11 UNL     1      26.556   3.325  49.551  1.00  0.00     0.003 A 
HETATM   21  C12 UNL     1      27.131   4.517  49.121  1.00  0.00     0.007 A 
HETATM   22  C13 UNL     1      26.262   5.521  48.801  1.00  0.00    -0.060 A 
HETATM   23  C14 UNL     1      26.851   6.811  48.337  1.00  0.00     0.048 C 
HETATM   24  C15 UNL     1      24.895   5.374  48.892  1.00  0.00     0.036 A 
ENDBRANCH  16  18
ENDBRANCH  15  16
ENDBRANCH  14  15
ENDBRANCH   1  13
TORSDOF 7
ENDMDL
MODEL 8
REMARK VINA RESULT:      -6.4      2.859      6.132
REMARK  7 active torsions:
REMARK  status: ('A' for Active; 'I' for Inactive)
REMARK    1  A    between atoms: O1_2  and  C2_3 
REMARK    2  A    between atoms: N1_7  and  C6_8 
REMARK    3  A    between atoms: C6_8  and  C7_9 
REMARK    4  A    between atoms: N2_10  and  C8_11 
REMARK    5  A    between atoms: C8_11  and  N3_12 
REMARK    6  A    between atoms: N3_12  and  C9_13 
REMARK    7  A    between atoms: C17_21  and  O2_22 
ROOT
HETATM    1  C6  UNL     1      19.836   1.747  52.029  1.00  0.00     0.195 C 
ENDROOT
BRANCH   1   2
HETATM    2  N1  UNL     1      20.676   2.850  52.446  1.00  0.00    -0.289 NA
HETATM    3  C5  UNL     1      21.628   3.285  51.690  1.00  0.00     0.035 A 
HETATM    4  C4  UNL     1      22.344   4.419  52.337  1.00  0.00     0.088 A 
HETATM    5  C16 UNL     1      22.014   2.789  50.371  1.00  0.00     0.066 A 
HETATM    6  C3  UNL     1      23.439   4.912  51.457  1.00  0.00     0.019 A 
HETATM    7  C2  UNL     1      23.795   4.469  50.261  1.00  0.00     0.098 A 
HETATM    8  C17 UNL     1      23.022   3.348  49.719  1.00  0.00     0.103 A 
BRANCH   7   9
HETATM    9  O1  UNL     1      24.818   4.932  49.444  1.00  0.00    -0.353 OA
HETATM   10  C1  UNL     1      26.148   4.467  49.581  1.00  0.00     0.210 C 
ENDBRANCH   7   9
BRANCH   8  11
HETATM   11  O2  UNL     1      23.262   2.758  48.479  1.00  0.00    -0.353 OA
HETATM   12  C18 UNL     1      22.311   2.007  47.784  1.00  0.00     0.210 C 
ENDBRANCH   8  11
ENDBRANCH   1   2
BRANCH   1  13
HETATM   13  C7  UNL     1      19.920   0.667  53.053  1.00  0.00     0.107 C 
HETATM   14  N2  UNL     1      20.695  -0.260  53.509  1.00  0.00    -0.285 NA
BRANCH  14  15
HETATM   15  C8  UNL     1      21.976  -0.356  52.836  1.00  0.00     0.269 C 
BRANCH  15  16
HETATM   16  N3  UNL     1      22.948   0.544  53.423  1.00  0.00    -0.372 N 
HETATM   17  H12 UNL     1      22.666   1.196  54.162  1.00  0.00     0.161 HD
BRANCH  16  18
HETATM   18  C9  UNL     1      24.298   0.523  52.971  1.00  0.00     0.029 A 
HETATM   19  C10 UNL     1      24.913   1.642  52.449  1.00  0.00     0.029 A 
HETATM   20  C11 UNL     1      26.232   1.580  52.018  1.00  0.00     0.003 A 
HETATM   21  C12 UNL     1      26.983   0.412  52.090  1.00  0.00     0.007 A 
HETATM   22  C13 UNL     1      26.347  -0.679  52.610  1.00  0.00    -0.060 A 
HETATM   23  C14 UNL     1      27.128  -1.948  52.699  1.00  0.00     0.048 C 
HETATM   24  C15 UNL     1      25.039  -0.637  53.043  1.00  0.00     0.036 A 
ENDBRANCH  16  18
ENDBRANCH  15  16
ENDBRANCH  14  15
ENDBRANCH   1  13
TORSDOF 7
ENDMDL
MODEL 9
REMARK VINA RESULT:      -6.4      3.337      7.490
REMARK  7 active torsions:
REMARK  status: ('A' for Active; 'I' for Inactive)
REMARK    1  A    between atoms: O1_2  and  C2_3 
REMARK    2  A    between atoms: N1_7  and  C6_8 
REMARK    3  A    between atoms: C6_8  and  C7_9 
REMARK    4  A    between atoms: N2_10  and  C8_11 
REMARK    5  A    between atoms: C8_11  and  N3_12 
REMARK    6  A    between atoms: N3_12  and  C9_13 
REMARK    7  A    between atoms: C17_21  and  O2_22 
ROOT
HETATM    1  C6  UNL     1      25.114   5.115  49.451  1.00  0.00     0.195 C 
ENDROOT
BRANCH   1   2
HETATM    2  N1  UNL     1      25.390   6.486  49.828  1.00  0.00    -0.289 NA
HETATM    3  C5  UNL     1      26.468   7.079  49.438  1.00  0.00     0.035 A 
HETATM    4  C4  UNL     1      26.523   8.475  49.953  1.00  0.00     0.088 A 
HETATM    5  C16 UNL     1      27.535   6.527  48.606  1.00  0.00     0.066 A 
HETATM    6  C3  UNL     1      27.770   9.148  49.497  1.00  0.00     0.019 A 
HETATM    7  C2  UNL     1      28.741   8.657  48.743  1.00  0.00     0.098 A 
HETATM    8  C17 UNL     1      28.585   7.272  48.291  1.00  0.00     0.103 A 
BRANCH   7   9
HETATM    9  O1  UNL     1      29.903   9.290  48.321  1.00  0.00    -0.353 OA
HETATM   10  C1  UNL     1      31.072   9.311  49.120  1.00  0.00     0.210 C 
ENDBRANCH   7   9
BRANCH   8  11
HETATM   11  O2  UNL     1      29.511   6.598  47.495  1.00  0.00    -0.353 OA
HETATM   12  C18 UNL     1      30.410   5.650  47.989  1.00  0.00     0.210 C 
ENDBRANCH   8  11
ENDBRANCH   1   2
BRANCH   1  13
HETATM   13  C7  UNL     1      24.267   4.490  50.506  1.00  0.00     0.107 C 
HETATM   14  N2  UNL     1      24.179   3.457  51.277  1.00  0.00    -0.285 NA
BRANCH  14  15
HETATM   15  C8  UNL     1      25.264   2.504  51.129  1.00  0.00     0.269 C 
BRANCH  15  16
HETATM   16  N3  UNL     1      26.356   2.804  52.032  1.00  0.00    -0.372 N 
HETATM   17  H12 UNL     1      26.558   3.775  52.291  1.00  0.00     0.161 HD
BRANCH  16  18
HETATM   18  C9  UNL     1      27.150   1.748  52.560  1.00  0.00     0.029 A 
HETATM   19  C10 UNL     1      28.293   1.987  53.295  1.00  0.00     0.029 A 
HETATM   20  C11 UNL     1      29.041   0.928  53.792  1.00  0.00     0.003 A 
HETATM   21  C12 UNL     1      28.683  -0.399  53.580  1.00  0.00     0.007 A 
HETATM   22  C13 UNL     1      27.548  -0.604  52.849  1.00  0.00    -0.060 A 
HETATM   23  C14 UNL     1      27.139  -2.019  52.605  1.00  0.00     0.048 C 
HETATM   24  C15 UNL     1      26.792   0.433  52.347  1.00  0.00     0.036 A 
ENDBRANCH  16  18
ENDBRANCH  15  16
ENDBRANCH  14  15
ENDBRANCH   1  13
TORSDOF 7
ENDMDL
