MODEL 1
REMARK VINA RESULT:      -8.6      0.000      0.000
REMARK  3 active torsions:
REMARK  status: ('A' for Active; 'I' for Inactive)
REMARK    1  A    between atoms: O1_2  and  C2_3 
REMARK    2  A    between atoms: C4_5  and  N1_6 
REMARK    3  A    between atoms: C10_15  and  C11_16 
ROOT
HETATM    1  C2  UNL     1      22.609   3.953  51.460  1.00  0.00     0.077 C 
HETATM    2  C3  UNL     1      23.891   4.433  51.318  1.00  0.00     0.066 C 
HETATM    3  C4  UNL     1      24.903   3.290  51.276  1.00  0.00     0.051 C 
HETATM    4  C5  UNL     1      24.197   2.136  51.378  1.00  0.00     0.039 C 
HETATM    5  C6  UNL     1      22.944   1.819  50.529  1.00  0.00     0.098 C 
HETATM    6  C7  UNL     1      21.948   2.594  51.439  1.00  0.00     0.193 C 
HETATM    7  O2  UNL     1      21.734   1.964  52.640  1.00  0.00    -0.320 OA
HETATM    8  C8  UNL     1      22.328   0.892  53.362  1.00  0.00     0.196 A 
HETATM    9  N2  UNL     1      21.669   0.132  54.242  1.00  0.00    -0.216 NA
HETATM   10  C9  UNL     1      22.348  -0.875  54.881  1.00  0.00     0.236 A 
HETATM   11  N3  UNL     1      23.665  -1.194  54.706  1.00  0.00    -0.239 NA
HETATM   12  C10 UNL     1      24.415  -0.496  53.847  1.00  0.00     0.099 A 
HETATM   13  C17 UNL     1      23.688   0.479  53.256  1.00  0.00     0.116 A 
HETATM   14  N4  UNL     1      24.652   1.220  52.422  1.00  0.00    -0.352 N 
HETATM   15  H14 UNL     1      25.693   1.225  52.478  1.00  0.00     0.166 HD
ENDROOT
BRANCH  12  16
HETATM   16  C11 UNL     1      25.807  -0.726  53.572  1.00  0.00    -0.003 A 
HETATM   17  C12 UNL     1      26.500  -1.616  52.753  1.00  0.00     0.017 A 
HETATM   18  C13 UNL     1      27.871  -1.586  52.685  1.00  0.00     0.045 A 
HETATM   19  C14 UNL     1      28.627  -0.695  53.404  1.00  0.00     0.138 A 
HETATM   20  F1  UNL     1      29.966  -0.795  53.225  1.00  0.00    -0.204 F 
HETATM   21  C15 UNL     1      27.975   0.199  54.225  1.00  0.00     0.073 A 
HETATM   22 CL1  UNL     1      28.999   1.304  55.111  1.00  0.00    -0.081 Cl
HETATM   23  C16 UNL     1      26.580   0.182  54.306  1.00  0.00     0.041 A 
ENDBRANCH  12  16
BRANCH   3  24
HETATM   24  N1  UNL     1      26.251   2.944  51.240  1.00  0.00    -0.397 N 
HETATM   25  H5  UNL     1      27.004   3.402  51.796  1.00  0.00     0.156 HD
HETATM   26  H6  UNL     1      26.662   2.202  50.673  1.00  0.00     0.156 HD
ENDBRANCH   3  24
BRANCH   1  27
HETATM   27  O1  UNL     1      21.841   5.123  51.666  1.00  0.00    -0.357 OA
HETATM   28  C1  UNL     1      22.388   6.268  50.996  1.00  0.00     0.209 C 
ENDBRANCH   1  27
TORSDOF 3
ENDMDL
MODEL 2
REMARK VINA RESULT:      -8.4      1.633      2.061
REMARK  3 active torsions:
REMARK  status: ('A' for Active; 'I' for Inactive)
REMARK    1  A    between atoms: O1_2  and  C2_3 
REMARK    2  A    between atoms: C4_5  and  N1_6 
REMARK    3  A    between atoms: C10_15  and  C11_16 
ROOT
HETATM    1  C2  UNL     1      20.745   2.933  52.082  1.00  0.00     0.077 C 
HETATM    2  C3  UNL     1      21.646   3.968  51.973  1.00  0.00     0.066 C 
HETATM    3  C4  UNL     1      23.077   3.444  51.894  1.00  0.00     0.051 C 
HETATM    4  C5  UNL     1      23.004   2.089  51.942  1.00  0.00     0.039 C 
HETATM    5  C6  UNL     1      22.042   1.251  51.069  1.00  0.00     0.098 C 
HETATM    6  C7  UNL     1      20.807   1.425  52.000  1.00  0.00     0.193 C 
HETATM    7  O2  UNL     1      20.930   0.721  53.172  1.00  0.00    -0.320 OA
HETATM    8  C8  UNL     1      21.968   0.030  53.855  1.00  0.00     0.196 A 
HETATM    9  N2  UNL     1      21.756  -0.987  54.697  1.00  0.00    -0.216 NA
HETATM   10  C9  UNL     1      22.838  -1.578  55.301  1.00  0.00     0.236 A 
HETATM   11  N3  UNL     1      24.147  -1.226  55.127  1.00  0.00    -0.239 NA
HETATM   12  C10 UNL     1      24.469  -0.223  54.305  1.00  0.00     0.099 A 
HETATM   13  C17 UNL     1      23.360   0.314  53.746  1.00  0.00     0.116 A 
HETATM   14  N4  UNL     1      23.850   1.457  52.952  1.00  0.00    -0.352 N 
HETATM   15  H14 UNL     1      24.764   1.952  53.020  1.00  0.00     0.166 HD
ENDROOT
BRANCH  12  16
HETATM   16  C11 UNL     1      25.801   0.245  54.034  1.00  0.00    -0.003 A 
HETATM   17  C12 UNL     1      26.405   1.500  54.023  1.00  0.00     0.017 A 
HETATM   18  C13 UNL     1      27.739   1.636  53.734  1.00  0.00     0.045 A 
HETATM   19  C14 UNL     1      28.544   0.564  53.444  1.00  0.00     0.138 A 
HETATM   20  F1  UNL     1      29.839   0.865  53.180  1.00  0.00    -0.204 F 
HETATM   21  C15 UNL     1      27.981  -0.693  53.445  1.00  0.00     0.073 A 
HETATM   22 CL1  UNL     1      29.064  -2.012  53.068  1.00  0.00    -0.081 Cl
HETATM   23  C16 UNL     1      26.623  -0.849  53.738  1.00  0.00     0.041 A 
ENDBRANCH  12  16
BRANCH   3  24
HETATM   24  N1  UNL     1      24.429   3.779  51.858  1.00  0.00    -0.397 N 
HETATM   25  H5  UNL     1      24.879   4.519  52.436  1.00  0.00     0.156 HD
HETATM   26  H6  UNL     1      25.137   3.341  51.268  1.00  0.00     0.156 HD
ENDBRANCH   3  24
BRANCH   1  27
HETATM   27  O1  UNL     1      19.518   3.590  52.328  1.00  0.00    -0.357 OA
HETATM   28  C1  UNL     1      18.783   3.857  51.124  1.00  0.00     0.209 C 
ENDBRANCH   1  27
TORSDOF 3
ENDMDL
MODEL 3
REMARK VINA RESULT:      -8.3      3.627      5.986
REMARK  3 active torsions:
REMARK  status: ('A' for Active; 'I' for Inactive)
REMARK    1  A    between atoms: O1_2  and  C2_3 
REMARK    2  A    between atoms: C4_5  and  N1_6 
REMARK    3  A    between atoms: C10_15  and  C11_16 
ROOT
HETATM    1  C2  UNL     1      27.592  -0.213  53.903  1.00  0.00     0.077 C 
HETATM    2  C3  UNL     1      27.906   0.211  52.632  1.00  0.00     0.066 C 
HETATM    3  C4  UNL     1      26.794   1.084  52.055  1.00  0.00     0.051 C 
HETATM    4  C5  UNL     1      25.834   1.180  53.009  1.00  0.00     0.039 C 
HETATM    5  C6  UNL     1      26.124   1.530  54.487  1.00  0.00     0.098 C 
HETATM    6  C7  UNL     1      26.505   0.082  54.910  1.00  0.00     0.193 C 
HETATM    7  O2  UNL     1      25.419  -0.756  54.950  1.00  0.00    -0.320 OA
HETATM    8  C8  UNL     1      24.065  -0.710  54.517  1.00  0.00     0.196 A 
HETATM    9  N2  UNL     1      23.075  -1.402  55.092  1.00  0.00    -0.216 NA
HETATM   10  C9  UNL     1      21.805  -1.279  54.586  1.00  0.00     0.236 A 
HETATM   11  N3  UNL     1      21.434  -0.501  53.526  1.00  0.00    -0.239 NA
HETATM   12  C10 UNL     1      22.346   0.233  52.881  1.00  0.00     0.099 A 
HETATM   13  C17 UNL     1      23.572   0.064  53.427  1.00  0.00     0.116 A 
HETATM   14  N4  UNL     1      24.482   0.843  52.566  1.00  0.00    -0.352 N 
HETATM   15  H14 UNL     1      24.321   1.194  51.598  1.00  0.00     0.166 HD
ENDROOT
BRANCH  12  16
HETATM   16  C11 UNL     1      22.089   1.089  51.755  1.00  0.00    -0.003 A 
HETATM   17  C12 UNL     1      21.874   0.869  50.397  1.00  0.00     0.017 A 
HETATM   18  C13 UNL     1      21.632   1.916  49.544  1.00  0.00     0.045 A 
HETATM   19  C14 UNL     1      21.588   3.219  49.969  1.00  0.00     0.138 A 
HETATM   20  F1  UNL     1      21.338   4.137  49.004  1.00  0.00    -0.204 F 
HETATM   21  C15 UNL     1      21.798   3.476  51.306  1.00  0.00     0.073 A 
HETATM   22 CL1  UNL     1      21.728   5.158  51.779  1.00  0.00    -0.081 Cl
HETATM   23  C16 UNL     1      22.045   2.420  52.189  1.00  0.00     0.041 A 
ENDBRANCH  12  16
BRANCH   3  24
HETATM   24  N1  UNL     1      26.329   1.770  50.936  1.00  0.00    -0.397 N 
HETATM   25  H5  UNL     1      25.865   1.331  50.113  1.00  0.00     0.156 HD
HETATM   26  H6  UNL     1      26.381   2.778  50.788  1.00  0.00     0.156 HD
ENDBRANCH   3  24
BRANCH   1  27
HETATM   27  O1  UNL     1      28.617  -1.139  54.203  1.00  0.00    -0.357 OA
HETATM   28  C1  UNL     1      29.848  -0.840  53.526  1.00  0.00     0.209 C 
ENDBRANCH   1  27
TORSDOF 3
ENDMDL
MODEL 4
REMARK VINA RESULT:      -8.3      1.882      3.980
REMARK  3 active torsions:
REMARK  status: ('A' for Active; 'I' for Inactive)
REMARK    1  A    between atoms: O1_2  and  C2_3 
REMARK    2  A    between atoms: C4_5  and  N1_6 
REMARK    3  A    between atoms: C10_15  and  C11_16 
ROOT
HETATM    1  C2  UNL     1      20.847   1.708  51.125  1.00  0.00     0.077 C 
HETATM    2  C3  UNL     1      20.973   0.429  51.618  1.00  0.00     0.066 C 
HETATM    3  C4  UNL     1      22.281   0.264  52.386  1.00  0.00     0.051 C 
HETATM    4  C5  UNL     1      22.913   1.465  52.351  1.00  0.00     0.039 C 
HETATM    5  C6  UNL     1      22.223   2.807  52.685  1.00  0.00     0.098 C 
HETATM    6  C7  UNL     1      21.601   3.009  51.273  1.00  0.00     0.193 C 
HETATM    7  O2  UNL     1      22.542   3.319  50.323  1.00  0.00    -0.320 OA
HETATM    8  C8  UNL     1      23.962   3.313  50.240  1.00  0.00     0.196 A 
HETATM    9  N2  UNL     1      24.664   4.113  49.430  1.00  0.00    -0.216 NA
HETATM   10  C9  UNL     1      26.033   4.017  49.434  1.00  0.00     0.236 A 
HETATM   11  N3  UNL     1      26.777   3.165  50.201  1.00  0.00    -0.239 NA
HETATM   12  C10 UNL     1      26.174   2.323  51.045  1.00  0.00     0.099 A 
HETATM   13  C17 UNL     1      24.830   2.468  50.991  1.00  0.00     0.116 A 
HETATM   14  N4  UNL     1      24.298   1.424  51.887  1.00  0.00    -0.352 N 
HETATM   15  H14 UNL     1      24.776   0.572  52.248  1.00  0.00     0.166 HD
ENDROOT
BRANCH  12  16
HETATM   16  C11 UNL     1      26.836   1.380  51.904  1.00  0.00    -0.003 A 
HETATM   17  C12 UNL     1      26.782  -0.005  52.050  1.00  0.00     0.017 A 
HETATM   18  C13 UNL     1      27.568  -0.646  52.974  1.00  0.00     0.045 A 
HETATM   19  C14 UNL     1      28.440   0.025  53.794  1.00  0.00     0.138 A 
HETATM   20  F1  UNL     1      29.145  -0.753  54.651  1.00  0.00    -0.204 F 
HETATM   21  C15 UNL     1      28.520   1.395  53.677  1.00  0.00     0.073 A 
HETATM   22 CL1  UNL     1      29.651   2.184  54.753  1.00  0.00    -0.081 Cl
HETATM   23  C16 UNL     1      27.726   2.064  52.742  1.00  0.00     0.041 A 
ENDBRANCH  12  16
BRANCH   3  24
HETATM   24  N1  UNL     1      23.124  -0.622  53.053  1.00  0.00    -0.397 N 
HETATM   25  H5  UNL     1      22.813  -1.359  53.720  1.00  0.00     0.156 HD
HETATM   26  H6  UNL     1      24.140  -0.661  52.966  1.00  0.00     0.156 HD
ENDBRANCH   3  24
BRANCH   1  27
HETATM   27  O1  UNL     1      19.699   1.631  50.303  1.00  0.00    -0.357 OA
HETATM   28  C1  UNL     1      18.808   0.575  50.694  1.00  0.00     0.209 C 
ENDBRANCH   1  27
TORSDOF 3
ENDMDL
MODEL 5
REMARK VINA RESULT:      -8.2      4.090      6.581
REMARK  3 active torsions:
REMARK  status: ('A' for Active; 'I' for Inactive)
REMARK    1  A    between atoms: O1_2  and  C2_3 
REMARK    2  A    between atoms: C4_5  and  N1_6 
REMARK    3  A    between atoms: C10_15  and  C11_16 
ROOT
HETATM    1  C2  UNL     1      27.547   0.719  54.020  1.00  0.00     0.077 C 
HETATM    2  C3  UNL     1      27.000   0.068  55.102  1.00  0.00     0.066 C 
HETATM    3  C4  UNL     1      25.625  -0.503  54.762  1.00  0.00     0.051 C 
HETATM    4  C5  UNL     1      25.381  -0.193  53.463  1.00  0.00     0.039 C 
HETATM    5  C6  UNL     1      26.395  -0.429  52.320  1.00  0.00     0.098 C 
HETATM    6  C7  UNL     1      27.196   0.883  52.559  1.00  0.00     0.193 C 
HETATM    7  O2  UNL     1      26.494   2.002  52.187  1.00  0.00    -0.320 OA
HETATM    8  C8  UNL     1      25.153   2.304  51.825  1.00  0.00     0.196 A 
HETATM    9  N2  UNL     1      24.808   3.322  51.029  1.00  0.00    -0.216 NA
HETATM   10  C9  UNL     1      23.478   3.517  50.748  1.00  0.00     0.236 A 
HETATM   11  N3  UNL     1      22.439   2.759  51.210  1.00  0.00    -0.239 NA
HETATM   12  C10 UNL     1      22.675   1.716  52.012  1.00  0.00     0.099 A 
HETATM   13  C17 UNL     1      24.000   1.581  52.248  1.00  0.00     0.116 A 
HETATM   14  N4  UNL     1      24.103   0.470  53.213  1.00  0.00    -0.352 N 
HETATM   15  H14 UNL     1      23.361   0.066  53.822  1.00  0.00     0.166 HD
ENDROOT
BRANCH  12  16
HETATM   16  C11 UNL     1      21.677   0.842  52.565  1.00  0.00    -0.003 A 
HETATM   17  C12 UNL     1      21.583   0.094  53.737  1.00  0.00     0.017 A 
HETATM   18  C13 UNL     1      20.465  -0.655  54.005  1.00  0.00     0.045 A 
HETATM   19  C14 UNL     1      19.393  -0.712  53.152  1.00  0.00     0.138 A 
HETATM   20  F1  UNL     1      18.367  -1.497  53.562  1.00  0.00    -0.204 F 
HETATM   21  C15 UNL     1      19.450   0.014  51.983  1.00  0.00     0.073 A 
HETATM   22 CL1  UNL     1      18.050  -0.106  50.943  1.00  0.00    -0.081 Cl
HETATM   23  C16 UNL     1      20.581   0.782  51.694  1.00  0.00     0.041 A 
ENDBRANCH  12  16
BRANCH   3  24
HETATM   24  N1  UNL     1      24.494  -1.153  55.248  1.00  0.00    -0.397 N 
HETATM   25  H5  UNL     1      23.656  -0.681  55.650  1.00  0.00     0.156 HD
HETATM   26  H6  UNL     1      24.345  -2.162  55.264  1.00  0.00     0.156 HD
ENDBRANCH   3  24
BRANCH   1  27
HETATM   27  O1  UNL     1      28.703   1.332  54.555  1.00  0.00    -0.357 OA
HETATM   28  C1  UNL     1      29.166   2.432  53.756  1.00  0.00     0.209 C 
ENDBRANCH   1  27
TORSDOF 3
ENDMDL
MODEL 6
REMARK VINA RESULT:      -8.1      1.777      2.149
REMARK  3 active torsions:
REMARK  status: ('A' for Active; 'I' for Inactive)
REMARK    1  A    between atoms: O1_2  and  C2_3 
REMARK    2  A    between atoms: C4_5  and  N1_6 
REMARK    3  A    between atoms: C10_15  and  C11_16 
ROOT
HETATM    1  C2  UNL     1      22.896   4.908  49.537  1.00  0.00     0.077 C 
HETATM    2  C3  UNL     1      24.158   5.439  49.669  1.00  0.00     0.066 C 
HETATM    3  C4  UNL     1      25.168   4.364  50.062  1.00  0.00     0.051 C 
HETATM    4  C5  UNL     1      24.485   3.194  50.143  1.00  0.00     0.039 C 
HETATM    5  C6  UNL     1      23.514   2.691  49.050  1.00  0.00     0.098 C 
HETATM    6  C7  UNL     1      22.294   3.521  49.542  1.00  0.00     0.193 C 
HETATM    7  O2  UNL     1      21.778   3.048  50.723  1.00  0.00    -0.320 OA
HETATM    8  C8  UNL     1      22.178   2.122  51.725  1.00  0.00     0.196 A 
HETATM    9  N2  UNL     1      21.323   1.450  52.502  1.00  0.00    -0.216 NA
HETATM   10  C9  UNL     1      21.826   0.580  53.438  1.00  0.00     0.236 A 
HETATM   11  N3  UNL     1      23.148   0.321  53.665  1.00  0.00    -0.239 NA
HETATM   12  C10 UNL     1      24.087   0.938  52.941  1.00  0.00     0.099 A 
HETATM   13  C17 UNL     1      23.525   1.779  52.042  1.00  0.00     0.116 A 
HETATM   14  N4  UNL     1      24.662   2.456  51.392  1.00  0.00    -0.352 N 
HETATM   15  H14 UNL     1      25.649   2.531  51.719  1.00  0.00     0.166 HD
ENDROOT
BRANCH  12  16
HETATM   16  C11 UNL     1      25.506   0.756  53.078  1.00  0.00    -0.003 A 
HETATM   17  C12 UNL     1      26.566   1.602  53.398  1.00  0.00     0.017 A 
HETATM   18  C13 UNL     1      27.850   1.123  53.470  1.00  0.00     0.045 A 
HETATM   19  C14 UNL     1      28.161  -0.193  53.237  1.00  0.00     0.138 A 
HETATM   20  F1  UNL     1      29.475  -0.506  53.348  1.00  0.00    -0.204 F 
HETATM   21  C15 UNL     1      27.138  -1.058  52.918  1.00  0.00     0.073 A 
HETATM   22 CL1  UNL     1      27.606  -2.718  52.634  1.00  0.00    -0.081 Cl
HETATM   23  C16 UNL     1      25.825  -0.586  52.840  1.00  0.00     0.041 A 
ENDBRANCH  12  16
BRANCH   3  24
HETATM   24  N1  UNL     1      26.483   4.097  50.434  1.00  0.00    -0.397 N 
HETATM   25  H5  UNL     1      27.291   4.031  49.778  1.00  0.00     0.156 HD
HETATM   26  H6  UNL     1      26.815   3.940  51.386  1.00  0.00     0.156 HD
ENDBRANCH   3  24
BRANCH   1  27
HETATM   27  O1  UNL     1      22.077   6.046  49.360  1.00  0.00    -0.357 OA
HETATM   28  C1  UNL     1      22.284   7.040  50.376  1.00  0.00     0.209 C 
ENDBRANCH   1  27
TORSDOF 3
ENDMDL
MODEL 7
REMARK VINA RESULT:      -7.6      3.867      6.329
REMARK  3 active torsions:
REMARK  status: ('A' for Active; 'I' for Inactive)
REMARK    1  A    between atoms: O1_2  and  C2_3 
REMARK    2  A    between atoms: C4_5  and  N1_6 
REMARK    3  A    between atoms: C10_15  and  C11_16 
ROOT
HETATM    1  C2  UNL     1      26.851   0.605  53.245  1.00  0.00     0.077 C 
HETATM    2  C3  UNL     1      27.593   1.304  52.320  1.00  0.00     0.066 C 
HETATM    3  C4  UNL     1      26.777   2.438  51.705  1.00  0.00     0.051 C 
HETATM    4  C5  UNL     1      25.554   2.406  52.293  1.00  0.00     0.039 C 
HETATM    5  C6  UNL     1      25.338   2.313  53.821  1.00  0.00     0.098 C 
HETATM    6  C7  UNL     1      25.498   0.768  53.899  1.00  0.00     0.193 C 
HETATM    7  O2  UNL     1      24.432   0.100  53.348  1.00  0.00    -0.320 OA
HETATM    8  C8  UNL     1      23.309   0.439  52.545  1.00  0.00     0.196 A 
HETATM    9  N2  UNL     1      22.157  -0.241  52.551  1.00  0.00    -0.216 NA
HETATM   10  C9  UNL     1      21.140   0.179  51.731  1.00  0.00     0.236 A 
HETATM   11  N3  UNL     1      21.180   1.251  50.885  1.00  0.00    -0.239 NA
HETATM   12  C10 UNL     1      22.284   2.000  50.803  1.00  0.00     0.099 A 
HETATM   13  C17 UNL     1      23.244   1.532  51.633  1.00  0.00     0.116 A 
HETATM   14  N4  UNL     1      24.421   2.381  51.369  1.00  0.00    -0.352 N 
HETATM   15  H14 UNL     1      24.612   2.993  50.547  1.00  0.00     0.166 HD
ENDROOT
BRANCH  12  16
HETATM   16  C11 UNL     1      22.456   3.149  49.957  1.00  0.00    -0.003 A 
HETATM   17  C12 UNL     1      22.918   3.335  48.656  1.00  0.00     0.017 A 
HETATM   18  C13 UNL     1      22.953   4.587  48.095  1.00  0.00     0.045 A 
HETATM   19  C14 UNL     1      22.544   5.709  48.768  1.00  0.00     0.138 A 
HETATM   20  F1  UNL     1      22.641   6.870  48.075  1.00  0.00    -0.204 F 
HETATM   21  C15 UNL     1      22.081   5.563  50.058  1.00  0.00     0.073 A 
HETATM   22 CL1  UNL     1      21.576   7.034  50.856  1.00  0.00    -0.081 Cl
HETATM   23  C16 UNL     1      22.038   4.295  50.644  1.00  0.00     0.041 A 
ENDBRANCH  12  16
BRANCH   3  24
HETATM   24  N1  UNL     1      26.745   3.449  50.749  1.00  0.00    -0.397 N 
HETATM   25  H5  UNL     1      25.890   3.960  50.443  1.00  0.00     0.156 HD
HETATM   26  H6  UNL     1      27.550   3.815  50.239  1.00  0.00     0.156 HD
ENDBRANCH   3  24
BRANCH   1  27
HETATM   27  O1  UNL     1      27.678  -0.495  53.567  1.00  0.00    -0.357 OA
HETATM   28  C1  UNL     1      28.744  -0.143  54.462  1.00  0.00     0.209 C 
ENDBRANCH   1  27
TORSDOF 3
ENDMDL
MODEL 8
REMARK VINA RESULT:      -7.6      2.414      3.050
REMARK  3 active torsions:
REMARK  status: ('A' for Active; 'I' for Inactive)
REMARK    1  A    between atoms: O1_2  and  C2_3 
REMARK    2  A    between atoms: C4_5  and  N1_6 
REMARK    3  A    between atoms: C10_15  and  C11_16 
ROOT
HETATM    1  C2  UNL     1      18.877   2.904  51.673  1.00  0.00     0.077 C 
HETATM    2  C3  UNL     1      19.702   3.998  51.543  1.00  0.00     0.066 C 
HETATM    3  C4  UNL     1      21.147   3.570  51.300  1.00  0.00     0.051 C 
HETATM    4  C5  UNL     1      21.157   2.213  51.273  1.00  0.00     0.039 C 
HETATM    5  C6  UNL     1      20.165   1.365  50.445  1.00  0.00     0.098 C 
HETATM    6  C7  UNL     1      19.018   1.409  51.495  1.00  0.00     0.193 C 
HETATM    7  O2  UNL     1      19.293   0.651  52.606  1.00  0.00    -0.320 OA
HETATM    8  C8  UNL     1      20.431  -0.009  53.147  1.00  0.00     0.196 A 
HETATM    9  N2  UNL     1      20.361  -1.081  53.942  1.00  0.00    -0.216 NA
HETATM   10  C9  UNL     1      21.529  -1.634  54.406  1.00  0.00     0.236 A 
HETATM   11  N3  UNL     1      22.792  -1.192  54.133  1.00  0.00    -0.239 NA
HETATM   12  C10 UNL     1      22.974  -0.127  53.346  1.00  0.00     0.099 A 
HETATM   13  C17 UNL     1      21.787   0.369  52.926  1.00  0.00     0.116 A 
HETATM   14  N4  UNL     1      22.132   1.581  52.160  1.00  0.00    -0.352 N 
HETATM   15  H14 UNL     1      23.018   2.129  52.172  1.00  0.00     0.166 HD
ENDROOT
BRANCH  12  16
HETATM   16  C11 UNL     1      24.244   0.438  52.981  1.00  0.00    -0.003 A 
HETATM   17  C12 UNL     1      24.686   1.230  51.923  1.00  0.00     0.017 A 
HETATM   18  C13 UNL     1      25.994   1.639  51.850  1.00  0.00     0.045 A 
HETATM   19  C14 UNL     1      26.928   1.300  52.796  1.00  0.00     0.138 A 
HETATM   20  F1  UNL     1      28.175   1.784  52.580  1.00  0.00    -0.204 F 
HETATM   21  C15 UNL     1      26.526   0.518  53.857  1.00  0.00     0.073 A 
HETATM   22 CL1  UNL     1      27.767   0.124  55.024  1.00  0.00    -0.081 Cl
HETATM   23  C16 UNL     1      25.198   0.093  53.946  1.00  0.00     0.041 A 
ENDBRANCH  12  16
BRANCH   3  24
HETATM   24  N1  UNL     1      22.467   3.992  51.159  1.00  0.00    -0.397 N 
HETATM   25  H5  UNL     1      23.278   3.614  51.691  1.00  0.00     0.156 HD
HETATM   26  H6  UNL     1      22.798   4.713  50.517  1.00  0.00     0.156 HD
ENDBRANCH   3  24
BRANCH   1  27
HETATM   27  O1  UNL     1      17.644   3.467  52.072  1.00  0.00    -0.357 OA
HETATM   28  C1  UNL     1      16.859   3.923  50.959  1.00  0.00     0.209 C 
ENDBRANCH   1  27
TORSDOF 3
ENDMDL
MODEL 9
REMARK VINA RESULT:      -7.5      3.769      5.567
REMARK  3 active torsions:
REMARK  status: ('A' for Active; 'I' for Inactive)
REMARK    1  A    between atoms: O1_2  and  C2_3 
REMARK    2  A    between atoms: C4_5  and  N1_6 
REMARK    3  A    between atoms: C10_15  and  C11_16 
ROOT
HETATM    1  C2  UNL     1      24.516   6.276  48.712  1.00  0.00     0.077 C 
HETATM    2  C3  UNL     1      23.268   6.034  48.183  1.00  0.00     0.066 C 
HETATM    3  C4  UNL     1      22.450   5.128  49.100  1.00  0.00     0.051 C 
HETATM    4  C5  UNL     1      23.226   4.856  50.179  1.00  0.00     0.039 C 
HETATM    5  C6  UNL     1      23.991   5.935  50.980  1.00  0.00     0.098 C 
HETATM    6  C7  UNL     1      25.215   5.992  50.022  1.00  0.00     0.193 C 
HETATM    7  O2  UNL     1      25.998   4.867  50.102  1.00  0.00    -0.320 OA
HETATM    8  C8  UNL     1      25.886   3.573  50.682  1.00  0.00     0.196 A 
HETATM    9  N2  UNL     1      26.934   2.839  51.071  1.00  0.00    -0.216 NA
HETATM   10  C9  UNL     1      26.704   1.601  51.619  1.00  0.00     0.236 A 
HETATM   11  N3  UNL     1      25.481   1.023  51.814  1.00  0.00    -0.239 NA
HETATM   12  C10 UNL     1      24.368   1.674  51.462  1.00  0.00     0.099 A 
HETATM   13  C17 UNL     1      24.665   2.881  50.930  1.00  0.00     0.116 A 
HETATM   14  N4  UNL     1      23.368   3.437  50.500  1.00  0.00    -0.352 N 
HETATM   15  H14 UNL     1      22.467   2.939  50.342  1.00  0.00     0.166 HD
ENDROOT
BRANCH  12  16
HETATM   16  C11 UNL     1      23.026   1.181  51.612  1.00  0.00    -0.003 A 
HETATM   17  C12 UNL     1      21.927   1.083  50.762  1.00  0.00     0.017 A 
HETATM   18  C13 UNL     1      20.747   0.535  51.198  1.00  0.00     0.045 A 
HETATM   19  C14 UNL     1      20.581   0.060  52.474  1.00  0.00     0.138 A 
HETATM   20  F1  UNL     1      19.356  -0.450  52.748  1.00  0.00    -0.204 F 
HETATM   21  C15 UNL     1      21.647   0.140  53.343  1.00  0.00     0.073 A 
HETATM   22 CL1  UNL     1      21.366  -0.485  54.951  1.00  0.00    -0.081 Cl
HETATM   23  C16 UNL     1      22.856   0.695  52.914  1.00  0.00     0.041 A 
ENDBRANCH  12  16
BRANCH   3  24
HETATM   24  N1  UNL     1      21.264   4.415  49.258  1.00  0.00    -0.397 N 
HETATM   25  H5  UNL     1      20.592   4.191  48.495  1.00  0.00     0.156 HD
HETATM   26  H6  UNL     1      20.914   4.024  50.133  1.00  0.00     0.156 HD
ENDBRANCH   3  24
BRANCH   1  27
HETATM   27  O1  UNL     1      25.188   6.958  47.672  1.00  0.00    -0.357 OA
HETATM   28  C1  UNL     1      26.201   7.850  48.159  1.00  0.00     0.209 C 
ENDBRANCH   1  27
TORSDOF 3
ENDMDL
