MODEL 1
REMARK VINA RESULT:      -8.5      0.000      0.000
REMARK  7 active torsions:
REMARK  status: ('A' for Active; 'I' for Inactive)
REMARK    1  A    between atoms: O1_2  and  C2_3 
REMARK    2  A    between atoms: C2_3  and  C3_4 
REMARK    3  A    between atoms: C3_4  and  C4_5 
REMARK    4  A    between atoms: C12_15  and  N1_16 
REMARK    5  A    between atoms: N1_16  and  C13_17 
REMARK    6  A    between atoms: C16_20  and  N2_21 
REMARK    7  A    between atoms: C17_22  and  C18_23 
ROOT
HETATM    1  C4  UNL     1      19.664  -0.973  53.336  1.00  0.00    -0.018 A 
HETATM    2  C5  UNL     1      20.447  -1.471  54.354  1.00  0.00     0.042 A 
HETATM    3  C6  UNL     1      21.784  -1.127  54.361  1.00  0.00     0.067 A 
HETATM    4  C7  UNL     1      22.414  -0.332  53.448  1.00  0.00     0.053 A 
HETATM    5  C8  UNL     1      21.611   0.164  52.427  1.00  0.00     0.117 A 
HETATM    6  C9  UNL     1      20.263  -0.163  52.392  1.00  0.00     0.109 A 
HETATM    7  O2  UNL     1      19.619   0.431  51.291  1.00  0.00    -0.346 OA
HETATM    8  C10 UNL     1      19.907   1.783  50.932  1.00  0.00     0.202 C 
HETATM    9  C11 UNL     1      21.385   2.062  50.882  1.00  0.00     0.202 C 
HETATM   10  O3  UNL     1      22.134   0.977  51.447  1.00  0.00    -0.345 OA
HETATM   11  C12 UNL     1      23.712  -0.206  53.756  1.00  0.00     0.045 A 
HETATM   12  C20 UNL     1      23.940  -0.998  54.990  1.00  0.00     0.207 A 
HETATM   13  N3  UNL     1      22.628  -1.532  55.265  1.00  0.00    -0.283 NA
ENDROOT
BRANCH  11  14
HETATM   14  N1  UNL     1      24.616   0.583  52.954  1.00  0.00    -0.357 N 
HETATM   15  H13 UNL     1      24.279   1.312  52.328  1.00  0.00     0.166 HD
BRANCH  14  16
HETATM   16  C13 UNL     1      25.975   0.196  53.174  1.00  0.00     0.033 A 
HETATM   17  C14 UNL     1      26.269  -1.042  52.651  1.00  0.00     0.032 A 
HETATM   18  C15 UNL     1      27.535  -1.571  52.771  1.00  0.00     0.032 A 
HETATM   19  C16 UNL     1      28.473  -0.811  53.429  1.00  0.00     0.039 A 
HETATM   20  C17 UNL     1      28.109   0.420  53.928  1.00  0.00     0.030 A 
HETATM   21  C19 UNL     1      26.880   0.992  53.841  1.00  0.00     0.046 A 
BRANCH  19  22
HETATM   22  N2  UNL     1      29.797  -1.301  53.593  1.00  0.00    -0.398 N 
HETATM   23  H16 UNL     1      30.441  -1.813  54.217  1.00  0.00     0.156 HD
HETATM   24  H17 UNL     1      30.236  -0.985  52.693  1.00  0.00     0.156 HD
ENDBRANCH  19  22
BRANCH  20  25
HETATM   25  C18 UNL     1      29.144   1.187  54.607  1.00  0.00     0.272 C 
HETATM   26  O4  UNL     1      29.578   2.276  55.021  1.00  0.00    -0.301 OA
ENDBRANCH  20  25
ENDBRANCH  14  16
ENDBRANCH  11  14
BRANCH   1  27
HETATM   27  C3  UNL     1      18.198  -1.249  53.170  1.00  0.00     0.068 C 
BRANCH  27  28
HETATM   28  C2  UNL     1      17.845  -2.581  53.827  1.00  0.00     0.171 C 
BRANCH  28  29
HETATM   29  O1  UNL     1      16.907  -3.305  53.137  1.00  0.00    -0.396 OA
HETATM   30  C1  UNL     1      16.648  -4.562  53.626  1.00  0.00     0.201 C 
ENDBRANCH  28  29
ENDBRANCH  27  28
ENDBRANCH   1  27
TORSDOF 7
ENDMDL
MODEL 2
REMARK VINA RESULT:      -8.0      2.896      5.070
REMARK  7 active torsions:
REMARK  status: ('A' for Active; 'I' for Inactive)
REMARK    1  A    between atoms: O1_2  and  C2_3 
REMARK    2  A    between atoms: C2_3  and  C3_4 
REMARK    3  A    between atoms: C3_4  and  C4_5 
REMARK    4  A    between atoms: C12_15  and  N1_16 
REMARK    5  A    between atoms: N1_16  and  C13_17 
REMARK    6  A    between atoms: C16_20  and  N2_21 
REMARK    7  A    between atoms: C17_22  and  C18_23 
ROOT
HETATM    1  C4  UNL     1      21.996   1.972  49.526  1.00  0.00    -0.018 A 
HETATM    2  C5  UNL     1      23.085   2.617  48.984  1.00  0.00     0.042 A 
HETATM    3  C6  UNL     1      24.160   2.867  49.815  1.00  0.00     0.067 A 
HETATM    4  C7  UNL     1      24.249   2.533  51.134  1.00  0.00     0.053 A 
HETATM    5  C8  UNL     1      23.143   1.881  51.667  1.00  0.00     0.117 A 
HETATM    6  C9  UNL     1      22.047   1.615  50.858  1.00  0.00     0.109 A 
HETATM    7  O2  UNL     1      21.032   0.952  51.572  1.00  0.00    -0.346 OA
HETATM    8  C10 UNL     1      21.359  -0.097  52.484  1.00  0.00     0.202 C 
HETATM    9  C11 UNL     1      22.485   0.277  53.409  1.00  0.00     0.202 C 
HETATM   10  O3  UNL     1      23.117   1.494  52.987  1.00  0.00    -0.345 OA
HETATM   11  C12 UNL     1      25.430   2.923  51.635  1.00  0.00     0.045 A 
HETATM   12  C20 UNL     1      26.173   3.574  50.527  1.00  0.00     0.207 A 
HETATM   13  N3  UNL     1      25.246   3.469  49.426  1.00  0.00    -0.283 NA
ENDROOT
BRANCH  11  14
HETATM   14  N1  UNL     1      25.790   2.695  53.013  1.00  0.00    -0.357 N 
HETATM   15  H13 UNL     1      25.352   3.213  53.774  1.00  0.00     0.166 HD
BRANCH  14  16
HETATM   16  C13 UNL     1      26.796   1.685  53.126  1.00  0.00     0.033 A 
HETATM   17  C14 UNL     1      28.003   2.179  53.562  1.00  0.00     0.032 A 
HETATM   18  C15 UNL     1      29.085   1.342  53.729  1.00  0.00     0.032 A 
HETATM   19  C16 UNL     1      28.897   0.011  53.440  1.00  0.00     0.039 A 
HETATM   20  C17 UNL     1      27.661  -0.416  53.007  1.00  0.00     0.030 A 
HETATM   21  C19 UNL     1      26.562   0.361  52.825  1.00  0.00     0.046 A 
BRANCH  19  22
HETATM   22  N2  UNL     1      29.974  -0.905  53.585  1.00  0.00    -0.398 N 
HETATM   23  H16 UNL     1      30.526  -1.469  54.252  1.00  0.00     0.156 HD
HETATM   24  H17 UNL     1      30.282  -1.004  52.585  1.00  0.00     0.156 HD
ENDBRANCH  19  22
BRANCH  20  25
HETATM   25  C18 UNL     1      27.517  -1.837  52.726  1.00  0.00     0.272 C 
HETATM   26  O4  UNL     1      27.949  -2.999  52.813  1.00  0.00    -0.301 OA
ENDBRANCH  20  25
ENDBRANCH  14  16
ENDBRANCH  11  14
BRANCH   1  27
HETATM   27  C3  UNL     1      20.744   1.627  48.773  1.00  0.00     0.068 C 
BRANCH  27  28
HETATM   28  C2  UNL     1      19.709   2.734  48.956  1.00  0.00     0.171 C 
BRANCH  28  29
HETATM   29  O1  UNL     1      19.845   3.769  48.068  1.00  0.00    -0.396 OA
HETATM   30  C1  UNL     1      19.934   3.410  46.745  1.00  0.00     0.201 C 
ENDBRANCH  28  29
ENDBRANCH  27  28
ENDBRANCH   1  27
TORSDOF 7
ENDMDL
MODEL 3
REMARK VINA RESULT:      -8.0      5.425      8.372
REMARK  7 active torsions:
REMARK  status: ('A' for Active; 'I' for Inactive)
REMARK    1  A    between atoms: O1_2  and  C2_3 
REMARK    2  A    between atoms: C2_3  and  C3_4 
REMARK    3  A    between atoms: C3_4  and  C4_5 
REMARK    4  A    between atoms: C12_15  and  N1_16 
REMARK    5  A    between atoms: N1_16  and  C13_17 
REMARK    6  A    between atoms: C16_20  and  N2_21 
REMARK    7  A    between atoms: C17_22  and  C18_23 
ROOT
HETATM    1  C4  UNL     1      24.794   7.398  49.982  1.00  0.00    -0.018 A 
HETATM    2  C5  UNL     1      23.935   6.961  50.966  1.00  0.00     0.042 A 
HETATM    3  C6  UNL     1      23.949   5.615  51.278  1.00  0.00     0.067 A 
HETATM    4  C7  UNL     1      24.741   4.666  50.701  1.00  0.00     0.053 A 
HETATM    5  C8  UNL     1      25.604   5.122  49.711  1.00  0.00     0.117 A 
HETATM    6  C9  UNL     1      25.613   6.468  49.374  1.00  0.00     0.109 A 
HETATM    7  O2  UNL     1      26.548   6.736  48.356  1.00  0.00    -0.346 OA
HETATM    8  C10 UNL     1      27.839   6.128  48.385  1.00  0.00     0.202 C 
HETATM    9  C11 UNL     1      27.771   4.648  48.651  1.00  0.00     0.202 C 
HETATM   10  O3  UNL     1      26.451   4.257  49.056  1.00  0.00    -0.345 OA
HETATM   11  C12 UNL     1      24.498   3.464  51.242  1.00  0.00     0.045 A 
HETATM   12  C20 UNL     1      23.445   3.660  52.269  1.00  0.00     0.207 A 
HETATM   13  N3  UNL     1      23.188   5.077  52.185  1.00  0.00    -0.283 NA
ENDROOT
BRANCH  11  14
HETATM   14  N1  UNL     1      25.198   2.277  50.815  1.00  0.00    -0.357 N 
HETATM   15  H13 UNL     1      25.123   1.924  49.863  1.00  0.00     0.166 HD
BRANCH  14  16
HETATM   16  C13 UNL     1      25.966   1.716  51.884  1.00  0.00     0.033 A 
HETATM   17  C14 UNL     1      25.424   0.552  52.377  1.00  0.00     0.032 A 
HETATM   18  C15 UNL     1      26.036  -0.124  53.410  1.00  0.00     0.032 A 
HETATM   19  C16 UNL     1      27.197   0.417  53.912  1.00  0.00     0.039 A 
HETATM   20  C17 UNL     1      27.683   1.586  53.371  1.00  0.00     0.030 A 
HETATM   21  C19 UNL     1      27.124   2.294  52.356  1.00  0.00     0.046 A 
BRANCH  19  22
HETATM   22  N2  UNL     1      27.875  -0.227  54.983  1.00  0.00    -0.398 N 
HETATM   23  H16 UNL     1      28.287  -0.106  55.922  1.00  0.00     0.156 HD
HETATM   24  H17 UNL     1      27.954  -1.204  54.605  1.00  0.00     0.156 HD
ENDBRANCH  19  22
BRANCH  20  25
HETATM   25  C18 UNL     1      28.919   2.108  53.934  1.00  0.00     0.272 C 
HETATM   26  O4  UNL     1      29.640   2.332  54.923  1.00  0.00    -0.301 OA
ENDBRANCH  20  25
ENDBRANCH  14  16
ENDBRANCH  11  14
BRANCH   1  27
HETATM   27  C3  UNL     1      24.905   8.819  49.513  1.00  0.00     0.068 C 
BRANCH  27  28
HETATM   28  C2  UNL     1      26.132   9.476  50.141  1.00  0.00     0.171 C 
BRANCH  28  29
HETATM   29  O1  UNL     1      26.744  10.394  49.328  1.00  0.00    -0.396 OA
HETATM   30  C1  UNL     1      27.974  10.029  48.839  1.00  0.00     0.201 C 
ENDBRANCH  28  29
ENDBRANCH  27  28
ENDBRANCH   1  27
TORSDOF 7
ENDMDL
MODEL 4
REMARK VINA RESULT:      -7.8      2.584      8.091
REMARK  7 active torsions:
REMARK  status: ('A' for Active; 'I' for Inactive)
REMARK    1  A    between atoms: O1_2  and  C2_3 
REMARK    2  A    between atoms: C2_3  and  C3_4 
REMARK    3  A    between atoms: C3_4  and  C4_5 
REMARK    4  A    between atoms: C12_15  and  N1_16 
REMARK    5  A    between atoms: N1_16  and  C13_17 
REMARK    6  A    between atoms: C16_20  and  N2_21 
REMARK    7  A    between atoms: C17_22  and  C18_23 
ROOT
HETATM    1  C4  UNL     1      25.500   0.263  52.720  1.00  0.00    -0.018 A 
HETATM    2  C5  UNL     1      24.798  -0.677  53.440  1.00  0.00     0.042 A 
HETATM    3  C6  UNL     1      23.447  -0.461  53.629  1.00  0.00     0.067 A 
HETATM    4  C7  UNL     1      22.732   0.606  53.167  1.00  0.00     0.053 A 
HETATM    5  C8  UNL     1      23.455   1.546  52.442  1.00  0.00     0.117 A 
HETATM    6  C9  UNL     1      24.814   1.357  52.234  1.00  0.00     0.109 A 
HETATM    7  O2  UNL     1      25.369   2.409  51.482  1.00  0.00    -0.346 OA
HETATM    8  C10 UNL     1      24.668   2.937  50.355  1.00  0.00     0.202 C 
HETATM    9  C11 UNL     1      23.222   3.222  50.660  1.00  0.00     0.202 C 
HETATM   10  O3  UNL     1      22.842   2.665  51.926  1.00  0.00    -0.345 OA
HETATM   11  C12 UNL     1      21.447   0.499  53.531  1.00  0.00     0.045 A 
HETATM   12  C20 UNL     1      21.322  -0.762  54.305  1.00  0.00     0.207 A 
HETATM   13  N3  UNL     1      22.672  -1.271  54.290  1.00  0.00    -0.283 NA
ENDROOT
BRANCH  11  14
HETATM   14  N1  UNL     1      20.465   1.494  53.175  1.00  0.00    -0.357 N 
HETATM   15  H13 UNL     1      20.497   2.438  53.556  1.00  0.00     0.166 HD
BRANCH  14  16
HETATM   16  C13 UNL     1      19.503   0.968  52.256  1.00  0.00     0.033 A 
HETATM   17  C14 UNL     1      19.699   1.409  50.968  1.00  0.00     0.032 A 
HETATM   18  C15 UNL     1      18.864   1.000  49.952  1.00  0.00     0.032 A 
HETATM   19  C16 UNL     1      17.843   0.142  50.287  1.00  0.00     0.039 A 
HETATM   20  C17 UNL     1      17.705  -0.260  51.598  1.00  0.00     0.030 A 
HETATM   21  C19 UNL     1      18.495   0.110  52.639  1.00  0.00     0.046 A 
BRANCH  19  22
HETATM   22  N2  UNL     1      16.941  -0.314  49.288  1.00  0.00    -0.398 N 
HETATM   23  H16 UNL     1      16.128  -0.066  48.701  1.00  0.00     0.156 HD
HETATM   24  H17 UNL     1      17.299  -1.289  49.131  1.00  0.00     0.156 HD
ENDBRANCH  19  22
BRANCH  20  25
HETATM   25  C18 UNL     1      16.614  -1.176  51.894  1.00  0.00     0.272 C 
HETATM   26  O4  UNL     1      15.465  -1.591  51.661  1.00  0.00    -0.301 OA
ENDBRANCH  20  25
ENDBRANCH  14  16
ENDBRANCH  11  14
BRANCH   1  27
HETATM   27  C3  UNL     1      26.971   0.192  52.425  1.00  0.00     0.068 C 
BRANCH  27  28
HETATM   28  C2  UNL     1      27.544  -1.114  52.970  1.00  0.00     0.171 C 
BRANCH  28  29
HETATM   29  O1  UNL     1      28.419  -0.941  54.011  1.00  0.00    -0.396 OA
HETATM   30  C1  UNL     1      29.748  -0.896  53.669  1.00  0.00     0.201 C 
ENDBRANCH  28  29
ENDBRANCH  27  28
ENDBRANCH   1  27
TORSDOF 7
ENDMDL
MODEL 5
REMARK VINA RESULT:      -7.7      3.900      8.168
REMARK  7 active torsions:
REMARK  status: ('A' for Active; 'I' for Inactive)
REMARK    1  A    between atoms: O1_2  and  C2_3 
REMARK    2  A    between atoms: C2_3  and  C3_4 
REMARK    3  A    between atoms: C3_4  and  C4_5 
REMARK    4  A    between atoms: C12_15  and  N1_16 
REMARK    5  A    between atoms: N1_16  and  C13_17 
REMARK    6  A    between atoms: C16_20  and  N2_21 
REMARK    7  A    between atoms: C17_22  and  C18_23 
ROOT
HETATM    1  C4  UNL     1      26.060   0.110  52.402  1.00  0.00    -0.018 A 
HETATM    2  C5  UNL     1      26.839   1.063  51.786  1.00  0.00     0.042 A 
HETATM    3  C6  UNL     1      26.198   2.156  51.235  1.00  0.00     0.067 A 
HETATM    4  C7  UNL     1      24.853   2.386  51.243  1.00  0.00     0.053 A 
HETATM    5  C8  UNL     1      24.080   1.416  51.870  1.00  0.00     0.117 A 
HETATM    6  C9  UNL     1      24.694   0.306  52.433  1.00  0.00     0.109 A 
HETATM    7  O2  UNL     1      23.752  -0.560  53.019  1.00  0.00    -0.346 OA
HETATM    8  C10 UNL     1      22.669  -0.033  53.786  1.00  0.00     0.202 C 
HETATM    9  C11 UNL     1      21.969   1.101  53.088  1.00  0.00     0.202 C 
HETATM   10  O3  UNL     1      22.711   1.538  51.941  1.00  0.00    -0.345 OA
HETATM   11  C12 UNL     1      24.574   3.540  50.622  1.00  0.00     0.045 A 
HETATM   12  C20 UNL     1      25.867   4.109  50.169  1.00  0.00     0.207 A 
HETATM   13  N3  UNL     1      26.818   3.124  50.626  1.00  0.00    -0.283 NA
ENDROOT
BRANCH  11  14
HETATM   14  N1  UNL     1      23.223   4.028  50.484  1.00  0.00    -0.357 N 
HETATM   15  H13 UNL     1      22.665   4.295  51.293  1.00  0.00     0.166 HD
BRANCH  14  16
HETATM   16  C13 UNL     1      22.826   4.072  49.110  1.00  0.00     0.033 A 
HETATM   17  C14 UNL     1      22.496   2.834  48.610  1.00  0.00     0.032 A 
HETATM   18  C15 UNL     1      22.090   2.692  47.301  1.00  0.00     0.032 A 
HETATM   19  C16 UNL     1      22.032   3.833  46.536  1.00  0.00     0.039 A 
HETATM   20  C17 UNL     1      22.377   5.041  47.102  1.00  0.00     0.030 A 
HETATM   21  C19 UNL     1      22.784   5.241  48.382  1.00  0.00     0.046 A 
BRANCH  19  22
HETATM   22  N2  UNL     1      21.626   3.756  45.176  1.00  0.00    -0.398 N 
HETATM   23  H16 UNL     1      21.235   4.279  44.376  1.00  0.00     0.156 HD
HETATM   24  H17 UNL     1      21.833   2.748  44.966  1.00  0.00     0.156 HD
ENDBRANCH  19  22
BRANCH  20  25
HETATM   25  C18 UNL     1      22.288   6.217  46.249  1.00  0.00     0.272 C 
HETATM   26  O4  UNL     1      22.424   6.749  45.133  1.00  0.00    -0.301 OA
ENDBRANCH  20  25
ENDBRANCH  14  16
ENDBRANCH  11  14
BRANCH   1  27
HETATM   27  C3  UNL     1      26.587  -1.140  53.046  1.00  0.00     0.068 C 
BRANCH  27  28
HETATM   28  C2  UNL     1      28.066  -0.965  53.382  1.00  0.00     0.171 C 
BRANCH  28  29
HETATM   29  O1  UNL     1      28.292  -0.495  54.650  1.00  0.00    -0.396 OA
HETATM   30  C1  UNL     1      28.964   0.699  54.732  1.00  0.00     0.201 C 
ENDBRANCH  28  29
ENDBRANCH  27  28
ENDBRANCH   1  27
TORSDOF 7
ENDMDL
MODEL 6
REMARK VINA RESULT:      -7.7      2.295      3.829
REMARK  7 active torsions:
REMARK  status: ('A' for Active; 'I' for Inactive)
REMARK    1  A    between atoms: O1_2  and  C2_3 
REMARK    2  A    between atoms: C2_3  and  C3_4 
REMARK    3  A    between atoms: C3_4  and  C4_5 
REMARK    4  A    between atoms: C12_15  and  N1_16 
REMARK    5  A    between atoms: N1_16  and  C13_17 
REMARK    6  A    between atoms: C16_20  and  N2_21 
REMARK    7  A    between atoms: C17_22  and  C18_23 
ROOT
HETATM    1  C4  UNL     1      20.565   0.915  50.847  1.00  0.00    -0.018 A 
HETATM    2  C5  UNL     1      21.564   1.539  50.135  1.00  0.00     0.042 A 
HETATM    3  C6  UNL     1      22.761   1.775  50.782  1.00  0.00     0.067 A 
HETATM    4  C7  UNL     1      23.054   1.445  52.073  1.00  0.00     0.053 A 
HETATM    5  C8  UNL     1      22.036   0.815  52.779  1.00  0.00     0.117 A 
HETATM    6  C9  UNL     1      20.821   0.564  52.157  1.00  0.00     0.109 A 
HETATM    7  O2  UNL     1      19.922  -0.078  53.028  1.00  0.00    -0.346 OA
HETATM    8  C10 UNL     1      20.373  -1.128  53.884  1.00  0.00     0.202 C 
HETATM    9  C11 UNL     1      21.638  -0.769  54.616  1.00  0.00     0.202 C 
HETATM   10  O3  UNL     1      22.214   0.435  54.090  1.00  0.00    -0.345 OA
HETATM   11  C12 UNL     1      24.305   1.818  52.377  1.00  0.00     0.045 A 
HETATM   12  C20 UNL     1      24.873   2.450  51.161  1.00  0.00     0.207 A 
HETATM   13  N3  UNL     1      23.782   2.356  50.222  1.00  0.00    -0.283 NA
ENDROOT
BRANCH  11  14
HETATM   14  N1  UNL     1      24.876   1.590  53.683  1.00  0.00    -0.357 N 
HETATM   15  H13 UNL     1      24.340   1.742  54.535  1.00  0.00     0.166 HD
BRANCH  14  16
HETATM   16  C13 UNL     1      26.231   1.142  53.585  1.00  0.00     0.033 A 
HETATM   17  C14 UNL     1      27.142   2.162  53.731  1.00  0.00     0.032 A 
HETATM   18  C15 UNL     1      28.495   1.908  53.666  1.00  0.00     0.032 A 
HETATM   19  C16 UNL     1      28.878   0.605  53.451  1.00  0.00     0.039 A 
HETATM   20  C17 UNL     1      27.911  -0.367  53.313  1.00  0.00     0.030 A 
HETATM   21  C19 UNL     1      26.568  -0.176  53.368  1.00  0.00     0.046 A 
BRANCH  19  22
HETATM   22  N2  UNL     1      30.258   0.275  53.366  1.00  0.00    -0.398 N 
HETATM   23  H16 UNL     1      31.073  -0.104  53.875  1.00  0.00     0.156 HD
HETATM   24  H17 UNL     1      30.465   0.550  52.374  1.00  0.00     0.156 HD
ENDBRANCH  19  22
BRANCH  20  25
HETATM   25  C18 UNL     1      28.374  -1.730  53.097  1.00  0.00     0.272 C 
HETATM   26  O4  UNL     1      29.118  -2.675  53.412  1.00  0.00    -0.301 OA
ENDBRANCH  20  25
ENDBRANCH  14  16
ENDBRANCH  11  14
BRANCH   1  27
HETATM   27  C3  UNL     1      19.203   0.588  50.305  1.00  0.00     0.068 C 
BRANCH  27  28
HETATM   28  C2  UNL     1      18.286   1.800  50.449  1.00  0.00     0.171 C 
BRANCH  28  29
HETATM   29  O1  UNL     1      17.463   1.741  51.544  1.00  0.00    -0.396 OA
HETATM   30  C1  UNL     1      16.372   2.575  51.514  1.00  0.00     0.201 C 
ENDBRANCH  28  29
ENDBRANCH  27  28
ENDBRANCH   1  27
TORSDOF 7
ENDMDL
MODEL 7
REMARK VINA RESULT:      -7.6      3.809      5.319
REMARK  7 active torsions:
REMARK  status: ('A' for Active; 'I' for Inactive)
REMARK    1  A    between atoms: O1_2  and  C2_3 
REMARK    2  A    between atoms: C2_3  and  C3_4 
REMARK    3  A    between atoms: C3_4  and  C4_5 
REMARK    4  A    between atoms: C12_15  and  N1_16 
REMARK    5  A    between atoms: N1_16  and  C13_17 
REMARK    6  A    between atoms: C16_20  and  N2_21 
REMARK    7  A    between atoms: C17_22  and  C18_23 
ROOT
HETATM    1  C4  UNL     1      18.815  -0.402  52.375  1.00  0.00    -0.018 A 
HETATM    2  C5  UNL     1      18.703   0.216  51.149  1.00  0.00     0.042 A 
HETATM    3  C6  UNL     1      19.837   0.801  50.621  1.00  0.00     0.067 A 
HETATM    4  C7  UNL     1      21.071   0.828  51.202  1.00  0.00     0.053 A 
HETATM    5  C8  UNL     1      21.169   0.200  52.438  1.00  0.00     0.117 A 
HETATM    6  C9  UNL     1      20.048  -0.398  52.995  1.00  0.00     0.109 A 
HETATM    7  O2  UNL     1      20.343  -0.979  54.243  1.00  0.00    -0.346 OA
HETATM    8  C10 UNL     1      21.554  -1.711  54.428  1.00  0.00     0.202 C 
HETATM    9  C11 UNL     1      22.756  -0.975  53.900  1.00  0.00     0.202 C 
HETATM   10  O3  UNL     1      22.363   0.163  53.121  1.00  0.00    -0.345 OA
HETATM   11  C12 UNL     1      21.942   1.478  50.416  1.00  0.00     0.045 A 
HETATM   12  C20 UNL     1      21.193   1.913  49.211  1.00  0.00     0.207 A 
HETATM   13  N3  UNL     1      19.864   1.415  49.474  1.00  0.00    -0.283 NA
ENDROOT
BRANCH  11  14
HETATM   14  N1  UNL     1      23.324   1.656  50.790  1.00  0.00    -0.357 N 
HETATM   15  H13 UNL     1      23.957   0.865  50.892  1.00  0.00     0.166 HD
BRANCH  14  16
HETATM   16  C13 UNL     1      23.636   3.039  50.977  1.00  0.00     0.033 A 
HETATM   17  C14 UNL     1      23.054   3.570  52.104  1.00  0.00     0.032 A 
HETATM   18  C15 UNL     1      23.251   4.892  52.439  1.00  0.00     0.032 A 
HETATM   19  C16 UNL     1      24.045   5.639  51.601  1.00  0.00     0.039 A 
HETATM   20  C17 UNL     1      24.596   5.043  50.488  1.00  0.00     0.030 A 
HETATM   21  C19 UNL     1      24.437   3.749  50.109  1.00  0.00     0.046 A 
BRANCH  19  22
HETATM   22  N2  UNL     1      24.283   7.012  51.884  1.00  0.00    -0.398 N 
HETATM   23  H16 UNL     1      24.574   7.691  52.605  1.00  0.00     0.156 HD
HETATM   24  H17 UNL     1      24.056   7.446  50.955  1.00  0.00     0.156 HD
ENDBRANCH  19  22
BRANCH  20  25
HETATM   25  C18 UNL     1      25.435   5.878  49.641  1.00  0.00     0.272 C 
HETATM   26  O4  UNL     1      26.291   6.772  49.524  1.00  0.00    -0.301 OA
ENDBRANCH  20  25
ENDBRANCH  14  16
ENDBRANCH  11  14
BRANCH   1  27
HETATM   27  C3  UNL     1      17.687  -1.081  53.097  1.00  0.00     0.068 C 
BRANCH  27  28
HETATM   28  C2  UNL     1      16.363  -0.752  52.412  1.00  0.00     0.171 C 
BRANCH  28  29
HETATM   29  O1  UNL     1      15.542   0.054  53.157  1.00  0.00    -0.396 OA
HETATM   30  C1  UNL     1      14.987   1.118  52.489  1.00  0.00     0.201 C 
ENDBRANCH  28  29
ENDBRANCH  27  28
ENDBRANCH   1  27
TORSDOF 7
ENDMDL
MODEL 8
REMARK VINA RESULT:      -7.5      4.496      7.608
REMARK  7 active torsions:
REMARK  status: ('A' for Active; 'I' for Inactive)
REMARK    1  A    between atoms: O1_2  and  C2_3 
REMARK    2  A    between atoms: C2_3  and  C3_4 
REMARK    3  A    between atoms: C3_4  and  C4_5 
REMARK    4  A    between atoms: C12_15  and  N1_16 
REMARK    5  A    between atoms: N1_16  and  C13_17 
REMARK    6  A    between atoms: C16_20  and  N2_21 
REMARK    7  A    between atoms: C17_22  and  C18_23 
ROOT
HETATM    1  C4  UNL     1      24.512   6.728  50.390  1.00  0.00    -0.018 A 
HETATM    2  C5  UNL     1      23.452   6.553  51.250  1.00  0.00     0.042 A 
HETATM    3  C6  UNL     1      23.039   5.260  51.503  1.00  0.00     0.067 A 
HETATM    4  C7  UNL     1      23.584   4.125  50.977  1.00  0.00     0.053 A 
HETATM    5  C8  UNL     1      24.654   4.318  50.111  1.00  0.00     0.117 A 
HETATM    6  C9  UNL     1      25.094   5.605  49.837  1.00  0.00     0.109 A 
HETATM    7  O2  UNL     1      26.181   5.597  48.943  1.00  0.00    -0.346 OA
HETATM    8  C10 UNL     1      27.227   4.637  49.090  1.00  0.00     0.202 C 
HETATM    9  C11 UNL     1      26.701   3.239  49.281  1.00  0.00     0.202 C 
HETATM   10  O3  UNL     1      25.286   3.249  49.517  1.00  0.00    -0.345 OA
HETATM   11  C12 UNL     1      22.940   3.043  51.435  1.00  0.00     0.045 A 
HETATM   12  C20 UNL     1      21.874   3.529  52.345  1.00  0.00     0.207 A 
HETATM   13  N3  UNL     1      22.051   4.960  52.295  1.00  0.00    -0.283 NA
ENDROOT
BRANCH  11  14
HETATM   14  N1  UNL     1      23.312   1.706  51.037  1.00  0.00    -0.357 N 
HETATM   15  H13 UNL     1      23.191   1.379  50.080  1.00  0.00     0.166 HD
BRANCH  14  16
HETATM   16  C13 UNL     1      23.846   0.967  52.140  1.00  0.00     0.033 A 
HETATM   17  C14 UNL     1      22.892   0.223  52.794  1.00  0.00     0.032 A 
HETATM   18  C15 UNL     1      23.232  -0.552  53.882  1.00  0.00     0.032 A 
HETATM   19  C16 UNL     1      24.551  -0.542  54.271  1.00  0.00     0.039 A 
HETATM   20  C17 UNL     1      25.453   0.228  53.569  1.00  0.00     0.030 A 
HETATM   21  C19 UNL     1      25.176   1.010  52.494  1.00  0.00     0.046 A 
BRANCH  19  22
HETATM   22  N2  UNL     1      24.968  -1.314  55.389  1.00  0.00    -0.398 N 
HETATM   23  H16 UNL     1      25.571  -1.337  56.227  1.00  0.00     0.156 HD
HETATM   24  H17 UNL     1      24.405  -2.188  55.244  1.00  0.00     0.156 HD
ENDBRANCH  19  22
BRANCH  20  25
HETATM   25  C18 UNL     1      26.837   0.193  54.018  1.00  0.00     0.272 C 
HETATM   26  O4  UNL     1      27.683  -0.130  54.870  1.00  0.00    -0.301 OA
ENDBRANCH  20  25
ENDBRANCH  14  16
ENDBRANCH  11  14
BRANCH   1  27
HETATM   27  C3  UNL     1      25.086   8.059  49.999  1.00  0.00     0.068 C 
BRANCH  27  28
HETATM   28  C2  UNL     1      24.254   8.671  48.874  1.00  0.00     0.171 C 
BRANCH  28  29
HETATM   29  O1  UNL     1      24.667   8.302  47.619  1.00  0.00    -0.396 OA
HETATM   30  C1  UNL     1      23.728   7.661  46.849  1.00  0.00     0.201 C 
ENDBRANCH  28  29
ENDBRANCH  27  28
ENDBRANCH   1  27
TORSDOF 7
ENDMDL
MODEL 9
REMARK VINA RESULT:      -7.4      3.958      8.232
REMARK  7 active torsions:
REMARK  status: ('A' for Active; 'I' for Inactive)
REMARK    1  A    between atoms: O1_2  and  C2_3 
REMARK    2  A    between atoms: C2_3  and  C3_4 
REMARK    3  A    between atoms: C3_4  and  C4_5 
REMARK    4  A    between atoms: C12_15  and  N1_16 
REMARK    5  A    between atoms: N1_16  and  C13_17 
REMARK    6  A    between atoms: C16_20  and  N2_21 
REMARK    7  A    between atoms: C17_22  and  C18_23 
ROOT
HETATM    1  C4  UNL     1      26.064   0.841  53.284  1.00  0.00    -0.018 A 
HETATM    2  C5  UNL     1      26.889   1.699  52.591  1.00  0.00     0.042 A 
HETATM    3  C6  UNL     1      26.354   2.366  51.507  1.00  0.00     0.067 A 
HETATM    4  C7  UNL     1      25.074   2.257  51.049  1.00  0.00     0.053 A 
HETATM    5  C8  UNL     1      24.253   1.388  51.758  1.00  0.00     0.117 A 
HETATM    6  C9  UNL     1      24.760   0.703  52.853  1.00  0.00     0.109 A 
HETATM    7  O2  UNL     1      23.783  -0.124  53.438  1.00  0.00    -0.346 OA
HETATM    8  C10 UNL     1      22.446   0.348  53.606  1.00  0.00     0.202 C 
HETATM    9  C11 UNL     1      21.903   0.991  52.359  1.00  0.00     0.202 C 
HETATM   10  O3  UNL     1      22.941   1.195  51.390  1.00  0.00    -0.345 OA
HETATM   11  C12 UNL     1      24.893   3.044  49.979  1.00  0.00     0.045 A 
HETATM   12  C20 UNL     1      26.185   3.726  49.723  1.00  0.00     0.207 A 
HETATM   13  N3  UNL     1      27.028   3.202  50.771  1.00  0.00    -0.283 NA
ENDROOT
BRANCH  11  14
HETATM   14  N1  UNL     1      23.627   3.122  49.291  1.00  0.00    -0.357 N 
HETATM   15  H13 UNL     1      23.239   2.324  48.791  1.00  0.00     0.166 HD
BRANCH  14  16
HETATM   16  C13 UNL     1      23.045   4.422  49.423  1.00  0.00     0.033 A 
HETATM   17  C14 UNL     1      22.417   4.605  50.634  1.00  0.00     0.032 A 
HETATM   18  C15 UNL     1      21.803   5.802  50.931  1.00  0.00     0.032 A 
HETATM   19  C16 UNL     1      21.849   6.786  49.971  1.00  0.00     0.039 A 
HETATM   20  C17 UNL     1      22.495   6.533  48.780  1.00  0.00     0.030 A 
HETATM   21  C19 UNL     1      23.116   5.376  48.433  1.00  0.00     0.046 A 
BRANCH  19  22
HETATM   22  N2  UNL     1      21.230   8.042  50.211  1.00  0.00    -0.398 N 
HETATM   23  H16 UNL     1      20.558   8.740  49.851  1.00  0.00     0.156 HD
HETATM   24  H17 UNL     1      21.672   8.307  51.126  1.00  0.00     0.156 HD
ENDBRANCH  19  22
BRANCH  20  25
HETATM   25  C18 UNL     1      22.522   7.613  47.804  1.00  0.00     0.272 C 
HETATM   26  O4  UNL     1      22.071   8.692  47.382  1.00  0.00    -0.301 OA
ENDBRANCH  20  25
ENDBRANCH  14  16
ENDBRANCH  11  14
BRANCH   1  27
HETATM   27  C3  UNL     1      26.479   0.033  54.479  1.00  0.00     0.068 C 
BRANCH  27  28
HETATM   28  C2  UNL     1      27.967   0.238  54.750  1.00  0.00     0.171 C 
BRANCH  28  29
HETATM   29  O1  UNL     1      28.747  -0.828  54.382  1.00  0.00    -0.396 OA
HETATM   30  C1  UNL     1      29.815  -0.532  53.571  1.00  0.00     0.201 C 
ENDBRANCH  28  29
ENDBRANCH  27  28
ENDBRANCH   1  27
TORSDOF 7
ENDMDL
