MODEL 1
REMARK VINA RESULT:      -6.7      0.000      0.000
REMARK  6 active torsions:
REMARK  status: ('A' for Active; 'I' for Inactive)
REMARK    1  A    between atoms: C2_2  and  C3_3 
REMARK    2  A    between atoms: C2_2  and  C16_20 
REMARK    3  A    between atoms: N1_10  and  C8_11 
REMARK    4  A    between atoms: C8_11  and  C9_12 
REMARK    5  A    between atoms: C9_12  and  C10_13 
REMARK    6  A    between atoms: C10_13  and  N2_14 
ROOT
HETATM    1  C3  UNL     1      24.084   1.352  51.688  1.00  0.00     0.010 C 
HETATM    2  C4  UNL     1      23.720   2.614  51.537  1.00  0.00     0.035 C 
HETATM    3  C5  UNL     1      23.609   3.430  52.769  1.00  0.00     0.225 C 
HETATM    4  O1  UNL     1      23.079   4.688  52.526  1.00  0.00    -0.376 OA
HETATM    5  C6  UNL     1      23.760   5.369  51.522  1.00  0.00     0.271 C 
HETATM    6  C7  UNL     1      23.484   4.607  50.250  1.00  0.00     0.247 C 
HETATM    7  O2  UNL     1      23.278   5.193  49.140  1.00  0.00    -0.271 OA
HETATM    8  N1  UNL     1      23.446   3.171  50.264  1.00  0.00    -0.318 N 
ENDROOT
BRANCH   8   9
HETATM    9  C8  UNL     1      23.166   2.356  49.135  1.00  0.00     0.134 C 
BRANCH   9  10
HETATM   10  C9  UNL     1      21.657   2.356  48.890  1.00  0.00     0.050 C 
BRANCH  10  11
HETATM   11  C10 UNL     1      20.981   1.183  49.515  1.00  0.00     0.274 C 
BRANCH  11  12
HETATM   12  N2  UNL     1      19.717   1.562  50.059  1.00  0.00     0.088 N 
HETATM   13  C11 UNL     1      19.742   2.863  50.689  1.00  0.00     0.272 C 
HETATM   14  C12 UNL     1      19.877   2.775  52.186  1.00  0.00     0.030 C 
HETATM   15  C13 UNL     1      20.440   1.478  52.683  1.00  0.00     0.003 C 
HETATM   16  C14 UNL     1      19.702   0.278  52.148  1.00  0.00     0.030 C 
HETATM   17  C15 UNL     1      19.034   0.574  50.825  1.00  0.00     0.272 C 
ENDBRANCH  11  12
ENDBRANCH  10  11
ENDBRANCH   9  10
ENDBRANCH   8   9
BRANCH   1  18
HETATM   18  C2  UNL     1      24.364   0.794  53.028  1.00  0.00     0.039 C 
HETATM   19  C1  UNL     1      23.468  -0.400  53.333  1.00  0.00     0.019 C 
BRANCH  18  20
HETATM   20  C16 UNL     1      25.790   0.324  53.127  1.00  0.00    -0.048 A 
HETATM   21  C17 UNL     1      26.805  -0.168  52.409  1.00  0.00     0.027 A 
HETATM   22  C18 UNL     1      27.667  -0.232  53.572  1.00  0.00     0.012 A 
HETATM   23 BR1  UNL     1      29.462  -0.863  53.492  1.00  0.00    -0.051 Br
HETATM   24  C19 UNL     1      26.660   0.255  54.277  1.00  0.00     0.027 A 
ENDBRANCH  18  20
ENDBRANCH   1  18
TORSDOF 6
ENDMDL
MODEL 2
REMARK VINA RESULT:      -6.5      2.742      5.554
REMARK  6 active torsions:
REMARK  status: ('A' for Active; 'I' for Inactive)
REMARK    1  A    between atoms: C2_2  and  C3_3 
REMARK    2  A    between atoms: C2_2  and  C16_20 
REMARK    3  A    between atoms: N1_10  and  C8_11 
REMARK    4  A    between atoms: C8_11  and  C9_12 
REMARK    5  A    between atoms: C9_12  and  C10_13 
REMARK    6  A    between atoms: C10_13  and  N2_14 
ROOT
HETATM    1  C3  UNL     1      23.323   2.364  49.986  1.00  0.00     0.010 C 
HETATM    2  C4  UNL     1      23.623   3.591  49.594  1.00  0.00     0.035 C 
HETATM    3  C5  UNL     1      22.496   4.450  49.162  1.00  0.00     0.225 C 
HETATM    4  O1  UNL     1      22.923   5.657  48.629  1.00  0.00    -0.376 OA
HETATM    5  C6  UNL     1      23.789   6.339  49.478  1.00  0.00     0.271 C 
HETATM    6  C7  UNL     1      25.044   5.504  49.540  1.00  0.00     0.247 C 
HETATM    7  O2  UNL     1      26.204   6.025  49.556  1.00  0.00    -0.271 OA
HETATM    8  N1  UNL     1      24.955   4.071  49.583  1.00  0.00    -0.318 N 
ENDROOT
BRANCH   8   9
HETATM    9  C8  UNL     1      26.069   3.190  49.611  1.00  0.00     0.134 C 
BRANCH   9  10
HETATM   10  C9  UNL     1      26.518   3.009  51.061  1.00  0.00     0.050 C 
BRANCH  10  11
HETATM   11  C10 UNL     1      26.626   1.572  51.446  1.00  0.00     0.274 C 
BRANCH  11  12
HETATM   12  N2  UNL     1      26.891   1.444  52.842  1.00  0.00     0.088 N 
HETATM   13  C11 UNL     1      28.248   1.028  53.121  1.00  0.00     0.272 C 
HETATM   14  C12 UNL     1      28.351  -0.447  53.403  1.00  0.00     0.030 C 
HETATM   15  C13 UNL     1      27.206  -1.261  52.878  1.00  0.00     0.003 C 
HETATM   16  C14 UNL     1      25.865  -0.732  53.317  1.00  0.00     0.030 C 
HETATM   17  C15 UNL     1      25.916   0.750  53.612  1.00  0.00     0.272 C 
ENDBRANCH  11  12
ENDBRANCH  10  11
ENDBRANCH   9  10
ENDBRANCH   8   9
BRANCH   1  18
HETATM   18  C2  UNL     1      21.923   1.886  49.989  1.00  0.00     0.039 C 
HETATM   19  C1  UNL     1      21.599   1.103  48.723  1.00  0.00     0.019 C 
BRANCH  18  20
HETATM   20  C16 UNL     1      21.670   0.975  51.160  1.00  0.00    -0.048 A 
HETATM   21  C17 UNL     1      20.749   0.182  51.716  1.00  0.00     0.027 A 
HETATM   22  C18 UNL     1      21.633  -0.166  52.811  1.00  0.00     0.012 A 
HETATM   23 BR1  UNL     1      21.122  -1.350  54.213  1.00  0.00    -0.051 Br
HETATM   24  C19 UNL     1      22.540   0.621  52.256  1.00  0.00     0.027 A 
ENDBRANCH  18  20
ENDBRANCH   1  18
TORSDOF 6
ENDMDL
MODEL 3
REMARK VINA RESULT:      -6.4      3.395      5.582
REMARK  6 active torsions:
REMARK  status: ('A' for Active; 'I' for Inactive)
REMARK    1  A    between atoms: C2_2  and  C3_3 
REMARK    2  A    between atoms: C2_2  and  C16_20 
REMARK    3  A    between atoms: N1_10  and  C8_11 
REMARK    4  A    between atoms: C8_11  and  C9_12 
REMARK    5  A    between atoms: C9_12  and  C10_13 
REMARK    6  A    between atoms: C10_13  and  N2_14 
ROOT
HETATM    1  C3  UNL     1      23.334   0.533  53.246  1.00  0.00     0.010 C 
HETATM    2  C4  UNL     1      24.644   0.354  53.281  1.00  0.00     0.035 C 
HETATM    3  C5  UNL     1      25.124  -1.011  53.597  1.00  0.00     0.225 C 
HETATM    4  O1  UNL     1      26.500  -1.065  53.759  1.00  0.00    -0.376 OA
HETATM    5  C6  UNL     1      27.186  -0.520  52.679  1.00  0.00     0.271 C 
HETATM    6  C7  UNL     1      26.876   0.956  52.699  1.00  0.00     0.247 C 
HETATM    7  O2  UNL     1      27.753   1.837  52.429  1.00  0.00    -0.271 OA
HETATM    8  N1  UNL     1      25.554   1.410  53.030  1.00  0.00    -0.318 N 
ENDROOT
BRANCH   8   9
HETATM    9  C8  UNL     1      25.161   2.773  53.109  1.00  0.00     0.134 C 
BRANCH   9  10
HETATM   10  C9  UNL     1      24.794   3.262  51.708  1.00  0.00     0.050 C 
BRANCH  10  11
HETATM   11  C10 UNL     1      23.507   4.014  51.688  1.00  0.00     0.274 C 
BRANCH  11  12
HETATM   12  N2  UNL     1      22.497   3.267  51.009  1.00  0.00     0.088 N 
HETATM   13  C11 UNL     1      23.040   2.318  50.063  1.00  0.00     0.272 C 
HETATM   14  C12 UNL     1      23.006   2.832  48.649  1.00  0.00     0.030 C 
HETATM   15  C13 UNL     1      22.905   4.324  48.533  1.00  0.00     0.003 C 
HETATM   16  C14 UNL     1      21.761   4.894  49.329  1.00  0.00     0.030 C 
HETATM   17  C15 UNL     1      21.395   4.009  50.499  1.00  0.00     0.272 C 
ENDBRANCH  11  12
ENDBRANCH  10  11
ENDBRANCH   9  10
ENDBRANCH   8   9
BRANCH   1  18
HETATM   18  C2  UNL     1      22.404  -0.585  53.511  1.00  0.00     0.039 C 
HETATM   19  C1  UNL     1      22.160  -0.765  55.004  1.00  0.00     0.019 C 
BRANCH  18  20
HETATM   20  C16 UNL     1      21.069  -0.338  52.863  1.00  0.00    -0.048 A 
HETATM   21  C17 UNL     1      20.490   0.130  51.753  1.00  0.00     0.027 A 
HETATM   22  C18 UNL     1      19.162  -0.130  52.270  1.00  0.00     0.012 A 
HETATM   23 BR1  UNL     1      17.578   0.255  51.286  1.00  0.00    -0.051 Br
HETATM   24  C19 UNL     1      19.740  -0.592  53.367  1.00  0.00     0.027 A 
ENDBRANCH  18  20
ENDBRANCH   1  18
TORSDOF 6
ENDMDL
MODEL 4
REMARK VINA RESULT:      -6.3      3.467      6.473
REMARK  6 active torsions:
REMARK  status: ('A' for Active; 'I' for Inactive)
REMARK    1  A    between atoms: C2_2  and  C3_3 
REMARK    2  A    between atoms: C2_2  and  C16_20 
REMARK    3  A    between atoms: N1_10  and  C8_11 
REMARK    4  A    between atoms: C8_11  and  C9_12 
REMARK    5  A    between atoms: C9_12  and  C10_13 
REMARK    6  A    between atoms: C10_13  and  N2_14 
ROOT
HETATM    1  C3  UNL     1      22.878   2.477  50.399  1.00  0.00     0.010 C 
HETATM    2  C4  UNL     1      21.788   2.474  51.147  1.00  0.00     0.035 C 
HETATM    3  C5  UNL     1      21.057   3.757  51.268  1.00  0.00     0.225 C 
HETATM    4  O1  UNL     1      20.021   3.692  52.187  1.00  0.00    -0.376 OA
HETATM    5  C6  UNL     1      19.154   2.632  51.941  1.00  0.00     0.271 C 
HETATM    6  C7  UNL     1      19.953   1.380  52.205  1.00  0.00     0.247 C 
HETATM    7  O2  UNL     1      19.449   0.363  52.779  1.00  0.00    -0.271 OA
HETATM    8  N1  UNL     1      21.331   1.307  51.805  1.00  0.00    -0.318 N 
ENDROOT
BRANCH   8   9
HETATM    9  C8  UNL     1      22.182   0.192  52.032  1.00  0.00     0.134 C 
BRANCH   9  10
HETATM   10  C9  UNL     1      22.904   0.387  53.365  1.00  0.00     0.050 C 
BRANCH  10  11
HETATM   11  C10 UNL     1      24.109  -0.482  53.490  1.00  0.00     0.274 C 
BRANCH  11  12
HETATM   12  N2  UNL     1      25.220   0.265  53.986  1.00  0.00     0.088 N 
HETATM   13  C11 UNL     1      25.244   1.627  53.501  1.00  0.00     0.272 C 
HETATM   14  C12 UNL     1      26.189   1.809  52.344  1.00  0.00     0.030 C 
HETATM   15  C13 UNL     1      26.527   0.543  51.614  1.00  0.00     0.003 C 
HETATM   16  C14 UNL     1      27.019  -0.546  52.531  1.00  0.00     0.030 C 
HETATM   17  C15 UNL     1      26.489  -0.377  53.937  1.00  0.00     0.272 C 
ENDBRANCH  11  12
ENDBRANCH  10  11
ENDBRANCH   9  10
ENDBRANCH   8   9
BRANCH   1  18
HETATM   18  C2  UNL     1      23.335   3.709  49.721  1.00  0.00     0.039 C 
HETATM   19  C1  UNL     1      24.848   3.720  49.547  1.00  0.00     0.019 C 
BRANCH  18  20
HETATM   20  C16 UNL     1      22.723   3.827  48.352  1.00  0.00    -0.048 A 
HETATM   21  C17 UNL     1      22.365   4.710  47.414  1.00  0.00     0.027 A 
HETATM   22  C18 UNL     1      21.886   3.663  46.534  1.00  0.00     0.012 A 
HETATM   23 BR1  UNL     1      21.136   4.019  44.820  1.00  0.00    -0.051 Br
HETATM   24  C19 UNL     1      22.242   2.794  47.466  1.00  0.00     0.027 A 
ENDBRANCH  18  20
ENDBRANCH   1  18
TORSDOF 6
ENDMDL
MODEL 5
REMARK VINA RESULT:      -6.2      3.632      6.310
REMARK  6 active torsions:
REMARK  status: ('A' for Active; 'I' for Inactive)
REMARK    1  A    between atoms: C2_2  and  C3_3 
REMARK    2  A    between atoms: C2_2  and  C16_20 
REMARK    3  A    between atoms: N1_10  and  C8_11 
REMARK    4  A    between atoms: C8_11  and  C9_12 
REMARK    5  A    between atoms: C9_12  and  C10_13 
REMARK    6  A    between atoms: C10_13  and  N2_14 
ROOT
HETATM    1  C3  UNL     1      22.804   0.956  53.030  1.00  0.00     0.010 C 
HETATM    2  C4  UNL     1      24.110   0.767  52.943  1.00  0.00     0.035 C 
HETATM    3  C5  UNL     1      24.605  -0.608  53.190  1.00  0.00     0.225 C 
HETATM    4  O1  UNL     1      25.989  -0.675  53.225  1.00  0.00    -0.376 OA
HETATM    5  C6  UNL     1      26.579  -0.115  52.097  1.00  0.00     0.271 C 
HETATM    6  C7  UNL     1      26.285   1.363  52.171  1.00  0.00     0.247 C 
HETATM    7  O2  UNL     1      27.142   2.242  51.839  1.00  0.00    -0.271 OA
HETATM    8  N1  UNL     1      25.003   1.820  52.629  1.00  0.00    -0.318 N 
ENDROOT
BRANCH   8   9
HETATM    9  C8  UNL     1      24.630   3.184  52.768  1.00  0.00     0.134 C 
BRANCH   9  10
HETATM   10  C9  UNL     1      23.898   3.626  51.501  1.00  0.00     0.050 C 
BRANCH  10  11
HETATM   11  C10 UNL     1      24.723   4.536  50.656  1.00  0.00     0.274 C 
BRANCH  11  12
HETATM   12  N2  UNL     1      24.022   5.751  50.392  1.00  0.00     0.088 N 
HETATM   13  C11 UNL     1      23.507   5.821  49.042  1.00  0.00     0.272 C 
HETATM   14  C12 UNL     1      24.388   6.634  48.132  1.00  0.00     0.030 C 
HETATM   15  C13 UNL     1      25.801   6.786  48.609  1.00  0.00     0.003 C 
HETATM   16  C14 UNL     1      25.888   7.299  50.023  1.00  0.00     0.030 C 
HETATM   17  C15 UNL     1      24.652   6.953  50.822  1.00  0.00     0.272 C 
ENDBRANCH  11  12
ENDBRANCH  10  11
ENDBRANCH   9  10
ENDBRANCH   8   9
BRANCH   1  18
HETATM   18  C2  UNL     1      21.892  -0.161  53.359  1.00  0.00     0.039 C 
HETATM   19  C1  UNL     1      21.499  -0.144  54.830  1.00  0.00     0.019 C 
BRANCH  18  20
HETATM   20  C16 UNL     1      20.624  -0.074  52.553  1.00  0.00    -0.048 A 
HETATM   21  C17 UNL     1      20.135   0.306  51.369  1.00  0.00     0.027 A 
HETATM   22  C18 UNL     1      18.790  -0.088  51.737  1.00  0.00     0.012 A 
HETATM   23 BR1  UNL     1      17.302   0.103  50.563  1.00  0.00    -0.051 Br
HETATM   24  C19 UNL     1      19.280  -0.462  52.907  1.00  0.00     0.027 A 
ENDBRANCH  18  20
ENDBRANCH   1  18
TORSDOF 6
ENDMDL
MODEL 6
REMARK VINA RESULT:      -6.2      2.498      5.130
REMARK  6 active torsions:
REMARK  status: ('A' for Active; 'I' for Inactive)
REMARK    1  A    between atoms: C2_2  and  C3_3 
REMARK    2  A    between atoms: C2_2  and  C16_20 
REMARK    3  A    between atoms: N1_10  and  C8_11 
REMARK    4  A    between atoms: C8_11  and  C9_12 
REMARK    5  A    between atoms: C9_12  and  C10_13 
REMARK    6  A    between atoms: C10_13  and  N2_14 
ROOT
HETATM    1  C3  UNL     1      24.620   3.194  51.436  1.00  0.00     0.010 C 
HETATM    2  C4  UNL     1      23.345   2.862  51.317  1.00  0.00     0.035 C 
HETATM    3  C5  UNL     1      23.035   1.689  50.467  1.00  0.00     0.225 C 
HETATM    4  O1  UNL     1      21.673   1.513  50.283  1.00  0.00    -0.376 OA
HETATM    5  C6  UNL     1      20.973   1.471  51.485  1.00  0.00     0.271 C 
HETATM    6  C7  UNL     1      21.084   2.856  52.071  1.00  0.00     0.247 C 
HETATM    7  O2  UNL     1      20.111   3.419  52.668  1.00  0.00    -0.271 OA
HETATM    8  N1  UNL     1      22.316   3.586  51.968  1.00  0.00    -0.318 N 
ENDROOT
BRANCH   8   9
HETATM    9  C8  UNL     1      22.521   4.905  52.456  1.00  0.00     0.134 C 
BRANCH   9  10
HETATM   10  C9  UNL     1      22.474   5.878  51.278  1.00  0.00     0.050 C 
BRANCH  10  11
HETATM   11  C10 UNL     1      23.659   6.783  51.242  1.00  0.00     0.274 C 
BRANCH  11  12
HETATM   12  N2  UNL     1      23.558   7.701  50.154  1.00  0.00     0.088 N 
HETATM   13  C11 UNL     1      22.957   7.115  48.976  1.00  0.00     0.272 C 
HETATM   14  C12 UNL     1      23.982   6.688  47.960  1.00  0.00     0.030 C 
HETATM   15  C13 UNL     1      25.360   6.483  48.516  1.00  0.00     0.003 C 
HETATM   16  C14 UNL     1      25.856   7.670  49.299  1.00  0.00     0.030 C 
HETATM   17  C15 UNL     1      24.716   8.480  49.872  1.00  0.00     0.272 C 
ENDBRANCH  11  12
ENDBRANCH  10  11
ENDBRANCH   9  10
ENDBRANCH   8   9
BRANCH   1  18
HETATM   18  C2  UNL     1      25.676   2.422  50.747  1.00  0.00     0.039 C 
HETATM   19  C1  UNL     1      26.552   3.323  49.885  1.00  0.00     0.019 C 
BRANCH  18  20
HETATM   20  C16 UNL     1      26.575   1.736  51.740  1.00  0.00    -0.048 A 
HETATM   21  C17 UNL     1      27.528   1.959  52.650  1.00  0.00     0.027 A 
HETATM   22  C18 UNL     1      27.631   0.548  52.966  1.00  0.00     0.012 A 
HETATM   23 BR1  UNL     1      28.843  -0.131  54.269  1.00  0.00    -0.051 Br
HETATM   24  C19 UNL     1      26.687   0.334  52.064  1.00  0.00     0.027 A 
ENDBRANCH  18  20
ENDBRANCH   1  18
TORSDOF 6
ENDMDL
MODEL 7
REMARK VINA RESULT:      -6.1      7.972     10.858
REMARK  6 active torsions:
REMARK  status: ('A' for Active; 'I' for Inactive)
REMARK    1  A    between atoms: C2_2  and  C3_3 
REMARK    2  A    between atoms: C2_2  and  C16_20 
REMARK    3  A    between atoms: N1_10  and  C8_11 
REMARK    4  A    between atoms: C8_11  and  C9_12 
REMARK    5  A    between atoms: C9_12  and  C10_13 
REMARK    6  A    between atoms: C10_13  and  N2_14 
ROOT
HETATM    1  C3  UNL     1      28.092   7.026  48.040  1.00  0.00     0.010 C 
HETATM    2  C4  UNL     1      29.066   7.870  48.336  1.00  0.00     0.035 C 
HETATM    3  C5  UNL     1      28.681   9.120  49.033  1.00  0.00     0.225 C 
HETATM    4  O1  UNL     1      29.741  10.002  49.165  1.00  0.00    -0.376 OA
HETATM    5  C6  UNL     1      30.857   9.414  49.752  1.00  0.00     0.271 C 
HETATM    6  C7  UNL     1      31.353   8.395  48.756  1.00  0.00     0.247 C 
HETATM    7  O2  UNL     1      32.593   8.201  48.546  1.00  0.00    -0.271 OA
HETATM    8  N1  UNL     1      30.418   7.603  48.007  1.00  0.00    -0.318 N 
ENDROOT
BRANCH   8   9
HETATM    9  C8  UNL     1      30.773   6.640  47.025  1.00  0.00     0.134 C 
BRANCH   9  10
HETATM   10  C9  UNL     1      31.110   5.324  47.725  1.00  0.00     0.050 C 
BRANCH  10  11
HETATM   11  C10 UNL     1      32.090   4.506  46.955  1.00  0.00     0.274 C 
BRANCH  11  12
HETATM   12  N2  UNL     1      33.336   5.193  46.836  1.00  0.00     0.088 N 
HETATM   13  C11 UNL     1      33.892   5.125  45.503  1.00  0.00     0.272 C 
HETATM   14  C12 UNL     1      34.954   4.066  45.376  1.00  0.00     0.030 C 
HETATM   15  C13 UNL     1      34.894   2.998  46.426  1.00  0.00     0.003 C 
HETATM   16  C14 UNL     1      34.870   3.556  47.826  1.00  0.00     0.030 C 
HETATM   17  C15 UNL     1      34.293   4.953  47.862  1.00  0.00     0.272 C 
ENDBRANCH  11  12
ENDBRANCH  10  11
ENDBRANCH   9  10
ENDBRANCH   8   9
BRANCH   1  18
HETATM   18  C2  UNL     1      26.688   7.327  48.395  1.00  0.00     0.039 C 
HETATM   19  C1  UNL     1      25.902   7.819  47.187  1.00  0.00     0.019 C 
BRANCH  18  20
HETATM   20  C16 UNL     1      25.992   6.101  48.918  1.00  0.00    -0.048 A 
HETATM   21  C17 UNL     1      24.810   5.642  49.340  1.00  0.00     0.027 A 
HETATM   22  C18 UNL     1      25.350   4.320  49.586  1.00  0.00     0.012 A 
HETATM   23 BR1  UNL     1      24.295   2.883  50.257  1.00  0.00    -0.051 Br
HETATM   24  C19 UNL     1      26.517   4.779  49.168  1.00  0.00     0.027 A 
ENDBRANCH  18  20
ENDBRANCH   1  18
TORSDOF 6
ENDMDL
MODEL 8
REMARK VINA RESULT:      -6.0      3.603      6.219
REMARK  6 active torsions:
REMARK  status: ('A' for Active; 'I' for Inactive)
REMARK    1  A    between atoms: C2_2  and  C3_3 
REMARK    2  A    between atoms: C2_2  and  C16_20 
REMARK    3  A    between atoms: N1_10  and  C8_11 
REMARK    4  A    between atoms: C8_11  and  C9_12 
REMARK    5  A    between atoms: C9_12  and  C10_13 
REMARK    6  A    between atoms: C10_13  and  N2_14 
ROOT
HETATM    1  C3  UNL     1      25.503   5.972  49.325  1.00  0.00     0.010 C 
HETATM    2  C4  UNL     1      24.294   5.743  48.841  1.00  0.00     0.035 C 
HETATM    3  C5  UNL     1      23.837   6.624  47.740  1.00  0.00     0.225 C 
HETATM    4  O1  UNL     1      22.510   6.406  47.404  1.00  0.00    -0.376 OA
HETATM    5  C6  UNL     1      22.239   5.069  47.133  1.00  0.00     0.271 C 
HETATM    6  C7  UNL     1      22.404   4.344  48.446  1.00  0.00     0.247 C 
HETATM    7  O2  UNL     1      21.627   3.402  48.803  1.00  0.00    -0.271 OA
HETATM    8  N1  UNL     1      23.466   4.709  49.342  1.00  0.00    -0.318 N 
ENDROOT
BRANCH   8   9
HETATM    9  C8  UNL     1      23.695   4.117  50.613  1.00  0.00     0.134 C 
BRANCH   9  10
HETATM   10  C9  UNL     1      24.573   2.879  50.428  1.00  0.00     0.050 C 
BRANCH  10  11
HETATM   11  C10 UNL     1      24.202   1.776  51.361  1.00  0.00     0.274 C 
BRANCH  11  12
HETATM   12  N2  UNL     1      24.957   1.864  52.569  1.00  0.00     0.088 N 
HETATM   13  C11 UNL     1      26.334   2.244  52.346  1.00  0.00     0.272 C 
HETATM   14  C12 UNL     1      27.266   1.061  52.355  1.00  0.00     0.030 C 
HETATM   15  C13 UNL     1      26.598  -0.256  52.095  1.00  0.00     0.003 C 
HETATM   16  C14 UNL     1      25.422  -0.504  53.004  1.00  0.00     0.030 C 
HETATM   17  C15 UNL     1      24.807   0.788  53.490  1.00  0.00     0.272 C 
ENDBRANCH  11  12
ENDBRANCH  10  11
ENDBRANCH   9  10
ENDBRANCH   8   9
BRANCH   1  18
HETATM   18  C2  UNL     1      26.349   7.058  48.784  1.00  0.00     0.039 C 
HETATM   19  C1  UNL     1      26.509   8.192  49.788  1.00  0.00     0.019 C 
BRANCH  18  20
HETATM   20  C16 UNL     1      27.726   6.551  48.453  1.00  0.00    -0.048 A 
HETATM   21  C17 UNL     1      28.946   6.943  48.072  1.00  0.00     0.027 A 
HETATM   22  C18 UNL     1      29.443   5.582  48.075  1.00  0.00     0.012 A 
HETATM   23 BR1  UNL     1      31.239   5.140  47.621  1.00  0.00    -0.051 Br
HETATM   24  C19 UNL     1      28.234   5.200  48.452  1.00  0.00     0.027 A 
ENDBRANCH  18  20
ENDBRANCH   1  18
TORSDOF 6
ENDMDL
MODEL 9
REMARK VINA RESULT:      -6.0      3.475      5.463
REMARK  6 active torsions:
REMARK  status: ('A' for Active; 'I' for Inactive)
REMARK    1  A    between atoms: C2_2  and  C3_3 
REMARK    2  A    between atoms: C2_2  and  C16_20 
REMARK    3  A    between atoms: N1_10  and  C8_11 
REMARK    4  A    between atoms: C8_11  and  C9_12 
REMARK    5  A    between atoms: C9_12  and  C10_13 
REMARK    6  A    between atoms: C10_13  and  N2_14 
ROOT
HETATM    1  C3  UNL     1      24.959   2.068  51.782  1.00  0.00     0.010 C 
HETATM    2  C4  UNL     1      25.728   1.379  52.607  1.00  0.00     0.035 C 
HETATM    3  C5  UNL     1      27.113   1.871  52.801  1.00  0.00     0.225 C 
HETATM    4  O1  UNL     1      27.883   1.004  53.560  1.00  0.00    -0.376 OA
HETATM    5  C6  UNL     1      27.283   0.680  54.772  1.00  0.00     0.271 C 
HETATM    6  C7  UNL     1      26.062  -0.133  54.420  1.00  0.00     0.247 C 
HETATM    7  O2  UNL     1      25.699  -1.143  55.104  1.00  0.00    -0.271 OA
HETATM    8  N1  UNL     1      25.262   0.224  53.281  1.00  0.00    -0.318 N 
ENDROOT
BRANCH   8   9
HETATM    9  C8  UNL     1      24.113  -0.487  52.842  1.00  0.00     0.134 C 
BRANCH   9  10
HETATM   10  C9  UNL     1      22.878   0.107  53.518  1.00  0.00     0.050 C 
BRANCH  10  11
HETATM   11  C10 UNL     1      21.615  -0.264  52.819  1.00  0.00     0.274 C 
BRANCH  11  12
HETATM   12  N2  UNL     1      20.751   0.867  52.706  1.00  0.00     0.088 N 
HETATM   13  C11 UNL     1      19.439   0.524  52.203  1.00  0.00     0.272 C 
HETATM   14  C12 UNL     1      19.295   0.807  50.731  1.00  0.00     0.030 C 
HETATM   15  C13 UNL     1      20.594   0.899  49.988  1.00  0.00     0.003 C 
HETATM   16  C14 UNL     1      21.560   1.868  50.619  1.00  0.00     0.030 C 
HETATM   17  C15 UNL     1      21.305   2.030  52.100  1.00  0.00     0.272 C 
ENDBRANCH  11  12
ENDBRANCH  10  11
ENDBRANCH   9  10
ENDBRANCH   8   9
BRANCH   1  18
HETATM   18  C2  UNL     1      25.469   3.272  51.090  1.00  0.00     0.039 C 
HETATM   19  C1  UNL     1      25.919   2.951  49.671  1.00  0.00     0.019 C 
BRANCH  18  20
HETATM   20  C16 UNL     1      24.403   4.330  50.997  1.00  0.00    -0.048 A 
HETATM   21  C17 UNL     1      23.655   5.160  51.730  1.00  0.00     0.027 A 
HETATM   22  C18 UNL     1      22.995   5.690  50.553  1.00  0.00     0.012 A 
HETATM   23 BR1  UNL     1      21.656   7.042  50.643  1.00  0.00    -0.051 Br
HETATM   24  C19 UNL     1      23.737   4.866  49.833  1.00  0.00     0.027 A 
ENDBRANCH  18  20
ENDBRANCH   1  18
TORSDOF 6
ENDMDL
