MODEL 1
REMARK VINA RESULT:      -7.6      0.000      0.000
REMARK  5 active torsions:
REMARK  status: ('A' for Active; 'I' for Inactive)
REMARK    1  A    between atoms: C1_2  and  O2_3 
REMARK    2  A    between atoms: C1_2  and  C2_4 
REMARK    3  A    between atoms: C2_4  and  C3_5 
REMARK    4  A    between atoms: C3_5  and  C4_6 
REMARK    5  A    between atoms: C7_10  and  C8_11 
ROOT
HETATM    1  C4  UNL     1      24.764   3.129  50.258  1.00  0.00    -0.065 C 
HETATM    2  C5  UNL     1      23.481   2.908  50.093  1.00  0.00    -0.007 C 
HETATM    3  C6  UNL     1      23.062   1.800  50.652  1.00  0.00     0.096 C 
HETATM    4  N1  UNL     1      23.839   1.211  51.687  1.00  0.00    -0.390 N 
HETATM    5  C7  UNL     1      25.032   1.803  52.309  1.00  0.00     0.108 C 
HETATM    6  C16 UNL     1      25.692   2.741  51.319  1.00  0.00     0.064 C 
HETATM    7  H7  UNL     1      23.506   0.278  52.007  1.00  0.00     0.159 HD
ENDROOT
BRANCH   5   8
HETATM    8  C8  UNL     1      25.874   0.716  52.741  1.00  0.00     0.007 C 
HETATM    9  C9  UNL     1      26.957   1.160  53.311  1.00  0.00    -0.036 C 
HETATM   10  C10 UNL     1      27.831   2.323  53.778  1.00  0.00     0.158 C 
HETATM   11  C14 UNL     1      27.744  -0.058  53.608  1.00  0.00    -0.045 C 
HETATM   12  N2  UNL     1      29.321   2.001  53.671  1.00  0.00    -0.389 N 
HETATM   13  C11 UNL     1      29.431   0.580  53.828  1.00  0.00     0.009 C 
HETATM   14  H12 UNL     1      30.364   2.191  53.529  1.00  0.00     0.159 HD
HETATM   15  C12 UNL     1      29.812  -0.665  53.339  1.00  0.00     0.025 C 
HETATM   16  C15 UNL     1      28.512   0.037  54.985  1.00  0.00     0.095 C 
HETATM   17  C13 UNL     1      28.317  -1.230  53.143  1.00  0.00     0.010 C 
ENDBRANCH   5   8
BRANCH   1  18
HETATM   18  C3  UNL     1      25.474   3.895  49.234  1.00  0.00     0.045 C 
BRANCH  18  19
HETATM   19  C2  UNL     1      26.974   3.819  49.300  1.00  0.00     0.114 C 
BRANCH  19  20
HETATM   20  C1  UNL     1      27.580   5.021  48.633  1.00  0.00     0.139 C 
HETATM   21  O1  UNL     1      28.790   5.066  48.298  1.00  0.00    -0.650 OA
BRANCH  20  22
HETATM   22  O2  UNL     1      26.922   6.204  48.305  1.00  0.00    -0.776 OA
HETATM   23  H1  UNL     1      26.276   6.291  47.523  1.00  0.00     0.167 HD
ENDBRANCH  20  22
ENDBRANCH  19  20
ENDBRANCH  18  19
ENDBRANCH   1  18
TORSDOF 5
ENDMDL
MODEL 2
REMARK VINA RESULT:      -7.5      1.421      1.963
REMARK  5 active torsions:
REMARK  status: ('A' for Active; 'I' for Inactive)
REMARK    1  A    between atoms: C1_2  and  O2_3 
REMARK    2  A    between atoms: C1_2  and  C2_4 
REMARK    3  A    between atoms: C2_4  and  C3_5 
REMARK    4  A    between atoms: C3_5  and  C4_6 
REMARK    5  A    between atoms: C7_10  and  C8_11 
ROOT
HETATM    1  C4  UNL     1      24.936   4.491  49.450  1.00  0.00    -0.065 C 
HETATM    2  C5  UNL     1      23.775   4.569  48.845  1.00  0.00    -0.007 C 
HETATM    3  C6  UNL     1      23.056   3.478  48.939  1.00  0.00     0.096 C 
HETATM    4  N1  UNL     1      23.347   2.548  49.975  1.00  0.00    -0.390 N 
HETATM    5  C7  UNL     1      24.310   2.750  51.067  1.00  0.00     0.108 C 
HETATM    6  C16 UNL     1      25.382   3.718  50.609  1.00  0.00     0.064 C 
HETATM    7  H7  UNL     1      22.813   1.655  49.924  1.00  0.00     0.159 HD
ENDROOT
BRANCH   5   8
HETATM    8  C8  UNL     1      24.810   1.452  51.443  1.00  0.00     0.007 C 
HETATM    9  C9  UNL     1      25.413   1.498  52.597  1.00  0.00    -0.036 C 
HETATM   10  C10 UNL     1      25.880   2.285  53.820  1.00  0.00     0.158 C 
HETATM   11  C14 UNL     1      25.942   0.129  52.791  1.00  0.00    -0.045 C 
HETATM   12  N2  UNL     1      27.204   1.754  54.373  1.00  0.00    -0.389 N 
HETATM   13  C11 UNL     1      27.239   0.358  54.043  1.00  0.00     0.009 C 
HETATM   14  H12 UNL     1      28.157   1.791  54.855  1.00  0.00     0.159 HD
HETATM   15  C12 UNL     1      27.844  -0.718  53.407  1.00  0.00     0.025 C 
HETATM   16  C15 UNL     1      25.853  -0.346  54.295  1.00  0.00     0.095 C 
HETATM   17  C13 UNL     1      26.696  -0.921  52.296  1.00  0.00     0.010 C 
ENDBRANCH   5   8
BRANCH   1  18
HETATM   18  C3  UNL     1      26.045   5.291  48.932  1.00  0.00     0.045 C 
BRANCH  18  19
HETATM   19  C2  UNL     1      27.360   4.569  48.820  1.00  0.00     0.114 C 
BRANCH  19  20
HETATM   20  C1  UNL     1      28.457   5.546  48.505  1.00  0.00     0.139 C 
HETATM   21  O1  UNL     1      28.312   6.475  47.672  1.00  0.00    -0.650 OA
BRANCH  20  22
HETATM   22  O2  UNL     1      29.733   5.563  49.062  1.00  0.00    -0.776 OA
HETATM   23  H1  UNL     1      30.143   4.773  49.555  1.00  0.00     0.167 HD
ENDBRANCH  20  22
ENDBRANCH  19  20
ENDBRANCH  18  19
ENDBRANCH   1  18
TORSDOF 5
ENDMDL
MODEL 3
REMARK VINA RESULT:      -7.5      3.678      6.798
REMARK  5 active torsions:
REMARK  status: ('A' for Active; 'I' for Inactive)
REMARK    1  A    between atoms: C1_2  and  O2_3 
REMARK    2  A    between atoms: C1_2  and  C2_4 
REMARK    3  A    between atoms: C2_4  and  C3_5 
REMARK    4  A    between atoms: C3_5  and  C4_6 
REMARK    5  A    between atoms: C7_10  and  C8_11 
ROOT
HETATM    1  C4  UNL     1      27.669   0.711  53.859  1.00  0.00    -0.065 C 
HETATM    2  C5  UNL     1      28.042   1.643  53.014  1.00  0.00    -0.007 C 
HETATM    3  C6  UNL     1      27.126   1.949  52.129  1.00  0.00     0.096 C 
HETATM    4  N1  UNL     1      25.768   1.625  52.401  1.00  0.00    -0.390 N 
HETATM    5  C7  UNL     1      25.249   1.089  53.668  1.00  0.00     0.108 C 
HETATM    6  C16 UNL     1      26.354   0.330  54.374  1.00  0.00     0.064 C 
HETATM    7  H7  UNL     1      25.111   1.795  51.611  1.00  0.00     0.159 HD
ENDROOT
BRANCH   5   8
HETATM    8  C8  UNL     1      24.094   0.287  53.352  1.00  0.00     0.007 C 
HETATM    9  C9  UNL     1      23.152   1.012  52.817  1.00  0.00    -0.036 C 
HETATM   10  C10 UNL     1      22.632   2.363  52.329  1.00  0.00     0.158 C 
HETATM   11  C14 UNL     1      22.020   0.075  52.641  1.00  0.00    -0.045 C 
HETATM   12  N2  UNL     1      21.125   2.508  52.539  1.00  0.00    -0.389 N 
HETATM   13  C11 UNL     1      20.587   1.180  52.477  1.00  0.00     0.009 C 
HETATM   14  H12 UNL     1      20.199   3.008  52.728  1.00  0.00     0.159 HD
HETATM   15  C12 UNL     1      19.891   0.129  53.062  1.00  0.00     0.025 C 
HETATM   16  C15 UNL     1      21.218   0.339  51.306  1.00  0.00     0.095 C 
HETATM   17  C13 UNL     1      21.161  -0.850  53.208  1.00  0.00     0.010 C 
ENDBRANCH   5   8
BRANCH   1  18
HETATM   18  C3  UNL     1      28.697  -0.153  54.438  1.00  0.00     0.045 C 
BRANCH  18  19
HETATM   19  C2  UNL     1      29.443  -1.012  53.455  1.00  0.00     0.114 C 
BRANCH  19  20
HETATM   20  C1  UNL     1      28.675  -2.276  53.189  1.00  0.00     0.139 C 
HETATM   21  O1  UNL     1      27.573  -2.279  52.586  1.00  0.00    -0.650 OA
BRANCH  20  22
HETATM   22  O2  UNL     1      29.053  -3.565  53.556  1.00  0.00    -0.776 OA
HETATM   23  H1  UNL     1      29.896  -4.022  53.217  1.00  0.00     0.167 HD
ENDBRANCH  20  22
ENDBRANCH  19  20
ENDBRANCH  18  19
ENDBRANCH   1  18
TORSDOF 5
ENDMDL
MODEL 4
REMARK VINA RESULT:      -7.4      2.806      5.874
REMARK  5 active torsions:
REMARK  status: ('A' for Active; 'I' for Inactive)
REMARK    1  A    between atoms: C1_2  and  O2_3 
REMARK    2  A    between atoms: C1_2  and  C2_4 
REMARK    3  A    between atoms: C2_4  and  C3_5 
REMARK    4  A    between atoms: C3_5  and  C4_6 
REMARK    5  A    between atoms: C7_10  and  C8_11 
ROOT
HETATM    1  C4  UNL     1      25.756   0.536  53.460  1.00  0.00    -0.065 C 
HETATM    2  C5  UNL     1      24.824  -0.350  53.719  1.00  0.00    -0.007 C 
HETATM    3  C6  UNL     1      23.623   0.027  53.355  1.00  0.00     0.096 C 
HETATM    4  N1  UNL     1      23.488   1.057  52.383  1.00  0.00    -0.390 N 
HETATM    5  C7  UNL     1      24.585   1.669  51.621  1.00  0.00     0.108 C 
HETATM    6  C16 UNL     1      25.866   1.563  52.424  1.00  0.00     0.064 C 
HETATM    7  H7  UNL     1      22.512   1.382  52.223  1.00  0.00     0.159 HD
ENDROOT
BRANCH   5   8
HETATM    8  C8  UNL     1      24.192   3.022  51.316  1.00  0.00     0.007 C 
HETATM    9  C9  UNL     1      24.993   3.558  50.440  1.00  0.00    -0.036 C 
HETATM   10  C10 UNL     1      26.211   3.462  49.521  1.00  0.00     0.158 C 
HETATM   11  C14 UNL     1      24.517   4.953  50.308  1.00  0.00    -0.045 C 
HETATM   12  N2  UNL     1      26.942   4.799  49.397  1.00  0.00    -0.389 N 
HETATM   13  C11 UNL     1      25.946   5.814  49.589  1.00  0.00     0.009 C 
HETATM   14  H12 UNL     1      27.771   5.462  49.267  1.00  0.00     0.159 HD
HETATM   15  C12 UNL     1      25.457   6.910  50.289  1.00  0.00     0.025 C 
HETATM   16  C15 UNL     1      24.610   5.486  48.824  1.00  0.00     0.095 C 
HETATM   17  C13 UNL     1      24.191   6.147  50.928  1.00  0.00     0.010 C 
ENDBRANCH   5   8
BRANCH   1  18
HETATM   18  C3  UNL     1      26.938   0.573  54.320  1.00  0.00     0.045 C 
BRANCH  18  19
HETATM   19  C2  UNL     1      28.256   0.639  53.598  1.00  0.00     0.114 C 
BRANCH  19  20
HETATM   20  C1  UNL     1      28.954   1.931  53.920  1.00  0.00     0.139 C 
HETATM   21  O1  UNL     1      29.389   2.191  55.069  1.00  0.00    -0.650 OA
BRANCH  20  22
HETATM   22  O2  UNL     1      29.207   2.976  53.036  1.00  0.00    -0.776 OA
HETATM   23  H1  UNL     1      29.697   2.860  52.152  1.00  0.00     0.167 HD
ENDBRANCH  20  22
ENDBRANCH  19  20
ENDBRANCH  18  19
ENDBRANCH   1  18
TORSDOF 5
ENDMDL
MODEL 5
REMARK VINA RESULT:      -7.4      4.264      5.311
REMARK  5 active torsions:
REMARK  status: ('A' for Active; 'I' for Inactive)
REMARK    1  A    between atoms: C1_2  and  O2_3 
REMARK    2  A    between atoms: C1_2  and  C2_4 
REMARK    3  A    between atoms: C2_4  and  C3_5 
REMARK    4  A    between atoms: C3_5  and  C4_6 
REMARK    5  A    between atoms: C7_10  and  C8_11 
ROOT
HETATM    1  C4  UNL     1      22.725   1.771  52.514  1.00  0.00    -0.065 C 
HETATM    2  C5  UNL     1      22.379   3.036  52.485  1.00  0.00    -0.007 C 
HETATM    3  C6  UNL     1      23.397   3.860  52.450  1.00  0.00     0.096 C 
HETATM    4  N1  UNL     1      24.662   3.376  52.017  1.00  0.00    -0.390 N 
HETATM    5  C7  UNL     1      24.927   2.043  51.459  1.00  0.00     0.108 C 
HETATM    6  C16 UNL     1      23.898   1.068  51.994  1.00  0.00     0.064 C 
HETATM    7  H7  UNL     1      25.447   4.053  52.120  1.00  0.00     0.159 HD
ENDROOT
BRANCH   5   8
HETATM    8  C8  UNL     1      26.288   1.703  51.792  1.00  0.00     0.007 C 
HETATM    9  C9  UNL     1      26.331   0.834  52.762  1.00  0.00    -0.036 C 
HETATM   10  C10 UNL     1      25.618  -0.056  53.779  1.00  0.00     0.158 C 
HETATM   11  C14 UNL     1      27.774   0.664  53.042  1.00  0.00    -0.045 C 
HETATM   12  N2  UNL     1      26.413  -0.192  55.078  1.00  0.00    -0.389 N 
HETATM   13  C11 UNL     1      27.792  -0.041  54.716  1.00  0.00     0.009 C 
HETATM   14  H12 UNL     1      26.573  -0.317  56.128  1.00  0.00     0.159 HD
HETATM   15  C12 UNL     1      29.006   0.626  54.829  1.00  0.00     0.025 C 
HETATM   16  C15 UNL     1      28.150  -0.828  53.400  1.00  0.00     0.095 C 
HETATM   17  C13 UNL     1      28.989   1.253  53.346  1.00  0.00     0.010 C 
ENDBRANCH   5   8
BRANCH   1  18
HETATM   18  C3  UNL     1      21.829   0.820  53.170  1.00  0.00     0.045 C 
BRANCH  18  19
HETATM   19  C2  UNL     1      22.323  -0.599  53.219  1.00  0.00     0.114 C 
BRANCH  19  20
HETATM   20  C1  UNL     1      21.858  -1.263  54.485  1.00  0.00     0.139 C 
HETATM   21  O1  UNL     1      22.632  -1.490  55.448  1.00  0.00    -0.650 OA
BRANCH  20  22
HETATM   22  O2  UNL     1      20.566  -1.701  54.762  1.00  0.00    -0.776 OA
HETATM   23  H1  UNL     1      20.101  -2.446  54.248  1.00  0.00     0.167 HD
ENDBRANCH  20  22
ENDBRANCH  19  20
ENDBRANCH  18  19
ENDBRANCH   1  18
TORSDOF 5
ENDMDL
MODEL 6
REMARK VINA RESULT:      -7.4      2.944      6.102
REMARK  5 active torsions:
REMARK  status: ('A' for Active; 'I' for Inactive)
REMARK    1  A    between atoms: C1_2  and  O2_3 
REMARK    2  A    between atoms: C1_2  and  C2_4 
REMARK    3  A    between atoms: C2_4  and  C3_5 
REMARK    4  A    between atoms: C3_5  and  C4_6 
REMARK    5  A    between atoms: C7_10  and  C8_11 
ROOT
HETATM    1  C4  UNL     1      25.628   1.382  52.891  1.00  0.00    -0.065 C 
HETATM    2  C5  UNL     1      24.647   0.514  52.811  1.00  0.00    -0.007 C 
HETATM    3  C6  UNL     1      23.588   0.972  52.191  1.00  0.00     0.096 C 
HETATM    4  N1  UNL     1      23.725   2.092  51.326  1.00  0.00    -0.390 N 
HETATM    5  C7  UNL     1      24.992   2.728  50.937  1.00  0.00     0.108 C 
HETATM    6  C16 UNL     1      26.018   2.496  52.027  1.00  0.00     0.064 C 
HETATM    7  H7  UNL     1      22.829   2.470  50.954  1.00  0.00     0.159 HD
ENDROOT
BRANCH   5   8
HETATM    8  C8  UNL     1      24.711   4.118  50.679  1.00  0.00     0.007 C 
HETATM    9  C9  UNL     1      25.603   4.637  49.885  1.00  0.00    -0.036 C 
HETATM   10  C10 UNL     1      26.870   4.501  49.041  1.00  0.00     0.158 C 
HETATM   11  C14 UNL     1      25.232   6.067  49.797  1.00  0.00    -0.045 C 
HETATM   12  N2  UNL     1      27.696   5.787  49.033  1.00  0.00    -0.389 N 
HETATM   13  C11 UNL     1      26.760   6.859  49.215  1.00  0.00     0.009 C 
HETATM   14  H12 UNL     1      28.574   6.396  48.990  1.00  0.00     0.159 HD
HETATM   15  C12 UNL     1      26.300   7.952  49.939  1.00  0.00     0.025 C 
HETATM   16  C15 UNL     1      25.459   6.663  48.351  1.00  0.00     0.095 C 
HETATM   17  C13 UNL     1      24.946   7.250  50.456  1.00  0.00     0.010 C 
ENDBRANCH   5   8
BRANCH   1  18
HETATM   18  C3  UNL     1      26.547   1.289  54.025  1.00  0.00     0.045 C 
BRANCH  18  19
HETATM   19  C2  UNL     1      27.950   0.872  53.682  1.00  0.00     0.114 C 
BRANCH  19  20
HETATM   20  C1  UNL     1      28.898   2.014  53.919  1.00  0.00     0.139 C 
HETATM   21  O1  UNL     1      29.449   2.211  55.030  1.00  0.00    -0.650 OA
BRANCH  20  22
HETATM   22  O2  UNL     1      29.286   2.973  52.987  1.00  0.00    -0.776 OA
HETATM   23  H1  UNL     1      28.652   3.665  52.594  1.00  0.00     0.167 HD
ENDBRANCH  20  22
ENDBRANCH  19  20
ENDBRANCH  18  19
ENDBRANCH   1  18
TORSDOF 5
ENDMDL
MODEL 7
REMARK VINA RESULT:      -7.1      3.696      4.445
REMARK  5 active torsions:
REMARK  status: ('A' for Active; 'I' for Inactive)
REMARK    1  A    between atoms: C1_2  and  O2_3 
REMARK    2  A    between atoms: C1_2  and  C2_4 
REMARK    3  A    between atoms: C2_4  and  C3_5 
REMARK    4  A    between atoms: C3_5  and  C4_6 
REMARK    5  A    between atoms: C7_10  and  C8_11 
ROOT
HETATM    1  C4  UNL     1      22.993   2.552  51.620  1.00  0.00    -0.065 C 
HETATM    2  C5  UNL     1      23.030   3.691  52.269  1.00  0.00    -0.007 C 
HETATM    3  C6  UNL     1      23.982   3.755  53.167  1.00  0.00     0.096 C 
HETATM    4  N1  UNL     1      25.088   2.867  53.065  1.00  0.00    -0.390 N 
HETATM    5  C7  UNL     1      25.351   1.946  51.950  1.00  0.00     0.108 C 
HETATM    6  C16 UNL     1      24.038   1.585  51.286  1.00  0.00     0.064 C 
HETATM    7  H7  UNL     1      25.748   2.896  53.870  1.00  0.00     0.159 HD
ENDROOT
BRANCH   5   8
HETATM    8  C8  UNL     1      26.069   0.818  52.487  1.00  0.00     0.007 C 
HETATM    9  C9  UNL     1      27.139   1.202  53.122  1.00  0.00    -0.036 C 
HETATM   10  C10 UNL     1      28.066   2.314  53.611  1.00  0.00     0.158 C 
HETATM   11  C14 UNL     1      27.802  -0.059  53.525  1.00  0.00    -0.045 C 
HETATM   12  N2  UNL     1      29.530   1.874  53.632  1.00  0.00    -0.389 N 
HETATM   13  C11 UNL     1      29.513   0.457  53.851  1.00  0.00     0.009 C 
HETATM   14  H12 UNL     1      30.592   1.977  53.563  1.00  0.00     0.159 HD
HETATM   15  C12 UNL     1      29.829  -0.833  53.441  1.00  0.00     0.025 C 
HETATM   16  C15 UNL     1      28.471   0.039  54.953  1.00  0.00     0.095 C 
HETATM   17  C13 UNL     1      28.312  -1.290  53.151  1.00  0.00     0.010 C 
ENDBRANCH   5   8
BRANCH   1  18
HETATM   18  C3  UNL     1      21.706   2.088  51.104  1.00  0.00     0.045 C 
BRANCH  18  19
HETATM   19  C2  UNL     1      21.539   0.595  51.042  1.00  0.00     0.114 C 
BRANCH  19  20
HETATM   20  C1  UNL     1      20.906   0.095  52.311  1.00  0.00     0.139 C 
HETATM   21  O1  UNL     1      21.529  -0.613  53.139  1.00  0.00    -0.650 OA
BRANCH  20  22
HETATM   22  O2  UNL     1      19.600   0.333  52.732  1.00  0.00    -0.776 OA
HETATM   23  H1  UNL     1      18.793  -0.176  52.379  1.00  0.00     0.167 HD
ENDBRANCH  20  22
ENDBRANCH  19  20
ENDBRANCH  18  19
ENDBRANCH   1  18
TORSDOF 5
ENDMDL
MODEL 8
REMARK VINA RESULT:      -7.1      2.714      3.396
REMARK  5 active torsions:
REMARK  status: ('A' for Active; 'I' for Inactive)
REMARK    1  A    between atoms: C1_2  and  O2_3 
REMARK    2  A    between atoms: C1_2  and  C2_4 
REMARK    3  A    between atoms: C2_4  and  C3_5 
REMARK    4  A    between atoms: C3_5  and  C4_6 
REMARK    5  A    between atoms: C7_10  and  C8_11 
ROOT
HETATM    1  C4  UNL     1      24.027   3.462  50.298  1.00  0.00    -0.065 C 
HETATM    2  C5  UNL     1      23.478   4.316  51.129  1.00  0.00    -0.007 C 
HETATM    3  C6  UNL     1      23.674   4.023  52.391  1.00  0.00     0.096 C 
HETATM    4  N1  UNL     1      24.749   3.158  52.739  1.00  0.00    -0.390 N 
HETATM    5  C7  UNL     1      25.776   2.649  51.820  1.00  0.00     0.108 C 
HETATM    6  C16 UNL     1      25.206   2.606  50.416  1.00  0.00     0.064 C 
HETATM    7  H7  UNL     1      24.779   2.881  53.743  1.00  0.00     0.159 HD
ENDROOT
BRANCH   5   8
HETATM    8  C8  UNL     1      26.203   1.368  52.322  1.00  0.00     0.007 C 
HETATM    9  C9  UNL     1      27.270   1.485  53.060  1.00  0.00    -0.036 C 
HETATM   10  C10 UNL     1      28.355   2.353  53.697  1.00  0.00     0.158 C 
HETATM   11  C14 UNL     1      27.628   0.094  53.415  1.00  0.00    -0.045 C 
HETATM   12  N2  UNL     1      29.693   1.619  53.791  1.00  0.00    -0.389 N 
HETATM   13  C11 UNL     1      29.374   0.226  53.902  1.00  0.00     0.009 C 
HETATM   14  H12 UNL     1      30.756   1.505  53.809  1.00  0.00     0.159 HD
HETATM   15  C12 UNL     1      29.458  -1.075  53.422  1.00  0.00     0.025 C 
HETATM   16  C15 UNL     1      28.177  -0.032  54.891  1.00  0.00     0.095 C 
HETATM   17  C13 UNL     1      27.911  -1.192  52.989  1.00  0.00     0.010 C 
ENDBRANCH   5   8
BRANCH   1  18
HETATM   18  C3  UNL     1      23.405   3.271  48.988  1.00  0.00     0.045 C 
BRANCH  18  19
HETATM   19  C2  UNL     1      22.359   2.193  48.925  1.00  0.00     0.114 C 
BRANCH  19  20
HETATM   20  C1  UNL     1      21.029   2.788  48.558  1.00  0.00     0.139 C 
HETATM   21  O1  UNL     1      20.755   3.997  48.755  1.00  0.00    -0.650 OA
BRANCH  20  22
HETATM   22  O2  UNL     1      19.957   2.117  47.975  1.00  0.00    -0.776 OA
HETATM   23  H1  UNL     1      19.990   1.701  47.047  1.00  0.00     0.167 HD
ENDBRANCH  20  22
ENDBRANCH  19  20
ENDBRANCH  18  19
ENDBRANCH   1  18
TORSDOF 5
ENDMDL
MODEL 9
REMARK VINA RESULT:      -7.0      2.947      6.471
REMARK  5 active torsions:
REMARK  status: ('A' for Active; 'I' for Inactive)
REMARK    1  A    between atoms: C1_2  and  O2_3 
REMARK    2  A    between atoms: C1_2  and  C2_4 
REMARK    3  A    between atoms: C2_4  and  C3_5 
REMARK    4  A    between atoms: C3_5  and  C4_6 
REMARK    5  A    between atoms: C7_10  and  C8_11 
ROOT
HETATM    1  C4  UNL     1      26.798  -0.098  52.894  1.00  0.00    -0.065 C 
HETATM    2  C5  UNL     1      26.102  -1.012  53.528  1.00  0.00    -0.007 C 
HETATM    3  C6  UNL     1      24.901  -0.616  53.870  1.00  0.00     0.096 C 
HETATM    4  N1  UNL     1      24.321   0.493  53.195  1.00  0.00    -0.390 N 
HETATM    5  C7  UNL     1      24.888   1.180  52.026  1.00  0.00     0.108 C 
HETATM    6  C16 UNL     1      26.394   1.017  52.038  1.00  0.00     0.064 C 
HETATM    7  H7  UNL     1      23.416   0.821  53.591  1.00  0.00     0.159 HD
ENDROOT
BRANCH   5   8
HETATM    8  C8  UNL     1      24.444   2.550  52.078  1.00  0.00     0.007 C 
HETATM    9  C9  UNL     1      23.307   2.699  51.459  1.00  0.00    -0.036 C 
HETATM   10  C10 UNL     1      22.143   2.112  50.662  1.00  0.00     0.158 C 
HETATM   11  C14 UNL     1      23.040   4.153  51.522  1.00  0.00    -0.045 C 
HETATM   12  N2  UNL     1      21.585   3.108  49.645  1.00  0.00    -0.389 N 
HETATM   13  C11 UNL     1      21.830   4.411  50.192  1.00  0.00     0.009 C 
HETATM   14  H12 UNL     1      21.124   3.439  48.738  1.00  0.00     0.159 HD
HETATM   15  C12 UNL     1      22.411   5.670  50.101  1.00  0.00     0.025 C 
HETATM   16  C15 UNL     1      21.508   4.479  51.731  1.00  0.00     0.095 C 
HETATM   17  C13 UNL     1      23.485   5.441  51.279  1.00  0.00     0.010 C 
ENDBRANCH   5   8
BRANCH   1  18
HETATM   18  C3  UNL     1      28.255  -0.125  53.017  1.00  0.00     0.045 C 
BRANCH  18  19
HETATM   19  C2  UNL     1      28.795   0.301  54.354  1.00  0.00     0.114 C 
BRANCH  19  20
HETATM   20  C1  UNL     1      29.241   1.736  54.294  1.00  0.00     0.139 C 
HETATM   21  O1  UNL     1      29.699   2.339  55.296  1.00  0.00    -0.650 OA
BRANCH  20  22
HETATM   22  O2  UNL     1      29.212   2.564  53.176  1.00  0.00    -0.776 OA
HETATM   23  H1  UNL     1      28.847   3.513  53.187  1.00  0.00     0.167 HD
ENDBRANCH  20  22
ENDBRANCH  19  20
ENDBRANCH  18  19
ENDBRANCH   1  18
TORSDOF 5
ENDMDL
