MODEL 1
REMARK VINA RESULT:      -9.4      0.000      0.000
REMARK  6 active torsions:
REMARK  status: ('A' for Active; 'I' for Inactive)
REMARK    1  A    between atoms: O1_1  and  C1_2 
REMARK    2  A    between atoms: C6_7  and  C7_8 
REMARK    3  A    between atoms: C7_8  and  N1_9 
REMARK    4  A    between atoms: N1_9  and  C8_10 
REMARK    5  A    between atoms: C13_17  and  N4_18 
REMARK    6  A    between atoms: N4_18  and  C14_19 
ROOT
HETATM    1  C8  UNL     1      24.010  -0.146  53.357  1.00  0.00     0.029 A 
HETATM    2  C9  UNL     1      22.708  -0.633  53.428  1.00  0.00     0.031 A 
HETATM    3  C10 UNL     1      21.583   0.102  53.126  1.00  0.00     0.035 A 
HETATM    4  C11 UNL     1      21.742   1.412  52.725  1.00  0.00     0.072 A 
HETATM    5  N2  UNL     1      20.691   2.206  52.409  1.00  0.00    -0.241 NA
HETATM    6  C12 UNL     1      20.871   3.495  52.014  1.00  0.00     0.236 A 
HETATM    7  N3  UNL     1      22.131   3.985  51.941  1.00  0.00    -0.224 NA
HETATM    8  C13 UNL     1      23.206   3.246  52.241  1.00  0.00     0.142 A 
HETATM    9  C19 UNL     1      23.010   1.958  52.634  1.00  0.00     0.041 A 
HETATM   10  C20 UNL     1      24.075   1.173  52.948  1.00  0.00     0.046 A 
ENDROOT
BRANCH   1  11
HETATM   11  N1  UNL     1      25.167  -0.904  53.669  1.00  0.00    -0.386 N 
HETATM   12  H8  UNL     1      25.259  -1.222  54.656  1.00  0.00     0.160 HD
BRANCH  11  13
HETATM   13  C7  UNL     1      26.180  -1.244  52.728  1.00  0.00     0.161 C 
BRANCH  13  14
HETATM   14  C6  UNL     1      27.533  -0.750  53.060  1.00  0.00    -0.007 A 
HETATM   15  C1  UNL     1      28.436  -1.811  53.089  1.00  0.00     0.073 A 
HETATM   16  C2  UNL     1      29.781  -1.620  53.382  1.00  0.00     0.037 A 
HETATM   17  C3  UNL     1      30.253  -0.352  53.653  1.00  0.00     0.003 A 
HETATM   18  C4  UNL     1      29.348   0.689  53.620  1.00  0.00     0.001 A 
HETATM   19  C5  UNL     1      28.011   0.517  53.332  1.00  0.00     0.011 A 
BRANCH  15  20
HETATM   20  O1  UNL     1      28.149  -3.164  52.843  1.00  0.00    -0.360 OA
HETATM   21  H1  UNL     1      28.950  -3.721  52.515  1.00  0.00     0.217 HD
ENDBRANCH  15  20
ENDBRANCH  13  14
ENDBRANCH  11  13
ENDBRANCH   1  11
BRANCH   8  22
HETATM   22  N4  UNL     1      24.472   3.875  52.125  1.00  0.00    -0.339 N 
HETATM   23  H12 UNL     1      25.110   4.230  52.856  1.00  0.00     0.167 HD
BRANCH  22  24
HETATM   24  C14 UNL     1      25.072   4.115  50.868  1.00  0.00     0.046 C 
HETATM   25  C15 UNL     1      25.590   3.316  49.947  1.00  0.00     0.004 C 
HETATM   26  C16 UNL     1      26.679   3.824  49.390  1.00  0.00     0.033 C 
HETATM   27  C17 UNL     1      26.266   5.243  49.325  1.00  0.00     0.014 C 
HETATM   28 BR1  UNL     1      26.890   6.699  48.230  1.00  0.00    -0.051 Br
HETATM   29  C18 UNL     1      25.284   5.429  50.224  1.00  0.00     0.049 C 
ENDBRANCH  22  24
ENDBRANCH   8  22
TORSDOF 6
ENDMDL
MODEL 2
REMARK VINA RESULT:      -9.0      3.551      5.692
REMARK  6 active torsions:
REMARK  status: ('A' for Active; 'I' for Inactive)
REMARK    1  A    between atoms: O1_1  and  C1_2 
REMARK    2  A    between atoms: C6_7  and  C7_8 
REMARK    3  A    between atoms: C7_8  and  N1_9 
REMARK    4  A    between atoms: N1_9  and  C8_10 
REMARK    5  A    between atoms: C13_17  and  N4_18 
REMARK    6  A    between atoms: N4_18  and  C14_19 
ROOT
HETATM    1  C8  UNL     1      24.316   0.334  52.989  1.00  0.00     0.029 A 
HETATM    2  C9  UNL     1      24.759   1.437  52.264  1.00  0.00     0.031 A 
HETATM    3  C10 UNL     1      23.951   2.474  51.852  1.00  0.00     0.035 A 
HETATM    4  C11 UNL     1      22.611   2.431  52.173  1.00  0.00     0.072 A 
HETATM    5  N2  UNL     1      21.747   3.408  51.809  1.00  0.00    -0.241 NA
HETATM    6  C12 UNL     1      20.428   3.345  52.137  1.00  0.00     0.236 A 
HETATM    7  N3  UNL     1      19.981   2.279  52.841  1.00  0.00    -0.224 NA
HETATM    8  C13 UNL     1      20.789   1.285  53.228  1.00  0.00     0.142 A 
HETATM    9  C19 UNL     1      22.106   1.362  52.892  1.00  0.00     0.041 A 
HETATM   10  C20 UNL     1      22.962   0.374  53.265  1.00  0.00     0.046 A 
ENDROOT
BRANCH   1  11
HETATM   11  N1  UNL     1      25.149  -0.733  53.411  1.00  0.00    -0.386 N 
HETATM   12  H8  UNL     1      24.942  -1.139  54.347  1.00  0.00     0.160 HD
BRANCH  11  13
HETATM   13  C7  UNL     1      26.224  -1.264  52.642  1.00  0.00     0.161 C 
BRANCH  13  14
HETATM   14  C6  UNL     1      27.568  -0.796  53.041  1.00  0.00    -0.007 A 
HETATM   15  C1  UNL     1      28.460  -1.868  53.067  1.00  0.00     0.073 A 
HETATM   16  C2  UNL     1      29.794  -1.702  53.416  1.00  0.00     0.037 A 
HETATM   17  C3  UNL     1      30.268  -0.450  53.748  1.00  0.00     0.003 A 
HETATM   18  C4  UNL     1      29.375   0.602  53.717  1.00  0.00     0.001 A 
HETATM   19  C5  UNL     1      28.049   0.456  53.374  1.00  0.00     0.011 A 
BRANCH  15  20
HETATM   20  O1  UNL     1      28.168  -3.208  52.764  1.00  0.00    -0.360 OA
HETATM   21  H1  UNL     1      27.727  -3.737  53.530  1.00  0.00     0.217 HD
ENDBRANCH  15  20
ENDBRANCH  13  14
ENDBRANCH  11  13
ENDBRANCH   1  11
BRANCH   8  22
HETATM   22  N4  UNL     1      20.200   0.223  53.960  1.00  0.00    -0.339 N 
HETATM   23  H12 UNL     1      20.341  -0.072  54.940  1.00  0.00     0.167 HD
BRANCH  22  24
HETATM   24  C14 UNL     1      19.250  -0.646  53.375  1.00  0.00     0.046 C 
HETATM   25  C15 UNL     1      18.395  -0.508  52.373  1.00  0.00     0.004 C 
HETATM   26  C16 UNL     1      17.234  -1.097  52.611  1.00  0.00     0.033 C 
HETATM   27  C17 UNL     1      17.726  -2.304  53.310  1.00  0.00     0.014 C 
HETATM   28 BR1  UNL     1      16.912  -4.026  53.600  1.00  0.00    -0.051 Br
HETATM   29  C18 UNL     1      18.957  -2.037  53.779  1.00  0.00     0.049 C 
ENDBRANCH  22  24
ENDBRANCH   8  22
TORSDOF 6
ENDMDL
MODEL 3
REMARK VINA RESULT:      -8.9      2.110      2.658
REMARK  6 active torsions:
REMARK  status: ('A' for Active; 'I' for Inactive)
REMARK    1  A    between atoms: O1_1  and  C1_2 
REMARK    2  A    between atoms: C6_7  and  C7_8 
REMARK    3  A    between atoms: C7_8  and  N1_9 
REMARK    4  A    between atoms: N1_9  and  C8_10 
REMARK    5  A    between atoms: C13_17  and  N4_18 
REMARK    6  A    between atoms: N4_18  and  C14_19 
ROOT
HETATM    1  C8  UNL     1      23.668  -0.633  53.757  1.00  0.00     0.029 A 
HETATM    2  C9  UNL     1      22.816  -0.985  54.800  1.00  0.00     0.031 A 
HETATM    3  C10 UNL     1      21.441  -0.926  54.737  1.00  0.00     0.035 A 
HETATM    4  C11 UNL     1      20.854  -0.490  53.567  1.00  0.00     0.072 A 
HETATM    5  N2  UNL     1      19.511  -0.401  53.420  1.00  0.00    -0.241 NA
HETATM    6  C12 UNL     1      18.954   0.031  52.256  1.00  0.00     0.236 A 
HETATM    7  N3  UNL     1      19.769   0.378  51.232  1.00  0.00    -0.224 NA
HETATM    8  C13 UNL     1      21.102   0.309  51.322  1.00  0.00     0.142 A 
HETATM    9  C19 UNL     1      21.645  -0.125  52.492  1.00  0.00     0.041 A 
HETATM   10  C20 UNL     1      22.995  -0.209  52.626  1.00  0.00     0.046 A 
ENDROOT
BRANCH   1  11
HETATM   11  N1  UNL     1      25.083  -0.695  53.824  1.00  0.00    -0.386 N 
HETATM   12  H8  UNL     1      25.493  -0.908  54.756  1.00  0.00     0.160 HD
BRANCH  11  13
HETATM   13  C7  UNL     1      25.947  -0.485  52.711  1.00  0.00     0.161 C 
BRANCH  13  14
HETATM   14  C6  UNL     1      27.376  -0.320  53.053  1.00  0.00    -0.007 A 
HETATM   15  C1  UNL     1      28.010  -1.561  53.075  1.00  0.00     0.073 A 
HETATM   16  C2  UNL     1      29.360  -1.688  53.374  1.00  0.00     0.037 A 
HETATM   17  C3  UNL     1      30.111  -0.566  53.659  1.00  0.00     0.003 A 
HETATM   18  C4  UNL     1      29.471   0.656  53.633  1.00  0.00     0.001 A 
HETATM   19  C5  UNL     1      28.133   0.801  53.339  1.00  0.00     0.011 A 
BRANCH  15  20
HETATM   20  O1  UNL     1      27.419  -2.809  52.815  1.00  0.00    -0.360 OA
HETATM   21  H1  UNL     1      27.420  -3.087  51.824  1.00  0.00     0.217 HD
ENDBRANCH  15  20
ENDBRANCH  13  14
ENDBRANCH  11  13
ENDBRANCH   1  11
BRANCH   8  22
HETATM   22  N4  UNL     1      21.845   0.702  50.180  1.00  0.00    -0.339 N 
HETATM   23  H12 UNL     1      22.165   0.147  49.368  1.00  0.00     0.167 HD
BRANCH  22  24
HETATM   24  C14 UNL     1      22.280   2.034  49.997  1.00  0.00     0.046 C 
HETATM   25  C15 UNL     1      22.774   2.689  48.957  1.00  0.00     0.004 C 
HETATM   26  C16 UNL     1      23.741   3.527  49.297  1.00  0.00     0.033 C 
HETATM   27  C17 UNL     1      23.184   4.015  50.578  1.00  0.00     0.014 C 
HETATM   28 BR1  UNL     1      23.540   5.615  51.591  1.00  0.00    -0.051 Br
HETATM   29  C18 UNL     1      22.291   3.109  51.011  1.00  0.00     0.049 C 
ENDBRANCH  22  24
ENDBRANCH   8  22
TORSDOF 6
ENDMDL
MODEL 4
REMARK VINA RESULT:      -8.9      2.190      2.934
REMARK  6 active torsions:
REMARK  status: ('A' for Active; 'I' for Inactive)
REMARK    1  A    between atoms: O1_1  and  C1_2 
REMARK    2  A    between atoms: C6_7  and  C7_8 
REMARK    3  A    between atoms: C7_8  and  N1_9 
REMARK    4  A    between atoms: N1_9  and  C8_10 
REMARK    5  A    between atoms: C13_17  and  N4_18 
REMARK    6  A    between atoms: N4_18  and  C14_19 
ROOT
HETATM    1  C8  UNL     1      25.211   2.136  52.689  1.00  0.00     0.029 A 
HETATM    2  C9  UNL     1      24.140   1.289  52.412  1.00  0.00     0.031 A 
HETATM    3  C10 UNL     1      23.276   1.448  51.351  1.00  0.00     0.035 A 
HETATM    4  C11 UNL     1      23.471   2.513  50.497  1.00  0.00     0.072 A 
HETATM    5  N2  UNL     1      22.670   2.743  49.430  1.00  0.00    -0.241 NA
HETATM    6  C12 UNL     1      22.881   3.799  48.600  1.00  0.00     0.236 A 
HETATM    7  N3  UNL     1      23.918   4.633  48.856  1.00  0.00    -0.224 NA
HETATM    8  C13 UNL     1      24.742   4.454  49.895  1.00  0.00     0.142 A 
HETATM    9  C19 UNL     1      24.517   3.392  50.716  1.00  0.00     0.041 A 
HETATM   10  C20 UNL     1      25.331   3.174  51.784  1.00  0.00     0.046 A 
ENDROOT
BRANCH   1  11
HETATM   11  N1  UNL     1      26.099   1.971  53.782  1.00  0.00    -0.386 N 
HETATM   12  H8  UNL     1      26.688   2.793  54.027  1.00  0.00     0.160 HD
BRANCH  11  13
HETATM   13  C7  UNL     1      26.222   0.772  54.540  1.00  0.00     0.161 C 
BRANCH  13  14
HETATM   14  C6  UNL     1      27.145  -0.234  53.973  1.00  0.00    -0.007 A 
HETATM   15  C1  UNL     1      28.454   0.042  54.364  1.00  0.00     0.073 A 
HETATM   16  C2  UNL     1      29.521  -0.751  53.963  1.00  0.00     0.037 A 
HETATM   17  C3  UNL     1      29.298  -1.847  53.155  1.00  0.00     0.003 A 
HETATM   18  C4  UNL     1      27.998  -2.110  52.776  1.00  0.00     0.001 A 
HETATM   19  C5  UNL     1      26.928  -1.333  53.165  1.00  0.00     0.011 A 
BRANCH  15  20
HETATM   20  O1  UNL     1      28.879   1.106  55.178  1.00  0.00    -0.360 OA
HETATM   21  H1  UNL     1      28.463   2.019  54.946  1.00  0.00     0.217 HD
ENDBRANCH  15  20
ENDBRANCH  13  14
ENDBRANCH  11  13
ENDBRANCH   1  11
BRANCH   8  22
HETATM   22  N4  UNL     1      25.789   5.396  50.055  1.00  0.00    -0.339 N 
HETATM   23  H12 UNL     1      25.997   6.036  50.840  1.00  0.00     0.167 HD
BRANCH  22  24
HETATM   24  C14 UNL     1      26.773   5.592  49.060  1.00  0.00     0.046 C 
HETATM   25  C15 UNL     1      27.735   4.820  48.575  1.00  0.00     0.004 C 
HETATM   26  C16 UNL     1      28.848   5.492  48.327  1.00  0.00     0.033 C 
HETATM   27  C17 UNL     1      28.253   6.744  47.809  1.00  0.00     0.014 C 
HETATM   28 BR1  UNL     1      28.987   8.136  46.699  1.00  0.00    -0.051 Br
HETATM   29  C18 UNL     1      26.986   6.812  48.252  1.00  0.00     0.049 C 
ENDBRANCH  22  24
ENDBRANCH   8  22
TORSDOF 6
ENDMDL
MODEL 5
REMARK VINA RESULT:      -8.8      3.035      5.060
REMARK  6 active torsions:
REMARK  status: ('A' for Active; 'I' for Inactive)
REMARK    1  A    between atoms: O1_1  and  C1_2 
REMARK    2  A    between atoms: C6_7  and  C7_8 
REMARK    3  A    between atoms: C7_8  and  N1_9 
REMARK    4  A    between atoms: N1_9  and  C8_10 
REMARK    5  A    between atoms: C13_17  and  N4_18 
REMARK    6  A    between atoms: N4_18  and  C14_19 
ROOT
HETATM    1  C8  UNL     1      24.171   3.551  51.943  1.00  0.00     0.029 A 
HETATM    2  C9  UNL     1      23.603   4.822  51.933  1.00  0.00     0.031 A 
HETATM    3  C10 UNL     1      22.254   5.073  51.813  1.00  0.00     0.035 A 
HETATM    4  C11 UNL     1      21.394   4.001  51.696  1.00  0.00     0.072 A 
HETATM    5  N2  UNL     1      20.054   4.158  51.575  1.00  0.00    -0.241 NA
HETATM    6  C12 UNL     1      19.224   3.086  51.461  1.00  0.00     0.236 A 
HETATM    7  N3  UNL     1      19.759   1.842  51.468  1.00  0.00    -0.224 NA
HETATM    8  C13 UNL     1      21.075   1.629  51.586  1.00  0.00     0.142 A 
HETATM    9  C19 UNL     1      21.893   2.711  51.699  1.00  0.00     0.041 A 
HETATM   10  C20 UNL     1      23.236   2.539  51.820  1.00  0.00     0.046 A 
ENDROOT
BRANCH   1  11
HETATM   11  N1  UNL     1      25.559   3.295  52.065  1.00  0.00    -0.386 N 
HETATM   12  H8  UNL     1      26.068   3.840  52.790  1.00  0.00     0.160 HD
BRANCH  11  13
HETATM   13  C7  UNL     1      26.274   2.355  51.267  1.00  0.00     0.161 C 
BRANCH  13  14
HETATM   14  C6  UNL     1      26.844   1.211  52.010  1.00  0.00    -0.007 A 
HETATM   15  C1  UNL     1      27.899   1.640  52.814  1.00  0.00     0.073 A 
HETATM   16  C2  UNL     1      28.614   0.759  53.615  1.00  0.00     0.037 A 
HETATM   17  C3  UNL     1      28.285  -0.581  53.629  1.00  0.00     0.003 A 
HETATM   18  C4  UNL     1      27.238  -0.992  52.830  1.00  0.00     0.001 A 
HETATM   19  C5  UNL     1      26.519  -0.132  52.028  1.00  0.00     0.011 A 
BRANCH  15  20
HETATM   20  O1  UNL     1      28.382   2.954  52.934  1.00  0.00    -0.360 OA
HETATM   21  H1  UNL     1      28.538   3.438  52.039  1.00  0.00     0.217 HD
ENDBRANCH  15  20
ENDBRANCH  13  14
ENDBRANCH  11  13
ENDBRANCH   1  11
BRANCH   8  22
HETATM   22  N4  UNL     1      21.512   0.280  51.579  1.00  0.00    -0.339 N 
HETATM   23  H12 UNL     1      21.641  -0.376  50.791  1.00  0.00     0.167 HD
BRANCH  22  24
HETATM   24  C14 UNL     1      21.857  -0.396  52.771  1.00  0.00     0.046 C 
HETATM   25  C15 UNL     1      21.139  -0.962  53.730  1.00  0.00     0.004 C 
HETATM   26  C16 UNL     1      21.651  -0.759  54.935  1.00  0.00     0.033 C 
HETATM   27  C17 UNL     1      23.087  -0.875  54.598  1.00  0.00     0.014 C 
HETATM   28 BR1  UNL     1      24.622  -1.261  55.696  1.00  0.00    -0.051 Br
HETATM   29  C18 UNL     1      23.221  -0.656  53.279  1.00  0.00     0.049 C 
ENDBRANCH  22  24
ENDBRANCH   8  22
TORSDOF 6
ENDMDL
MODEL 6
REMARK VINA RESULT:      -8.5      2.850      5.896
REMARK  6 active torsions:
REMARK  status: ('A' for Active; 'I' for Inactive)
REMARK    1  A    between atoms: O1_1  and  C1_2 
REMARK    2  A    between atoms: C6_7  and  C7_8 
REMARK    3  A    between atoms: C7_8  and  N1_9 
REMARK    4  A    between atoms: N1_9  and  C8_10 
REMARK    5  A    between atoms: C13_17  and  N4_18 
REMARK    6  A    between atoms: N4_18  and  C14_19 
ROOT
HETATM    1  C8  UNL     1      26.110   2.117  51.959  1.00  0.00     0.029 A 
HETATM    2  C9  UNL     1      26.794   1.108  52.631  1.00  0.00     0.031 A 
HETATM    3  C10 UNL     1      26.190   0.132  53.394  1.00  0.00     0.035 A 
HETATM    4  C11 UNL     1      24.816   0.143  53.507  1.00  0.00     0.072 A 
HETATM    5  N2  UNL     1      24.142  -0.779  54.236  1.00  0.00    -0.241 NA
HETATM    6  C12 UNL     1      22.785  -0.750  54.333  1.00  0.00     0.236 A 
HETATM    7  N3  UNL     1      22.105   0.226  53.686  1.00  0.00    -0.224 NA
HETATM    8  C13 UNL     1      22.719   1.162  52.952  1.00  0.00     0.142 A 
HETATM    9  C19 UNL     1      24.076   1.120  52.864  1.00  0.00     0.041 A 
HETATM   10  C20 UNL     1      24.740   2.051  52.128  1.00  0.00     0.046 A 
ENDROOT
BRANCH   1  11
HETATM   11  N1  UNL     1      26.733   3.121  51.175  1.00  0.00    -0.386 N 
HETATM   12  H8  UNL     1      27.289   3.833  51.693  1.00  0.00     0.160 HD
BRANCH  11  13
HETATM   13  C7  UNL     1      26.641   3.203  49.756  1.00  0.00     0.161 C 
BRANCH  13  14
HETATM   14  C6  UNL     1      26.081   4.469  49.238  1.00  0.00    -0.007 A 
HETATM   15  C1  UNL     1      27.110   5.355  48.924  1.00  0.00     0.073 A 
HETATM   16  C2  UNL     1      26.855   6.624  48.419  1.00  0.00     0.037 A 
HETATM   17  C3  UNL     1      25.555   7.036  48.217  1.00  0.00     0.003 A 
HETATM   18  C4  UNL     1      24.545   6.149  48.532  1.00  0.00     0.001 A 
HETATM   19  C5  UNL     1      24.780   4.887  49.034  1.00  0.00     0.011 A 
BRANCH  15  20
HETATM   20  O1  UNL     1      28.489   5.121  49.059  1.00  0.00    -0.360 OA
HETATM   21  H1  UNL     1      28.851   5.226  50.018  1.00  0.00     0.217 HD
ENDBRANCH  15  20
ENDBRANCH  13  14
ENDBRANCH  11  13
ENDBRANCH   1  11
BRANCH   8  22
HETATM   22  N4  UNL     1      21.895   2.130  52.324  1.00  0.00    -0.339 N 
HETATM   23  H12 UNL     1      21.472   2.994  52.703  1.00  0.00     0.167 HD
BRANCH  22  24
HETATM   24  C14 UNL     1      21.517   2.018  50.967  1.00  0.00     0.046 C 
HETATM   25  C15 UNL     1      20.940   1.053  50.266  1.00  0.00     0.004 C 
HETATM   26  C16 UNL     1      21.446   0.939  49.047  1.00  0.00     0.033 C 
HETATM   27  C17 UNL     1      21.648   2.372  48.745  1.00  0.00     0.014 C 
HETATM   28 BR1  UNL     1      21.835   3.304  47.069  1.00  0.00    -0.051 Br
HETATM   29  C18 UNL     1      21.693   3.038  49.912  1.00  0.00     0.049 C 
ENDBRANCH  22  24
ENDBRANCH   8  22
TORSDOF 6
ENDMDL
MODEL 7
REMARK VINA RESULT:      -8.5      1.984      2.543
REMARK  6 active torsions:
REMARK  status: ('A' for Active; 'I' for Inactive)
REMARK    1  A    between atoms: O1_1  and  C1_2 
REMARK    2  A    between atoms: C6_7  and  C7_8 
REMARK    3  A    between atoms: C7_8  and  N1_9 
REMARK    4  A    between atoms: N1_9  and  C8_10 
REMARK    5  A    between atoms: C13_17  and  N4_18 
REMARK    6  A    between atoms: N4_18  and  C14_19 
ROOT
HETATM    1  C8  UNL     1      24.436   2.365  52.991  1.00  0.00     0.029 A 
HETATM    2  C9  UNL     1      23.762   1.148  52.930  1.00  0.00     0.031 A 
HETATM    3  C10 UNL     1      22.451   1.002  52.534  1.00  0.00     0.035 A 
HETATM    4  C11 UNL     1      21.745   2.129  52.170  1.00  0.00     0.072 A 
HETATM    5  N2  UNL     1      20.453   2.076  51.768  1.00  0.00    -0.241 NA
HETATM    6  C12 UNL     1      19.775   3.201  51.413  1.00  0.00     0.236 A 
HETATM    7  N3  UNL     1      20.415   4.393  51.467  1.00  0.00    -0.224 NA
HETATM    8  C13 UNL     1      21.691   4.505  51.856  1.00  0.00     0.142 A 
HETATM    9  C19 UNL     1      22.356   3.371  52.209  1.00  0.00     0.041 A 
HETATM   10  C20 UNL     1      23.653   3.439  52.610  1.00  0.00     0.046 A 
ENDROOT
BRANCH   1  11
HETATM   11  N1  UNL     1      25.785   2.513  53.400  1.00  0.00    -0.386 N 
HETATM   12  H8  UNL     1      25.940   2.849  54.372  1.00  0.00     0.160 HD
BRANCH  11  13
HETATM   13  C7  UNL     1      26.909   2.234  52.570  1.00  0.00     0.161 C 
BRANCH  13  14
HETATM   14  C6  UNL     1      27.587   0.950  52.847  1.00  0.00    -0.007 A 
HETATM   15  C1  UNL     1      28.870   1.182  53.340  1.00  0.00     0.073 A 
HETATM   16  C2  UNL     1      29.723   0.139  53.678  1.00  0.00     0.037 A 
HETATM   17  C3  UNL     1      29.307  -1.167  53.529  1.00  0.00     0.003 A 
HETATM   18  C4  UNL     1      28.035  -1.383  53.042  1.00  0.00     0.001 A 
HETATM   19  C5  UNL     1      27.175  -0.361  52.701  1.00  0.00     0.011 A 
BRANCH  15  20
HETATM   20  O1  UNL     1      29.470   2.433  53.560  1.00  0.00    -0.360 OA
HETATM   21  H1  UNL     1      28.991   3.225  53.109  1.00  0.00     0.217 HD
ENDBRANCH  15  20
ENDBRANCH  13  14
ENDBRANCH  11  13
ENDBRANCH   1  11
BRANCH   8  22
HETATM   22  N4  UNL     1      22.248   5.809  51.871  1.00  0.00    -0.339 N 
HETATM   23  H12 UNL     1      22.120   6.582  52.546  1.00  0.00     0.167 HD
BRANCH  22  24
HETATM   24  C14 UNL     1      23.135   6.251  50.864  1.00  0.00     0.046 C 
HETATM   25  C15 UNL     1      23.337   5.876  49.609  1.00  0.00     0.004 C 
HETATM   26  C16 UNL     1      24.619   5.884  49.278  1.00  0.00     0.033 C 
HETATM   27  C17 UNL     1      25.040   7.099  50.009  1.00  0.00     0.014 C 
HETATM   28 BR1  UNL     1      26.553   8.267  49.770  1.00  0.00    -0.051 Br
HETATM   29  C18 UNL     1      24.138   7.330  50.979  1.00  0.00     0.049 C 
ENDBRANCH  22  24
ENDBRANCH   8  22
TORSDOF 6
ENDMDL
MODEL 8
REMARK VINA RESULT:      -8.4      2.722      3.632
REMARK  6 active torsions:
REMARK  status: ('A' for Active; 'I' for Inactive)
REMARK    1  A    between atoms: O1_1  and  C1_2 
REMARK    2  A    between atoms: C6_7  and  C7_8 
REMARK    3  A    between atoms: C7_8  and  N1_9 
REMARK    4  A    between atoms: N1_9  and  C8_10 
REMARK    5  A    between atoms: C13_17  and  N4_18 
REMARK    6  A    between atoms: N4_18  and  C14_19 
ROOT
HETATM    1  C8  UNL     1      23.959   1.101  53.006  1.00  0.00     0.029 A 
HETATM    2  C9  UNL     1      23.786   0.006  53.849  1.00  0.00     0.031 A 
HETATM    3  C10 UNL     1      22.590  -0.651  54.038  1.00  0.00     0.035 A 
HETATM    4  C11 UNL     1      21.479  -0.205  53.351  1.00  0.00     0.072 A 
HETATM    5  N2  UNL     1      20.266  -0.793  53.478  1.00  0.00    -0.241 NA
HETATM    6  C12 UNL     1      19.184  -0.337  52.791  1.00  0.00     0.236 A 
HETATM    7  N3  UNL     1      19.335   0.728  51.967  1.00  0.00    -0.224 NA
HETATM    8  C13 UNL     1      20.510   1.346  51.803  1.00  0.00     0.142 A 
HETATM    9  C19 UNL     1      21.583   0.879  52.498  1.00  0.00     0.041 A 
HETATM   10  C20 UNL     1      22.796   1.478  52.361  1.00  0.00     0.046 A 
ENDROOT
BRANCH   1  11
HETATM   11  N1  UNL     1      25.191   1.776  52.814  1.00  0.00    -0.386 N 
HETATM   12  H8  UNL     1      25.331   2.647  53.365  1.00  0.00     0.160 HD
BRANCH  11  13
HETATM   13  C7  UNL     1      26.216   1.335  51.930  1.00  0.00     0.161 C 
BRANCH  13  14
HETATM   14  C6  UNL     1      27.283   0.530  52.561  1.00  0.00    -0.007 A 
HETATM   15  C1  UNL     1      28.283   1.365  53.057  1.00  0.00     0.073 A 
HETATM   16  C2  UNL     1      29.407   0.859  53.698  1.00  0.00     0.037 A 
HETATM   17  C3  UNL     1      29.555  -0.503  53.857  1.00  0.00     0.003 A 
HETATM   18  C4  UNL     1      28.557  -1.318  53.363  1.00  0.00     0.001 A 
HETATM   19  C5  UNL     1      27.436  -0.834  52.724  1.00  0.00     0.011 A 
BRANCH  15  20
HETATM   20  O1  UNL     1      28.314   2.768  52.991  1.00  0.00    -0.360 OA
HETATM   21  H1  UNL     1      28.010   3.163  52.091  1.00  0.00     0.217 HD
ENDBRANCH  15  20
ENDBRANCH  13  14
ENDBRANCH  11  13
ENDBRANCH   1  11
BRANCH   8  22
HETATM   22  N4  UNL     1      20.538   2.450  50.914  1.00  0.00    -0.339 N 
HETATM   23  H12 UNL     1      20.357   3.453  51.088  1.00  0.00     0.167 HD
BRANCH  22  24
HETATM   24  C14 UNL     1      20.850   2.294  49.544  1.00  0.00     0.046 C 
HETATM   25  C15 UNL     1      21.391   1.306  48.847  1.00  0.00     0.004 C 
HETATM   26  C16 UNL     1      22.219   1.740  47.909  1.00  0.00     0.033 C 
HETATM   27  C17 UNL     1      21.470   2.939  47.475  1.00  0.00     0.014 C 
HETATM   28 BR1  UNL     1      21.536   3.957  45.841  1.00  0.00    -0.051 Br
HETATM   29  C18 UNL     1      20.631   3.283  48.468  1.00  0.00     0.049 C 
ENDBRANCH  22  24
ENDBRANCH   8  22
TORSDOF 6
ENDMDL
MODEL 9
REMARK VINA RESULT:      -8.3      3.407      5.496
REMARK  6 active torsions:
REMARK  status: ('A' for Active; 'I' for Inactive)
REMARK    1  A    between atoms: O1_1  and  C1_2 
REMARK    2  A    between atoms: C6_7  and  C7_8 
REMARK    3  A    between atoms: C7_8  and  N1_9 
REMARK    4  A    between atoms: N1_9  and  C8_10 
REMARK    5  A    between atoms: C13_17  and  N4_18 
REMARK    6  A    between atoms: N4_18  and  C14_19 
ROOT
HETATM    1  C8  UNL     1      25.199   3.871  50.399  1.00  0.00     0.029 A 
HETATM    2  C9  UNL     1      25.213   5.080  49.710  1.00  0.00     0.031 A 
HETATM    3  C10 UNL     1      24.273   5.456  48.775  1.00  0.00     0.035 A 
HETATM    4  C11 UNL     1      23.242   4.584  48.493  1.00  0.00     0.072 A 
HETATM    5  N2  UNL     1      22.276   4.873  47.590  1.00  0.00    -0.241 NA
HETATM    6  C12 UNL     1      21.267   3.999  47.327  1.00  0.00     0.236 A 
HETATM    7  N3  UNL     1      21.240   2.817  47.988  1.00  0.00    -0.224 NA
HETATM    8  C13 UNL     1      22.167   2.479  48.892  1.00  0.00     0.142 A 
HETATM    9  C19 UNL     1      23.170   3.364  49.143  1.00  0.00     0.041 A 
HETATM   10  C20 UNL     1      24.133   3.061  50.054  1.00  0.00     0.046 A 
ENDROOT
BRANCH   1  11
HETATM   11  N1  UNL     1      26.168   3.486  51.360  1.00  0.00    -0.386 N 
HETATM   12  H8  UNL     1      26.385   4.182  52.102  1.00  0.00     0.160 HD
BRANCH  11  13
HETATM   13  C7  UNL     1      26.841   2.230  51.361  1.00  0.00     0.161 C 
BRANCH  13  14
HETATM   14  C6  UNL     1      26.347   1.257  52.358  1.00  0.00    -0.007 A 
HETATM   15  C1  UNL     1      26.828   1.583  53.625  1.00  0.00     0.073 A 
HETATM   16  C2  UNL     1      26.515   0.824  54.745  1.00  0.00     0.037 A 
HETATM   17  C3  UNL     1      25.707  -0.287  54.619  1.00  0.00     0.003 A 
HETATM   18  C4  UNL     1      25.236  -0.598  53.360  1.00  0.00     0.001 A 
HETATM   19  C5  UNL     1      25.537   0.144  52.238  1.00  0.00     0.011 A 
BRANCH  15  20
HETATM   20  O1  UNL     1      27.659   2.668  53.953  1.00  0.00    -0.360 OA
HETATM   21  H1  UNL     1      28.595   2.405  54.293  1.00  0.00     0.217 HD
ENDBRANCH  15  20
ENDBRANCH  13  14
ENDBRANCH  11  13
ENDBRANCH   1  11
BRANCH   8  22
HETATM   22  N4  UNL     1      22.028   1.213  49.515  1.00  0.00    -0.339 N 
HETATM   23  H12 UNL     1      22.312   0.274  49.190  1.00  0.00     0.167 HD
BRANCH  22  24
HETATM   24  C14 UNL     1      21.423   1.071  50.785  1.00  0.00     0.046 C 
HETATM   25  C15 UNL     1      20.448   1.724  51.400  1.00  0.00     0.004 C 
HETATM   26  C16 UNL     1      20.684   1.888  52.692  1.00  0.00     0.033 C 
HETATM   27  C17 UNL     1      21.312   0.581  52.982  1.00  0.00     0.014 C 
HETATM   28 BR1  UNL     1      21.535  -0.384  54.634  1.00  0.00    -0.051 Br
HETATM   29  C18 UNL     1      21.766   0.075  51.822  1.00  0.00     0.049 C 
ENDBRANCH  22  24
ENDBRANCH   8  22
TORSDOF 6
ENDMDL
