MODEL 1
REMARK VINA RESULT:      -6.5      0.000      0.000
REMARK  3 active torsions:
REMARK  status: ('A' for Active; 'I' for Inactive)
REMARK    1  A    between atoms: C2_2  and  C3_3 
REMARK    2  A    between atoms: C5_7  and  O1_8 
REMARK    3  A    between atoms: C9_12  and  O2_13 
ROOT
HETATM    1  C3  UNL     1      32.614   3.668  46.871  1.00  0.00     0.036 C 
HETATM    2  N1  UNL     1      32.475   3.854  48.162  1.00  0.00    -0.183 NA
HETATM    3  N2  UNL     1      32.580   5.120  48.745  1.00  0.00    -0.280 N 
HETATM    4  C4  UNL     1      33.270   6.367  48.374  1.00  0.00     0.060 C 
HETATM    5  C5  UNL     1      32.072   6.531  47.792  1.00  0.00     0.070 C 
HETATM    6  C7  UNL     1      31.590   7.684  46.955  1.00  0.00     0.069 C 
HETATM    7  C8  UNL     1      31.449   7.189  45.509  1.00  0.00     0.043 C 
HETATM    8  C9  UNL     1      32.798   6.800  44.953  1.00  0.00     0.150 C 
HETATM    9  C11 UNL     1      33.456   5.684  45.685  1.00  0.00    -0.043 C 
HETATM   10  C12 UNL     1      34.135   5.063  46.620  1.00  0.00     0.047 C 
HETATM   11  C13 UNL     1      34.889   4.447  47.687  1.00  0.00     0.113 C 
HETATM   12  F1  UNL     1      35.271   3.158  47.392  1.00  0.00    -0.206 F 
HETATM   13  C14 UNL     1      35.247   5.032  48.814  1.00  0.00     0.021 C 
HETATM   14  C15 UNL     1      34.711   6.439  48.868  1.00  0.00     0.091 C 
HETATM   15  C16 UNL     1      32.780   4.378  45.507  1.00  0.00     0.093 C 
HETATM   16  H6  UNL     1      31.980   4.461  49.327  1.00  0.00     0.189 HD
ENDROOT
BRANCH   1  17
HETATM   17  C2  UNL     1      32.430   2.184  46.625  1.00  0.00     0.052 C 
HETATM   18  C1  UNL     1      32.762   1.362  47.832  1.00  0.00     0.011 C 
ENDBRANCH   1  17
BRANCH   8  19
HETATM   19  O2  UNL     1      33.654   7.905  44.914  1.00  0.00    -0.386 OA
HETATM   20  C10 UNL     1      34.442   7.890  43.757  1.00  0.00     0.202 C 
ENDBRANCH   8  19
BRANCH   5  21
HETATM   21  O1  UNL     1      31.114   5.551  47.930  1.00  0.00    -0.358 OA
HETATM   22  C6  UNL     1      29.773   5.897  48.133  1.00  0.00     0.209 C 
ENDBRANCH   5  21
TORSDOF 3
ENDMDL
MODEL 2
REMARK VINA RESULT:      -6.2      9.567     12.133
REMARK  3 active torsions:
REMARK  status: ('A' for Active; 'I' for Inactive)
REMARK    1  A    between atoms: C2_2  and  C3_3 
REMARK    2  A    between atoms: C5_7  and  O1_8 
REMARK    3  A    between atoms: C9_12  and  O2_13 
ROOT
HETATM    1  C3  UNL     1      23.330   2.511  49.976  1.00  0.00     0.036 C 
HETATM    2  N1  UNL     1      24.281   3.371  50.248  1.00  0.00    -0.183 NA
HETATM    3  N2  UNL     1      24.756   3.566  51.549  1.00  0.00    -0.280 N 
HETATM    4  C4  UNL     1      24.177   3.384  52.890  1.00  0.00     0.060 C 
HETATM    5  C5  UNL     1      24.741   2.187  52.667  1.00  0.00     0.070 C 
HETATM    6  C7  UNL     1      24.744   0.974  53.558  1.00  0.00     0.069 C 
HETATM    7  C8  UNL     1      23.862  -0.095  52.897  1.00  0.00     0.043 C 
HETATM    8  C9  UNL     1      22.428   0.375  52.831  1.00  0.00     0.150 C 
HETATM    9  C11 UNL     1      22.231   1.603  52.013  1.00  0.00    -0.043 C 
HETATM   10  C12 UNL     1      22.218   2.876  51.695  1.00  0.00     0.047 C 
HETATM   11  C13 UNL     1      22.233   4.292  51.416  1.00  0.00     0.113 C 
HETATM   12  F1  UNL     1      21.569   4.612  50.253  1.00  0.00    -0.206 F 
HETATM   13  C14 UNL     1      22.761   5.224  52.187  1.00  0.00     0.021 C 
HETATM   14  C15 UNL     1      23.407   4.599  53.397  1.00  0.00     0.091 C 
HETATM   15  C16 UNL     1      22.442   1.388  50.562  1.00  0.00     0.093 C 
HETATM   16  H6  UNL     1      25.485   3.820  50.815  1.00  0.00     0.189 HD
ENDROOT
BRANCH   1  17
HETATM   17  C2  UNL     1      23.098   2.580  48.480  1.00  0.00     0.052 C 
HETATM   18  C1  UNL     1      21.940   1.736  48.045  1.00  0.00     0.011 C 
ENDBRANCH   1  17
BRANCH   8  19
HETATM   19  O2  UNL     1      21.914   0.580  54.115  1.00  0.00    -0.386 OA
HETATM   20  C10 UNL     1      21.546  -0.633  54.709  1.00  0.00     0.202 C 
ENDBRANCH   8  19
BRANCH   5  21
HETATM   21  O1  UNL     1      25.414   1.966  51.485  1.00  0.00    -0.358 OA
HETATM   22  C6  UNL     1      26.649   1.308  51.487  1.00  0.00     0.209 C 
ENDBRANCH   5  21
TORSDOF 3
ENDMDL
MODEL 3
REMARK VINA RESULT:      -6.2      8.265     10.595
REMARK  3 active torsions:
REMARK  status: ('A' for Active; 'I' for Inactive)
REMARK    1  A    between atoms: C2_2  and  C3_3 
REMARK    2  A    between atoms: C5_7  and  O1_8 
REMARK    3  A    between atoms: C9_12  and  O2_13 
ROOT
HETATM    1  C3  UNL     1      22.010   2.846  50.234  1.00  0.00     0.036 C 
HETATM    2  N1  UNL     1      21.601   3.225  51.421  1.00  0.00    -0.183 NA
HETATM    3  N2  UNL     1      22.400   3.998  52.269  1.00  0.00    -0.280 N 
HETATM    4  C4  UNL     1      23.852   4.188  52.420  1.00  0.00     0.060 C 
HETATM    5  C5  UNL     1      23.538   5.149  51.537  1.00  0.00     0.070 C 
HETATM    6  C7  UNL     1      24.452   6.136  50.865  1.00  0.00     0.069 C 
HETATM    7  C8  UNL     1      24.532   5.764  49.377  1.00  0.00     0.043 C 
HETATM    8  C9  UNL     1      25.177   4.409  49.208  1.00  0.00     0.150 C 
HETATM    9  C11 UNL     1      24.425   3.296  49.849  1.00  0.00    -0.043 C 
HETATM   10  C12 UNL     1      23.982   2.497  50.792  1.00  0.00     0.047 C 
HETATM   11  C13 UNL     1      23.537   1.660  51.881  1.00  0.00     0.113 C 
HETATM   12  F1  UNL     1      22.880   0.530  51.448  1.00  0.00    -0.206 F 
HETATM   13  C14 UNL     1      23.759   1.880  53.162  1.00  0.00     0.021 C 
HETATM   14  C15 UNL     1      24.510   3.173  53.350  1.00  0.00     0.091 C 
HETATM   15  C16 UNL     1      23.136   2.992  49.183  1.00  0.00     0.093 C 
HETATM   16  H6  UNL     1      21.362   4.126  52.470  1.00  0.00     0.189 HD
ENDROOT
BRANCH   1  17
HETATM   17  C2  UNL     1      20.881   2.041  49.623  1.00  0.00     0.052 C 
HETATM   18  C1  UNL     1      21.363   1.099  48.563  1.00  0.00     0.011 C 
ENDBRANCH   1  17
BRANCH   8  19
HETATM   19  O2  UNL     1      26.491   4.423  49.687  1.00  0.00    -0.386 OA
HETATM   20  C10 UNL     1      27.383   4.851  48.697  1.00  0.00     0.202 C 
ENDBRANCH   8  19
BRANCH   5  21
HETATM   21  O1  UNL     1      22.226   5.303  51.145  1.00  0.00    -0.358 OA
HETATM   22  C6  UNL     1      21.705   6.581  50.905  1.00  0.00     0.209 C 
ENDBRANCH   5  21
TORSDOF 3
ENDMDL
MODEL 4
REMARK VINA RESULT:      -6.0     10.943     12.682
REMARK  3 active torsions:
REMARK  status: ('A' for Active; 'I' for Inactive)
REMARK    1  A    between atoms: C2_2  and  C3_3 
REMARK    2  A    between atoms: C5_7  and  O1_8 
REMARK    3  A    between atoms: C9_12  and  O2_13 
ROOT
HETATM    1  C3  UNL     1      21.125   1.523  52.329  1.00  0.00     0.036 C 
HETATM    2  N1  UNL     1      22.077   0.781  51.817  1.00  0.00    -0.183 NA
HETATM    3  N2  UNL     1      23.024   1.296  50.928  1.00  0.00    -0.280 N 
HETATM    4  C4  UNL     1      23.035   2.424  49.981  1.00  0.00     0.060 C 
HETATM    5  C5  UNL     1      23.504   2.997  51.100  1.00  0.00     0.070 C 
HETATM    6  C7  UNL     1      23.903   4.431  51.319  1.00  0.00     0.069 C 
HETATM    7  C8  UNL     1      22.868   5.069  52.256  1.00  0.00     0.043 C 
HETATM    8  C9  UNL     1      21.511   5.106  51.593  1.00  0.00     0.150 C 
HETATM    9  C11 UNL     1      20.962   3.763  51.261  1.00  0.00    -0.043 C 
HETATM   10  C12 UNL     1      20.781   2.639  50.609  1.00  0.00     0.047 C 
HETATM   11  C13 UNL     1      20.635   1.426  49.839  1.00  0.00     0.113 C 
HETATM   12  F1  UNL     1      19.551   0.674  50.234  1.00  0.00    -0.206 F 
HETATM   13  C14 UNL     1      21.395   1.061  48.825  1.00  0.00     0.021 C 
HETATM   14  C15 UNL     1      22.490   2.071  48.601  1.00  0.00     0.091 C 
HETATM   15  C16 UNL     1      20.584   2.968  52.453  1.00  0.00     0.093 C 
HETATM   16  H6  UNL     1      23.390   0.445  51.453  1.00  0.00     0.189 HD
ENDROOT
BRANCH   1  17
HETATM   17  C2  UNL     1      20.313   0.623  53.238  1.00  0.00     0.052 C 
HETATM   18  C1  UNL     1      21.107   0.133  54.409  1.00  0.00     0.011 C 
ENDBRANCH   1  17
BRANCH   8  19
HETATM   19  O2  UNL     1      21.546   5.896  50.440  1.00  0.00    -0.386 OA
HETATM   20  C10 UNL     1      21.523   7.258  50.761  1.00  0.00     0.202 C 
ENDBRANCH   8  19
BRANCH   5  21
HETATM   21  O1  UNL     1      23.656   2.235  52.237  1.00  0.00    -0.358 OA
HETATM   22  C6  UNL     1      24.723   2.474  53.112  1.00  0.00     0.209 C 
ENDBRANCH   5  21
TORSDOF 3
ENDMDL
MODEL 5
REMARK VINA RESULT:      -5.9     10.556     12.664
REMARK  3 active torsions:
REMARK  status: ('A' for Active; 'I' for Inactive)
REMARK    1  A    between atoms: C2_2  and  C3_3 
REMARK    2  A    between atoms: C5_7  and  O1_8 
REMARK    3  A    between atoms: C9_12  and  O2_13 
ROOT
HETATM    1  C3  UNL     1      22.109   4.527  51.200  1.00  0.00     0.036 C 
HETATM    2  N1  UNL     1      23.186   4.317  50.483  1.00  0.00    -0.183 NA
HETATM    3  N2  UNL     1      23.662   3.031  50.216  1.00  0.00    -0.280 N 
HETATM    4  C4  UNL     1      23.550   1.732  50.902  1.00  0.00     0.060 C 
HETATM    5  C5  UNL     1      22.485   1.706  50.085  1.00  0.00     0.070 C 
HETATM    6  C7  UNL     1      21.441   0.633  49.943  1.00  0.00     0.069 C 
HETATM    7  C8  UNL     1      20.123   1.183  50.505  1.00  0.00     0.043 C 
HETATM    8  C9  UNL     1      20.254   1.449  51.986  1.00  0.00     0.150 C 
HETATM    9  C11 UNL     1      21.280   2.471  52.328  1.00  0.00    -0.043 C 
HETATM   10  C12 UNL     1      22.462   2.994  52.560  1.00  0.00     0.047 C 
HETATM   11  C13 UNL     1      23.793   3.499  52.799  1.00  0.00     0.113 C 
HETATM   12  F1  UNL     1      23.792   4.751  53.370  1.00  0.00    -0.206 F 
HETATM   13  C14 UNL     1      24.917   2.848  52.566  1.00  0.00     0.021 C 
HETATM   14  C15 UNL     1      24.626   1.501  51.957  1.00  0.00     0.091 C 
HETATM   15  C16 UNL     1      20.913   3.844  51.907  1.00  0.00     0.093 C 
HETATM   16  H6  UNL     1      23.962   3.730  49.472  1.00  0.00     0.189 HD
ENDROOT
BRANCH   1  17
HETATM   17  C2  UNL     1      21.913   6.028  51.261  1.00  0.00     0.052 C 
HETATM   18  C1  UNL     1      23.136   6.778  50.834  1.00  0.00     0.011 C 
ENDBRANCH   1  17
BRANCH   8  19
HETATM   19  O2  UNL     1      20.521   0.266  52.680  1.00  0.00    -0.386 OA
HETATM   20  C10 UNL     1      20.418   0.459  54.063  1.00  0.00     0.202 C 
ENDBRANCH   8  19
BRANCH   5  21
HETATM   21  O1  UNL     1      22.252   2.774  49.245  1.00  0.00    -0.358 OA
HETATM   22  C6  UNL     1      21.860   2.557  47.919  1.00  0.00     0.209 C 
ENDBRANCH   5  21
TORSDOF 3
ENDMDL
MODEL 6
REMARK VINA RESULT:      -5.8      2.356      4.405
REMARK  3 active torsions:
REMARK  status: ('A' for Active; 'I' for Inactive)
REMARK    1  A    between atoms: C2_2  and  C3_3 
REMARK    2  A    between atoms: C5_7  and  O1_8 
REMARK    3  A    between atoms: C9_12  and  O2_13 
ROOT
HETATM    1  C3  UNL     1      30.895   6.812  47.125  1.00  0.00     0.036 C 
HETATM    2  N1  UNL     1      31.680   7.724  46.604  1.00  0.00    -0.183 NA
HETATM    3  N2  UNL     1      33.027   7.475  46.328  1.00  0.00    -0.280 N 
HETATM    4  C4  UNL     1      34.032   6.548  46.874  1.00  0.00     0.060 C 
HETATM    5  C5  UNL     1      33.503   5.825  45.875  1.00  0.00     0.070 C 
HETATM    6  C7  UNL     1      33.842   4.421  45.455  1.00  0.00     0.069 C 
HETATM    7  C8  UNL     1      32.646   3.525  45.807  1.00  0.00     0.043 C 
HETATM    8  C9  UNL     1      32.444   3.481  47.303  1.00  0.00     0.150 C 
HETATM    9  C11 UNL     1      32.132   4.803  47.911  1.00  0.00    -0.043 C 
HETATM   10  C12 UNL     1      32.328   6.006  48.398  1.00  0.00     0.047 C 
HETATM   11  C13 UNL     1      32.619   7.320  48.920  1.00  0.00     0.113 C 
HETATM   12  F1  UNL     1      31.549   7.880  49.580  1.00  0.00    -0.206 F 
HETATM   13  C14 UNL     1      33.783   7.937  48.847  1.00  0.00     0.021 C 
HETATM   14  C15 UNL     1      34.776   7.095  48.087  1.00  0.00     0.091 C 
HETATM   15  C16 UNL     1      30.796   5.325  47.541  1.00  0.00     0.093 C 
HETATM   16  H6  UNL     1      32.628   8.245  45.710  1.00  0.00     0.189 HD
ENDROOT
BRANCH   1  17
HETATM   17  C2  UNL     1      29.527   7.447  47.270  1.00  0.00     0.052 C 
HETATM   18  C1  UNL     1      28.548   6.540  47.949  1.00  0.00     0.011 C 
ENDBRANCH   1  17
BRANCH   8  19
HETATM   19  O2  UNL     1      33.559   2.925  47.937  1.00  0.00    -0.386 OA
HETATM   20  C10 UNL     1      33.316   1.597  48.308  1.00  0.00     0.202 C 
ENDBRANCH   8  19
BRANCH   5  21
HETATM   21  O1  UNL     1      32.509   6.375  45.095  1.00  0.00    -0.358 OA
HETATM   22  C6  UNL     1      32.582   6.300  43.699  1.00  0.00     0.209 C 
ENDBRANCH   5  21
TORSDOF 3
ENDMDL
MODEL 7
REMARK VINA RESULT:      -5.8     11.204     13.161
REMARK  3 active torsions:
REMARK  status: ('A' for Active; 'I' for Inactive)
REMARK    1  A    between atoms: C2_2  and  C3_3 
REMARK    2  A    between atoms: C5_7  and  O1_8 
REMARK    3  A    between atoms: C9_12  and  O2_13 
ROOT
HETATM    1  C3  UNL     1      22.209   4.218  51.114  1.00  0.00     0.036 C 
HETATM    2  N1  UNL     1      21.372   4.339  50.112  1.00  0.00    -0.183 NA
HETATM    3  N2  UNL     1      20.626   3.258  49.634  1.00  0.00    -0.280 N 
HETATM    4  C4  UNL     1      20.813   1.798  49.643  1.00  0.00     0.060 C 
HETATM    5  C5  UNL     1      20.137   1.997  50.785  1.00  0.00     0.070 C 
HETATM    6  C7  UNL     1      19.715   0.981  51.811  1.00  0.00     0.069 C 
HETATM    7  C8  UNL     1      20.549   1.219  53.077  1.00  0.00     0.043 C 
HETATM    8  C9  UNL     1      22.011   0.956  52.801  1.00  0.00     0.150 C 
HETATM    9  C11 UNL     1      22.602   1.852  51.770  1.00  0.00    -0.043 C 
HETATM   10  C12 UNL     1      22.899   2.330  50.584  1.00  0.00     0.047 C 
HETATM   11  C13 UNL     1      23.184   2.797  49.248  1.00  0.00     0.113 C 
HETATM   12  F1  UNL     1      24.161   3.767  49.222  1.00  0.00    -0.206 F 
HETATM   13  C14 UNL     1      22.638   2.338  48.139  1.00  0.00     0.021 C 
HETATM   14  C15 UNL     1      21.618   1.275  48.457  1.00  0.00     0.091 C 
HETATM   15  C16 UNL     1      22.729   3.261  52.213  1.00  0.00     0.093 C 
HETATM   16  H6  UNL     1      20.154   4.191  49.430  1.00  0.00     0.189 HD
ENDROOT
BRANCH   1  17
HETATM   17  C2  UNL     1      22.816   5.588  51.339  1.00  0.00     0.052 C 
HETATM   18  C1  UNL     1      21.987   6.682  50.742  1.00  0.00     0.011 C 
ENDBRANCH   1  17
BRANCH   8  19
HETATM   19  O2  UNL     1      22.213  -0.378  52.434  1.00  0.00    -0.386 OA
HETATM   20  C10 UNL     1      22.241  -1.210  53.559  1.00  0.00     0.202 C 
ENDBRANCH   8  19
BRANCH   5  21
HETATM   21  O1  UNL     1      19.755   3.275  51.130  1.00  0.00    -0.358 OA
HETATM   22  C6  UNL     1      18.452   3.527  51.577  1.00  0.00     0.209 C 
ENDBRANCH   5  21
TORSDOF 3
ENDMDL
MODEL 8
REMARK VINA RESULT:      -5.7      7.911      9.954
REMARK  3 active torsions:
REMARK  status: ('A' for Active; 'I' for Inactive)
REMARK    1  A    between atoms: C2_2  and  C3_3 
REMARK    2  A    between atoms: C5_7  and  O1_8 
REMARK    3  A    between atoms: C9_12  and  O2_13 
ROOT
HETATM    1  C3  UNL     1      23.924   3.049  51.177  1.00  0.00     0.036 C 
HETATM    2  N1  UNL     1      24.535   4.115  51.633  1.00  0.00    -0.183 NA
HETATM    3  N2  UNL     1      24.639   5.289  50.881  1.00  0.00    -0.280 N 
HETATM    4  C4  UNL     1      24.632   5.588  49.439  1.00  0.00     0.060 C 
HETATM    5  C5  UNL     1      23.329   5.683  49.748  1.00  0.00     0.070 C 
HETATM    6  C7  UNL     1      22.172   5.988  48.836  1.00  0.00     0.069 C 
HETATM    7  C8  UNL     1      21.333   4.710  48.700  1.00  0.00     0.043 C 
HETATM    8  C9  UNL     1      22.134   3.626  48.017  1.00  0.00     0.150 C 
HETATM    9  C11 UNL     1      23.354   3.214  48.763  1.00  0.00    -0.043 C 
HETATM   10  C12 UNL     1      24.585   3.249  49.216  1.00  0.00     0.047 C 
HETATM   11  C13 UNL     1      25.949   3.355  49.676  1.00  0.00     0.113 C 
HETATM   12  F1  UNL     1      26.394   2.207  50.292  1.00  0.00    -0.206 F 
HETATM   13  C14 UNL     1      26.743   4.395  49.501  1.00  0.00     0.021 C 
HETATM   14  C15 UNL     1      26.008   5.501  48.788  1.00  0.00     0.091 C 
HETATM   15  C16 UNL     1      23.062   2.488  50.021  1.00  0.00     0.093 C 
HETATM   16  H6  UNL     1      24.693   5.479  51.927  1.00  0.00     0.189 HD
ENDROOT
BRANCH   1  17
HETATM   17  C2  UNL     1      24.013   1.999  52.266  1.00  0.00     0.052 C 
HETATM   18  C1  UNL     1      25.037   2.343  53.304  1.00  0.00     0.011 C 
ENDBRANCH   1  17
BRANCH   8  19
HETATM   19  O2  UNL     1      22.485   4.013  46.720  1.00  0.00    -0.386 OA
HETATM   20  C10 UNL     1      21.460   3.723  45.813  1.00  0.00     0.202 C 
ENDBRANCH   8  19
BRANCH   5  21
HETATM   21  O1  UNL     1      22.927   5.479  51.050  1.00  0.00    -0.358 OA
HETATM   22  C6  UNL     1      21.771   6.099  51.538  1.00  0.00     0.209 C 
ENDBRANCH   5  21
TORSDOF 3
ENDMDL
MODEL 9
REMARK VINA RESULT:      -5.6      8.818     11.491
REMARK  3 active torsions:
REMARK  status: ('A' for Active; 'I' for Inactive)
REMARK    1  A    between atoms: C2_2  and  C3_3 
REMARK    2  A    between atoms: C5_7  and  O1_8 
REMARK    3  A    between atoms: C9_12  and  O2_13 
ROOT
HETATM    1  C3  UNL     1      24.410   3.178  50.611  1.00  0.00     0.036 C 
HETATM    2  N1  UNL     1      23.908   3.362  51.808  1.00  0.00    -0.183 NA
HETATM    3  N2  UNL     1      22.531   3.368  52.043  1.00  0.00    -0.280 N 
HETATM    4  C4  UNL     1      21.350   3.671  51.216  1.00  0.00     0.060 C 
HETATM    5  C5  UNL     1      21.496   2.352  51.017  1.00  0.00     0.070 C 
HETATM    6  C7  UNL     1      20.675   1.441  50.146  1.00  0.00     0.069 C 
HETATM    7  C8  UNL     1      21.549   1.012  48.959  1.00  0.00     0.043 C 
HETATM    8  C9  UNL     1      21.899   2.208  48.105  1.00  0.00     0.150 C 
HETATM    9  C11 UNL     1      22.690   3.249  48.817  1.00  0.00    -0.043 C 
HETATM   10  C12 UNL     1      22.953   4.266  49.603  1.00  0.00     0.047 C 
HETATM   11  C13 UNL     1      23.166   5.388  50.486  1.00  0.00     0.113 C 
HETATM   12  F1  UNL     1      24.429   5.923  50.371  1.00  0.00    -0.206 F 
HETATM   13  C14 UNL     1      22.264   5.917  51.291  1.00  0.00     0.021 C 
HETATM   14  C15 UNL     1      20.971   5.148  51.207  1.00  0.00     0.091 C 
HETATM   15  C16 UNL     1      24.071   2.822  49.144  1.00  0.00     0.093 C 
HETATM   16  H6  UNL     1      23.082   3.093  52.911  1.00  0.00     0.189 HD
ENDROOT
BRANCH   1  17
HETATM   17  C2  UNL     1      25.917   3.232  50.759  1.00  0.00     0.052 C 
HETATM   18  C1  UNL     1      26.601   3.604  49.480  1.00  0.00     0.011 C 
ENDBRANCH   1  17
BRANCH   8  19
HETATM   19  O2  UNL     1      20.746   2.785  47.564  1.00  0.00    -0.386 OA
HETATM   20  C10 UNL     1      21.058   3.608  46.476  1.00  0.00     0.202 C 
ENDBRANCH   8  19
BRANCH   5  21
HETATM   21  O1  UNL     1      22.517   1.681  51.655  1.00  0.00    -0.358 OA
HETATM   22  C6  UNL     1      22.285   0.429  52.236  1.00  0.00     0.209 C 
ENDBRANCH   5  21
TORSDOF 3
ENDMDL
