MODEL 1
REMARK VINA RESULT:      -8.1      0.000      0.000
REMARK  5 active torsions:
REMARK  status: ('A' for Active; 'I' for Inactive)
REMARK    1  A    between atoms: C2_2  and  C3_3 
REMARK    2  A    between atoms: C4_4  and  C5_5 
REMARK    3  A    between atoms: C8_9  and  N2_10 
REMARK    4  A    between atoms: N2_10  and  C9_11 
REMARK    5  A    between atoms: C11_13  and  N3_14 
REMARK       I    between atoms: N3_14  and  C12_15 
ROOT
HETATM    1  C9  UNL     1      22.941   0.333  53.274  1.00  0.00     0.057 A 
HETATM    2  C10 UNL     1      24.305   0.204  53.120  1.00  0.00     0.060 A 
HETATM    3  C11 UNL     1      24.985  -0.605  54.007  1.00  0.00     0.036 A 
HETATM    4  C14 UNL     1      24.276  -1.255  55.013  1.00  0.00     0.030 A 
HETATM    5  C15 UNL     1      22.909  -1.092  55.121  1.00  0.00     0.011 A 
HETATM    6  C16 UNL     1      22.199  -0.292  54.253  1.00  0.00    -0.035 A 
HETATM    7  C17 UNL     1      20.720  -0.066  54.307  1.00  0.00     0.050 C 
ENDROOT
BRANCH   1   8
HETATM    8  N2  UNL     1      22.293   1.174  52.347  1.00  0.00    -0.188 N 
HETATM    9  H8  UNL     1      21.493   1.798  52.654  1.00  0.00     0.184 HD
BRANCH   8  10
HETATM   10  C8  UNL     1      22.338   1.521  50.991  1.00  0.00     0.727 A 
HETATM   11  N1  UNL     1      21.562   0.889  50.089  1.00  0.00    -0.075 NA
HETATM   12  C7  UNL     1      21.680   1.301  48.791  1.00  0.00     0.139 A 
HETATM   13  C6  UNL     1      22.567   2.313  48.498  1.00  0.00     0.052 A 
HETATM   14  C5  UNL     1      23.367   2.970  49.406  1.00  0.00     0.077 A 
HETATM   15  N4  UNL     1      23.199   2.508  50.685  1.00  0.00    -0.063 NA
BRANCH  14  16
HETATM   16  C4  UNL     1      24.299   4.037  49.102  1.00  0.00     0.032 C 
HETATM   17  C3  UNL     1      25.561   4.005  49.411  1.00  0.00     0.002 C 
BRANCH  17  18
HETATM   18  C2  UNL     1      26.451   5.113  49.077  1.00  0.00    -0.010 C 
HETATM   19  C1  UNL     1      27.661   4.898  48.626  1.00  0.00     0.011 C 
ENDBRANCH  17  18
ENDBRANCH  14  16
ENDBRANCH   8  10
ENDBRANCH   1   8
BRANCH   3  20
HETATM   20  N3  UNL     1      26.371  -0.922  54.093  1.00  0.00    -0.327 N 
HETATM   21  C12 UNL     1      27.108   0.176  54.603  1.00  0.00     0.218 C 
HETATM   22  C13 UNL     1      28.557   0.295  54.859  1.00  0.00     0.117 C 
HETATM   23  O1  UNL     1      26.493   1.226  54.897  1.00  0.00    -0.274 OA
HETATM   24  H10 UNL     1      26.956  -1.757  53.871  1.00  0.00     0.169 HD
ENDBRANCH   3  20
TORSDOF 5
ENDMDL
MODEL 2
REMARK VINA RESULT:      -7.9      1.918      2.455
REMARK  5 active torsions:
REMARK  status: ('A' for Active; 'I' for Inactive)
REMARK    1  A    between atoms: C2_2  and  C3_3 
REMARK    2  A    between atoms: C4_4  and  C5_5 
REMARK    3  A    between atoms: C8_9  and  N2_10 
REMARK    4  A    between atoms: N2_10  and  C9_11 
REMARK    5  A    between atoms: C11_13  and  N3_14 
REMARK       I    between atoms: N3_14  and  C12_15 
ROOT
HETATM    1  C9  UNL     1      24.356   1.626  53.123  1.00  0.00     0.057 A 
HETATM    2  C10 UNL     1      25.648   1.523  53.591  1.00  0.00     0.060 A 
HETATM    3  C11 UNL     1      26.033   0.334  54.179  1.00  0.00     0.036 A 
HETATM    4  C14 UNL     1      25.111  -0.704  54.275  1.00  0.00     0.030 A 
HETATM    5  C15 UNL     1      23.829  -0.547  53.788  1.00  0.00     0.011 A 
HETATM    6  C16 UNL     1      23.412   0.625  53.196  1.00  0.00    -0.035 A 
HETATM    7  C17 UNL     1      22.041   0.869  52.646  1.00  0.00     0.050 C 
ENDROOT
BRANCH   1   8
HETATM    8  N2  UNL     1      24.011   2.860  52.536  1.00  0.00    -0.188 N 
HETATM    9  H8  UNL     1      23.492   3.596  53.097  1.00  0.00     0.184 HD
BRANCH   8  10
HETATM   10  C8  UNL     1      24.125   3.546  51.320  1.00  0.00     0.727 A 
HETATM   11  N1  UNL     1      23.040   4.069  50.717  1.00  0.00    -0.075 NA
HETATM   12  C7  UNL     1      23.258   4.718  49.534  1.00  0.00     0.139 A 
HETATM   13  C6  UNL     1      24.544   4.792  49.048  1.00  0.00     0.052 A 
HETATM   14  C5  UNL     1      25.664   4.265  49.652  1.00  0.00     0.077 A 
HETATM   15  N4  UNL     1      25.375   3.629  50.830  1.00  0.00    -0.063 NA
BRANCH  14  16
HETATM   16  C4  UNL     1      27.019   4.343  49.145  1.00  0.00     0.032 C 
HETATM   17  C3  UNL     1      27.532   5.415  48.616  1.00  0.00     0.002 C 
BRANCH  17  18
HETATM   18  C2  UNL     1      28.905   5.432  48.121  1.00  0.00    -0.010 C 
HETATM   19  C1  UNL     1      29.486   6.553  47.775  1.00  0.00     0.011 C 
ENDBRANCH  17  18
ENDBRANCH  14  16
ENDBRANCH   8  10
ENDBRANCH   1   8
BRANCH   3  20
HETATM   20  N3  UNL     1      27.281  -0.055  54.744  1.00  0.00    -0.327 N 
HETATM   21  C12 UNL     1      28.187  -0.462  53.733  1.00  0.00     0.218 C 
HETATM   22  C13 UNL     1      29.579  -0.939  53.857  1.00  0.00     0.117 C 
HETATM   23  O1  UNL     1      27.807  -0.434  52.540  1.00  0.00    -0.274 OA
HETATM   24  H10 UNL     1      27.673  -0.109  55.709  1.00  0.00     0.169 HD
ENDBRANCH   3  20
TORSDOF 5
ENDMDL
MODEL 3
REMARK VINA RESULT:      -7.2      3.194      5.031
REMARK  5 active torsions:
REMARK  status: ('A' for Active; 'I' for Inactive)
REMARK    1  A    between atoms: C2_2  and  C3_3 
REMARK    2  A    between atoms: C4_4  and  C5_5 
REMARK    3  A    between atoms: C8_9  and  N2_10 
REMARK    4  A    between atoms: N2_10  and  C9_11 
REMARK    5  A    between atoms: C11_13  and  N3_14 
REMARK       I    between atoms: N3_14  and  C12_15 
ROOT
HETATM    1  C9  UNL     1      25.569   3.053  50.925  1.00  0.00     0.057 A 
HETATM    2  C10 UNL     1      26.527   2.084  51.132  1.00  0.00     0.060 A 
HETATM    3  C11 UNL     1      26.481   1.366  52.310  1.00  0.00     0.036 A 
HETATM    4  C14 UNL     1      25.479   1.644  53.235  1.00  0.00     0.030 A 
HETATM    5  C15 UNL     1      24.543   2.626  52.976  1.00  0.00     0.011 A 
HETATM    6  C16 UNL     1      24.559   3.361  51.811  1.00  0.00    -0.035 A 
HETATM    7  C17 UNL     1      23.581   4.438  51.462  1.00  0.00     0.050 C 
ENDROOT
BRANCH   1   8
HETATM    8  N2  UNL     1      25.661   3.762  49.710  1.00  0.00    -0.188 N 
HETATM    9  H8  UNL     1      25.064   3.484  48.879  1.00  0.00     0.184 HD
BRANCH   8  10
HETATM   10  C8  UNL     1      26.349   4.841  49.141  1.00  0.00     0.727 A 
HETATM   11  N1  UNL     1      25.719   6.005  48.886  1.00  0.00    -0.075 NA
HETATM   12  C7  UNL     1      26.477   6.996  48.329  1.00  0.00     0.139 A 
HETATM   13  C6  UNL     1      27.806   6.744  48.070  1.00  0.00     0.052 A 
HETATM   14  C5  UNL     1      28.465   5.563  48.325  1.00  0.00     0.077 A 
HETATM   15  N4  UNL     1      27.649   4.615  48.881  1.00  0.00    -0.063 NA
BRANCH  14  16
HETATM   16  C4  UNL     1      29.864   5.296  48.057  1.00  0.00     0.032 C 
HETATM   17  C3  UNL     1      30.686   6.174  47.562  1.00  0.00     0.002 C 
BRANCH  17  18
HETATM   18  C2  UNL     1      32.086   5.845  47.313  1.00  0.00    -0.010 C 
HETATM   19  C1  UNL     1      33.037   6.297  48.091  1.00  0.00     0.011 C 
ENDBRANCH  17  18
ENDBRANCH  14  16
ENDBRANCH   8  10
ENDBRANCH   1   8
BRANCH   3  20
HETATM   20  N3  UNL     1      27.324   0.323  52.790  1.00  0.00    -0.327 N 
HETATM   21  C12 UNL     1      28.581   0.838  53.195  1.00  0.00     0.218 C 
HETATM   22  C13 UNL     1      29.750   0.128  53.752  1.00  0.00     0.117 C 
HETATM   23  O1  UNL     1      28.788   2.068  53.089  1.00  0.00    -0.274 OA
HETATM   24  H10 UNL     1      27.232  -0.709  52.909  1.00  0.00     0.169 HD
ENDBRANCH   3  20
TORSDOF 5
ENDMDL
MODEL 4
REMARK VINA RESULT:      -7.2      3.745      7.885
REMARK  5 active torsions:
REMARK  status: ('A' for Active; 'I' for Inactive)
REMARK    1  A    between atoms: C2_2  and  C3_3 
REMARK    2  A    between atoms: C4_4  and  C5_5 
REMARK    3  A    between atoms: C8_9  and  N2_10 
REMARK    4  A    between atoms: N2_10  and  C9_11 
REMARK    5  A    between atoms: C11_13  and  N3_14 
REMARK       I    between atoms: N3_14  and  C12_15 
ROOT
HETATM    1  C9  UNL     1      27.107   5.185  48.820  1.00  0.00     0.057 A 
HETATM    2  C10 UNL     1      28.403   4.881  48.460  1.00  0.00     0.060 A 
HETATM    3  C11 UNL     1      29.203   5.905  47.992  1.00  0.00     0.036 A 
HETATM    4  C14 UNL     1      28.677   7.190  47.903  1.00  0.00     0.030 A 
HETATM    5  C15 UNL     1      27.372   7.438  48.280  1.00  0.00     0.011 A 
HETATM    6  C16 UNL     1      26.546   6.442  48.751  1.00  0.00    -0.035 A 
HETATM    7  C17 UNL     1      25.125   6.634  49.177  1.00  0.00     0.050 C 
ENDROOT
BRANCH   1   8
HETATM    8  N2  UNL     1      26.329   4.106  49.287  1.00  0.00    -0.188 N 
HETATM    9  H8  UNL     1      25.792   3.496  48.607  1.00  0.00     0.184 HD
BRANCH   8  10
HETATM   10  C8  UNL     1      25.971   3.474  50.485  1.00  0.00     0.727 A 
HETATM   11  N1  UNL     1      24.762   3.685  51.043  1.00  0.00    -0.075 NA
HETATM   12  C7  UNL     1      24.510   3.023  52.211  1.00  0.00     0.139 A 
HETATM   13  C6  UNL     1      25.486   2.201  52.729  1.00  0.00     0.052 A 
HETATM   14  C5  UNL     1      26.725   1.973  52.172  1.00  0.00     0.077 A 
HETATM   15  N4  UNL     1      26.912   2.667  51.006  1.00  0.00    -0.063 NA
BRANCH  14  16
HETATM   16  C4  UNL     1      27.753   1.107  52.713  1.00  0.00     0.032 C 
HETATM   17  C3  UNL     1      27.617  -0.179  52.848  1.00  0.00     0.002 C 
BRANCH  17  18
HETATM   18  C2  UNL     1      28.691  -0.999  53.402  1.00  0.00    -0.010 C 
HETATM   19  C1  UNL     1      29.896  -0.516  53.567  1.00  0.00     0.011 C 
ENDBRANCH  17  18
ENDBRANCH  14  16
ENDBRANCH   8  10
ENDBRANCH   1   8
BRANCH   3  20
HETATM   20  N3  UNL     1      30.557   5.890  47.552  1.00  0.00    -0.327 N 
HETATM   21  C12 UNL     1      31.442   5.751  48.651  1.00  0.00     0.218 C 
HETATM   22  C13 UNL     1      32.917   5.688  48.665  1.00  0.00     0.117 C 
HETATM   23  O1  UNL     1      30.959   5.665  49.802  1.00  0.00    -0.274 OA
HETATM   24  H10 UNL     1      31.038   5.957  46.628  1.00  0.00     0.169 HD
ENDBRANCH   3  20
TORSDOF 5
ENDMDL
MODEL 5
REMARK VINA RESULT:      -7.1      1.664      2.634
REMARK  5 active torsions:
REMARK  status: ('A' for Active; 'I' for Inactive)
REMARK    1  A    between atoms: C2_2  and  C3_3 
REMARK    2  A    between atoms: C4_4  and  C5_5 
REMARK    3  A    between atoms: C8_9  and  N2_10 
REMARK    4  A    between atoms: N2_10  and  C9_11 
REMARK    5  A    between atoms: C11_13  and  N3_14 
REMARK       I    between atoms: N3_14  and  C12_15 
ROOT
HETATM    1  C9  UNL     1      23.204   0.148  53.069  1.00  0.00     0.057 A 
HETATM    2  C10 UNL     1      24.574   0.037  52.970  1.00  0.00     0.060 A 
HETATM    3  C11 UNL     1      25.244  -0.638  53.971  1.00  0.00     0.036 A 
HETATM    4  C14 UNL     1      24.519  -1.176  55.030  1.00  0.00     0.030 A 
HETATM    5  C15 UNL     1      23.147  -1.036  55.078  1.00  0.00     0.011 A 
HETATM    6  C16 UNL     1      22.446  -0.369  54.097  1.00  0.00    -0.035 A 
HETATM    7  C17 UNL     1      20.962  -0.178  54.081  1.00  0.00     0.050 C 
ENDROOT
BRANCH   1   8
HETATM    8  N2  UNL     1      22.566   0.849  52.026  1.00  0.00    -0.188 N 
HETATM    9  H8  UNL     1      21.716   0.438  51.542  1.00  0.00     0.184 HD
BRANCH   8  10
HETATM   10  C8  UNL     1      22.669   2.050  51.313  1.00  0.00     0.727 A 
HETATM   11  N1  UNL     1      22.972   3.203  51.941  1.00  0.00    -0.075 NA
HETATM   12  C7  UNL     1      23.048   4.320  51.158  1.00  0.00     0.139 A 
HETATM   13  C6  UNL     1      22.815   4.195  49.806  1.00  0.00     0.052 A 
HETATM   14  C5  UNL     1      22.506   3.026  49.148  1.00  0.00     0.077 A 
HETATM   15  N4  UNL     1      22.445   1.949  49.991  1.00  0.00    -0.063 NA
BRANCH  14  16
HETATM   16  C4  UNL     1      22.263   2.891  47.725  1.00  0.00     0.032 C 
HETATM   17  C3  UNL     1      22.068   3.897  46.926  1.00  0.00     0.002 C 
BRANCH  17  18
HETATM   18  C2  UNL     1      21.827   3.697  45.500  1.00  0.00    -0.010 C 
HETATM   19  C1  UNL     1      21.418   4.679  44.738  1.00  0.00     0.011 C 
ENDBRANCH  17  18
ENDBRANCH  14  16
ENDBRANCH   8  10
ENDBRANCH   1   8
BRANCH   3  20
HETATM   20  N3  UNL     1      26.634  -0.904  54.134  1.00  0.00    -0.327 N 
HETATM   21  C12 UNL     1      27.323   0.257  54.565  1.00  0.00     0.218 C 
HETATM   22  C13 UNL     1      28.758   0.442  54.859  1.00  0.00     0.117 C 
HETATM   23  O1  UNL     1      26.670   1.312  54.737  1.00  0.00    -0.274 OA
HETATM   24  H10 UNL     1      27.248  -1.739  54.013  1.00  0.00     0.169 HD
ENDBRANCH   3  20
TORSDOF 5
ENDMDL
MODEL 6
REMARK VINA RESULT:      -7.1      1.297      1.529
REMARK  5 active torsions:
REMARK  status: ('A' for Active; 'I' for Inactive)
REMARK    1  A    between atoms: C2_2  and  C3_3 
REMARK    2  A    between atoms: C4_4  and  C5_5 
REMARK    3  A    between atoms: C8_9  and  N2_10 
REMARK    4  A    between atoms: N2_10  and  C9_11 
REMARK    5  A    between atoms: C11_13  and  N3_14 
REMARK       I    between atoms: N3_14  and  C12_15 
ROOT
HETATM    1  C9  UNL     1      23.007   0.592  53.074  1.00  0.00     0.057 A 
HETATM    2  C10 UNL     1      24.364   0.383  52.961  1.00  0.00     0.060 A 
HETATM    3  C11 UNL     1      24.961  -0.497  53.842  1.00  0.00     0.036 A 
HETATM    4  C14 UNL     1      24.178  -1.133  54.800  1.00  0.00     0.030 A 
HETATM    5  C15 UNL     1      22.821  -0.888  54.867  1.00  0.00     0.011 A 
HETATM    6  C16 UNL     1      22.193  -0.017  54.005  1.00  0.00    -0.035 A 
HETATM    7  C17 UNL     1      20.730   0.298  54.018  1.00  0.00     0.050 C 
ENDROOT
BRANCH   1   8
HETATM    8  N2  UNL     1      22.445   1.501  52.156  1.00  0.00    -0.188 N 
HETATM    9  H8  UNL     1      21.946   2.373  52.498  1.00  0.00     0.184 HD
BRANCH   8  10
HETATM   10  C8  UNL     1      22.294   1.686  50.775  1.00  0.00     0.727 A 
HETATM   11  N1  UNL     1      21.609   0.796  50.030  1.00  0.00    -0.075 NA
HETATM   12  C7  UNL     1      21.519   1.066  48.693  1.00  0.00     0.139 A 
HETATM   13  C6  UNL     1      22.122   2.205  48.208  1.00  0.00     0.052 A 
HETATM   14  C5  UNL     1      22.825   3.124  48.954  1.00  0.00     0.077 A 
HETATM   15  N4  UNL     1      22.876   2.793  50.282  1.00  0.00    -0.063 NA
BRANCH  14  16
HETATM   16  C4  UNL     1      23.458   4.325  48.447  1.00  0.00     0.032 C 
HETATM   17  C3  UNL     1      22.822   5.435  48.215  1.00  0.00     0.002 C 
BRANCH  17  18
HETATM   18  C2  UNL     1      23.517   6.612  47.702  1.00  0.00    -0.010 C 
HETATM   19  C1  UNL     1      23.629   7.699  48.422  1.00  0.00     0.011 C 
ENDBRANCH  17  18
ENDBRANCH  14  16
ENDBRANCH   8  10
ENDBRANCH   1   8
BRANCH   3  20
HETATM   20  N3  UNL     1      26.321  -0.902  53.962  1.00  0.00    -0.327 N 
HETATM   21  C12 UNL     1      27.099   0.118  54.566  1.00  0.00     0.218 C 
HETATM   22  C13 UNL     1      28.541   0.133  54.885  1.00  0.00     0.117 C 
HETATM   23  O1  UNL     1      26.535   1.185  54.898  1.00  0.00    -0.274 OA
HETATM   24  H10 UNL     1      26.865  -1.757  53.715  1.00  0.00     0.169 HD
ENDBRANCH   3  20
TORSDOF 5
ENDMDL
MODEL 7
REMARK VINA RESULT:      -7.0      3.196      7.908
REMARK  5 active torsions:
REMARK  status: ('A' for Active; 'I' for Inactive)
REMARK    1  A    between atoms: C2_2  and  C3_3 
REMARK    2  A    between atoms: C4_4  and  C5_5 
REMARK    3  A    between atoms: C8_9  and  N2_10 
REMARK    4  A    between atoms: N2_10  and  C9_11 
REMARK    5  A    between atoms: C11_13  and  N3_14 
REMARK       I    between atoms: N3_14  and  C12_15 
ROOT
HETATM    1  C9  UNL     1      25.631   4.680  50.079  1.00  0.00     0.057 A 
HETATM    2  C10 UNL     1      24.516   5.189  50.710  1.00  0.00     0.060 A 
HETATM    3  C11 UNL     1      24.209   6.521  50.513  1.00  0.00     0.036 A 
HETATM    4  C14 UNL     1      25.028   7.291  49.693  1.00  0.00     0.030 A 
HETATM    5  C15 UNL     1      26.133   6.730  49.084  1.00  0.00     0.011 A 
HETATM    6  C16 UNL     1      26.468   5.405  49.259  1.00  0.00    -0.035 A 
HETATM    7  C17 UNL     1      27.647   4.728  48.633  1.00  0.00     0.050 C 
ENDROOT
BRANCH   1   8
HETATM    8  N2  UNL     1      25.904   3.318  50.315  1.00  0.00    -0.188 N 
HETATM    9  H8  UNL     1      25.899   2.622  49.515  1.00  0.00     0.184 HD
BRANCH   8  10
HETATM   10  C8  UNL     1      26.223   2.448  51.366  1.00  0.00     0.727 A 
HETATM   11  N1  UNL     1      27.463   2.427  51.894  1.00  0.00    -0.075 NA
HETATM   12  C7  UNL     1      27.673   1.543  52.914  1.00  0.00     0.139 A 
HETATM   13  C6  UNL     1      26.625   0.749  53.326  1.00  0.00     0.052 A 
HETATM   14  C5  UNL     1      25.353   0.758  52.799  1.00  0.00     0.077 A 
HETATM   15  N4  UNL     1      25.213   1.665  51.782  1.00  0.00    -0.063 NA
BRANCH  14  16
HETATM   16  C4  UNL     1      24.249  -0.074  53.232  1.00  0.00     0.032 C 
HETATM   17  C3  UNL     1      23.001   0.192  52.979  1.00  0.00     0.002 C 
BRANCH  17  18
HETATM   18  C2  UNL     1      21.931  -0.686  53.445  1.00  0.00    -0.010 C 
HETATM   19  C1  UNL     1      21.870  -1.076  54.693  1.00  0.00     0.011 C 
ENDBRANCH  17  18
ENDBRANCH  14  16
ENDBRANCH   8  10
ENDBRANCH   1   8
BRANCH   3  20
HETATM   20  N3  UNL     1      23.139   7.308  51.026  1.00  0.00    -0.327 N 
HETATM   21  C12 UNL     1      22.051   7.334  50.118  1.00  0.00     0.218 C 
HETATM   22  C13 UNL     1      20.747   8.016  50.235  1.00  0.00     0.117 C 
HETATM   23  O1  UNL     1      22.155   6.704  49.041  1.00  0.00    -0.274 OA
HETATM   24  H10 UNL     1      22.975   7.857  51.898  1.00  0.00     0.169 HD
ENDBRANCH   3  20
TORSDOF 5
ENDMDL
MODEL 8
REMARK VINA RESULT:      -7.0      3.066      7.112
REMARK  5 active torsions:
REMARK  status: ('A' for Active; 'I' for Inactive)
REMARK    1  A    between atoms: C2_2  and  C3_3 
REMARK    2  A    between atoms: C4_4  and  C5_5 
REMARK    3  A    between atoms: C8_9  and  N2_10 
REMARK    4  A    between atoms: N2_10  and  C9_11 
REMARK    5  A    between atoms: C11_13  and  N3_14 
REMARK       I    between atoms: N3_14  and  C12_15 
ROOT
HETATM    1  C9  UNL     1      24.307   3.779  50.543  1.00  0.00     0.057 A 
HETATM    2  C10 UNL     1      23.285   4.593  50.982  1.00  0.00     0.060 A 
HETATM    3  C11 UNL     1      23.446   5.959  50.862  1.00  0.00     0.036 A 
HETATM    4  C14 UNL     1      24.620   6.457  50.308  1.00  0.00     0.030 A 
HETATM    5  C15 UNL     1      25.612   5.596  49.883  1.00  0.00     0.011 A 
HETATM    6  C16 UNL     1      25.485   4.228  49.987  1.00  0.00    -0.035 A 
HETATM    7  C17 UNL     1      26.515   3.234  49.549  1.00  0.00     0.050 C 
ENDROOT
BRANCH   1   8
HETATM    8  N2  UNL     1      24.098   2.393  50.691  1.00  0.00    -0.188 N 
HETATM    9  H8  UNL     1      23.984   1.772  49.838  1.00  0.00     0.184 HD
BRANCH   8  10
HETATM   10  C8  UNL     1      23.973   1.422  51.692  1.00  0.00     0.727 A 
HETATM   11  N1  UNL     1      22.764   0.937  52.039  1.00  0.00    -0.075 NA
HETATM   12  C7  UNL     1      22.749  -0.006  53.027  1.00  0.00     0.139 A 
HETATM   13  C6  UNL     1      23.945  -0.391  53.591  1.00  0.00     0.052 A 
HETATM   14  C5  UNL     1      25.188   0.092  53.248  1.00  0.00     0.077 A 
HETATM   15  N4  UNL     1      25.131   1.033  52.255  1.00  0.00    -0.063 NA
BRANCH  14  16
HETATM   16  C4  UNL     1      26.449  -0.313  53.838  1.00  0.00     0.032 C 
HETATM   17  C3  UNL     1      27.610   0.066  53.393  1.00  0.00     0.002 C 
BRANCH  17  18
HETATM   18  C2  UNL     1      28.847  -0.377  54.030  1.00  0.00    -0.010 C 
HETATM   19  C1  UNL     1      29.683  -1.169  53.407  1.00  0.00     0.011 C 
ENDBRANCH  17  18
ENDBRANCH  14  16
ENDBRANCH   8  10
ENDBRANCH   1   8
BRANCH   3  20
HETATM   20  N3  UNL     1      22.575   7.026  51.224  1.00  0.00    -0.327 N 
HETATM   21  C12 UNL     1      21.655   7.302  50.182  1.00  0.00     0.218 C 
HETATM   22  C13 UNL     1      20.581   8.314  50.122  1.00  0.00     0.117 C 
HETATM   23  O1  UNL     1      21.714   6.620  49.134  1.00  0.00    -0.274 OA
HETATM   24  H10 UNL     1      22.461   7.638  52.062  1.00  0.00     0.169 HD
ENDBRANCH   3  20
TORSDOF 5
ENDMDL
MODEL 9
REMARK VINA RESULT:      -6.9      3.365      7.004
REMARK  5 active torsions:
REMARK  status: ('A' for Active; 'I' for Inactive)
REMARK    1  A    between atoms: C2_2  and  C3_3 
REMARK    2  A    between atoms: C4_4  and  C5_5 
REMARK    3  A    between atoms: C8_9  and  N2_10 
REMARK    4  A    between atoms: N2_10  and  C9_11 
REMARK    5  A    between atoms: C11_13  and  N3_14 
REMARK       I    between atoms: N3_14  and  C12_15 
ROOT
HETATM    1  C9  UNL     1      23.564   6.550  51.136  1.00  0.00     0.057 A 
HETATM    2  C10 UNL     1      24.925   6.426  50.956  1.00  0.00     0.060 A 
HETATM    3  C11 UNL     1      25.541   7.276  50.060  1.00  0.00     0.036 A 
HETATM    4  C14 UNL     1      24.775   8.217  49.380  1.00  0.00     0.030 A 
HETATM    5  C15 UNL     1      23.414   8.299  49.599  1.00  0.00     0.011 A 
HETATM    6  C16 UNL     1      22.766   7.467  50.486  1.00  0.00    -0.035 A 
HETATM    7  C17 UNL     1      21.298   7.497  50.775  1.00  0.00     0.050 C 
ENDROOT
BRANCH   1   8
HETATM    8  N2  UNL     1      22.980   5.658  52.057  1.00  0.00    -0.188 N 
HETATM    9  H8  UNL     1      22.760   5.972  53.045  1.00  0.00     0.184 HD
BRANCH   8  10
HETATM   10  C8  UNL     1      22.529   4.334  52.138  1.00  0.00     0.727 A 
HETATM   11  N1  UNL     1      21.211   4.054  52.173  1.00  0.00    -0.075 NA
HETATM   12  C7  UNL     1      20.873   2.733  52.253  1.00  0.00     0.139 A 
HETATM   13  C6  UNL     1      21.881   1.795  52.292  1.00  0.00     0.052 A 
HETATM   14  C5  UNL     1      23.231   2.063  52.257  1.00  0.00     0.077 A 
HETATM   15  N4  UNL     1      23.498   3.403  52.177  1.00  0.00    -0.063 NA
BRANCH  14  16
HETATM   16  C4  UNL     1      24.294   1.078  52.295  1.00  0.00     0.032 C 
HETATM   17  C3  UNL     1      24.597   0.382  53.350  1.00  0.00     0.002 C 
BRANCH  17  18
HETATM   18  C2  UNL     1      25.680  -0.596  53.327  1.00  0.00    -0.010 C 
HETATM   19  C1  UNL     1      26.560  -0.609  52.357  1.00  0.00     0.011 C 
ENDBRANCH  17  18
ENDBRANCH  14  16
ENDBRANCH   8  10
ENDBRANCH   1   8
BRANCH   3  20
HETATM   20  N3  UNL     1      26.909   7.378  49.675  1.00  0.00    -0.327 N 
HETATM   21  C12 UNL     1      27.266   6.320  48.802  1.00  0.00     0.218 C 
HETATM   22  C13 UNL     1      28.564   6.032  48.160  1.00  0.00     0.117 C 
HETATM   23  O1  UNL     1      26.394   5.477  48.493  1.00  0.00    -0.274 OA
HETATM   24  H10 UNL     1      27.691   8.036  49.883  1.00  0.00     0.169 HD
ENDBRANCH   3  20
TORSDOF 5
ENDMDL
