MODEL 1
REMARK VINA RESULT:      -8.9      0.000      0.000
REMARK  2 active torsions:
REMARK  status: ('A' for Active; 'I' for Inactive)
REMARK    1  A    between atoms: C9_11  and  N2_12 
REMARK    2  A    between atoms: N2_12  and  C10_13 
ROOT
HETATM    1  C1  UNL     1      27.302   1.584  52.903  1.00  0.00     0.048 C 
HETATM    2  C2  UNL     1      25.892   1.317  53.183  1.00  0.00    -0.053 C 
HETATM    3  C3  UNL     1      24.979   2.090  52.556  1.00  0.00     0.012 C 
HETATM    4  C4  UNL     1      24.979   3.213  51.597  1.00  0.00     0.315 C 
HETATM    5  N1  UNL     1      23.529   3.302  51.851  1.00  0.00     0.121 N 
HETATM    6  C5  UNL     1      23.307   4.506  52.674  1.00  0.00     0.314 C 
HETATM    7  C6  UNL     1      23.474   2.076  52.630  1.00  0.00     0.392 C 
HETATM    8  O1  UNL     1      22.836   1.062  52.083  1.00  0.00    -0.338 OA
HETATM    9  C7  UNL     1      22.616  -0.140  52.592  1.00  0.00     0.204 A 
HETATM   10  C8  UNL     1      21.122  -0.357  52.617  1.00  0.00     0.061 A 
HETATM   11  C9  UNL     1      20.557  -0.835  53.686  1.00  0.00     0.120 A 
HETATM   12  N3  UNL     1      21.233  -1.185  54.884  1.00  0.00    -0.262 N 
HETATM   13  N4  UNL     1      22.605  -1.008  54.932  1.00  0.00    -0.175 NA
HETATM   14  C16 UNL     1      23.211  -0.535  53.886  1.00  0.00     0.087 A 
HETATM   15  C17 UNL     1      24.604  -0.538  54.403  1.00  0.00     0.032 C 
HETATM   16  C18 UNL     1      25.719   0.191  54.149  1.00  0.00     0.009 C 
HETATM   17  H16 UNL     1      20.750  -1.566  55.727  1.00  0.00     0.191 HD
ENDROOT
BRANCH  11  18
HETATM   18  N2  UNL     1      19.160  -1.049  53.735  1.00  0.00    -0.342 N 
HETATM   19  H12 UNL     1      18.802  -0.363  54.464  1.00  0.00     0.167 HD
BRANCH  18  20
HETATM   20  C10 UNL     1      17.963  -1.683  53.339  1.00  0.00     0.035 A 
HETATM   21  C11 UNL     1      17.074  -0.936  52.583  1.00  0.00     0.032 A 
HETATM   22  C12 UNL     1      15.876  -1.540  52.174  1.00  0.00     0.046 A 
HETATM   23  C13 UNL     1      15.707  -2.844  52.577  1.00  0.00     0.138 A 
HETATM   24  F1  UNL     1      14.524  -3.380  52.151  1.00  0.00    -0.204 F 
HETATM   25  C14 UNL     1      16.566  -3.608  53.322  1.00  0.00     0.074 A 
HETATM   26 CL1  UNL     1      16.112  -5.277  53.709  1.00  0.00    -0.081 Cl
HETATM   27  C15 UNL     1      17.734  -2.994  53.712  1.00  0.00     0.056 A 
ENDBRANCH  18  20
ENDBRANCH  11  18
TORSDOF 2
ENDMDL
MODEL 2
REMARK VINA RESULT:      -8.8      7.385     11.023
REMARK  2 active torsions:
REMARK  status: ('A' for Active; 'I' for Inactive)
REMARK    1  A    between atoms: C9_11  and  N2_12 
REMARK    2  A    between atoms: N2_12  and  C10_13 
ROOT
HETATM    1  C1  UNL     1      23.775  -0.545  53.717  1.00  0.00     0.048 C 
HETATM    2  C2  UNL     1      24.406   0.627  53.113  1.00  0.00    -0.053 C 
HETATM    3  C3  UNL     1      25.743   0.583  52.924  1.00  0.00     0.012 C 
HETATM    4  C4  UNL     1      26.845  -0.371  53.165  1.00  0.00     0.315 C 
HETATM    5  N1  UNL     1      27.750   0.728  52.781  1.00  0.00     0.121 N 
HETATM    6  C5  UNL     1      28.402   1.204  54.016  1.00  0.00     0.314 C 
HETATM    7  C6  UNL     1      26.680   1.608  52.341  1.00  0.00     0.392 C 
HETATM    8  O1  UNL     1      26.611   1.846  51.048  1.00  0.00    -0.338 OA
HETATM    9  C7  UNL     1      25.762   2.630  50.401  1.00  0.00     0.204 A 
HETATM   10  C8  UNL     1      26.574   3.658  49.651  1.00  0.00     0.061 A 
HETATM   11  C9  UNL     1      26.230   4.912  49.698  1.00  0.00     0.120 A 
HETATM   12  N3  UNL     1      25.123   5.431  50.418  1.00  0.00    -0.262 N 
HETATM   13  N4  UNL     1      24.336   4.544  51.132  1.00  0.00    -0.175 NA
HETATM   14  C16 UNL     1      24.643   3.282  51.112  1.00  0.00     0.087 A 
HETATM   15  C17 UNL     1      23.552   2.765  51.977  1.00  0.00     0.032 C 
HETATM   16  C18 UNL     1      23.412   1.697  52.803  1.00  0.00     0.009 C 
HETATM   17  H16 UNL     1      24.873   6.444  50.437  1.00  0.00     0.191 HD
ENDROOT
BRANCH  11  18
HETATM   18  N2  UNL     1      26.972   5.894  49.003  1.00  0.00    -0.342 N 
HETATM   19  H12 UNL     1      26.374   6.773  49.047  1.00  0.00     0.167 HD
BRANCH  18  20
HETATM   20  C10 UNL     1      28.089   6.355  48.273  1.00  0.00     0.035 A 
HETATM   21  C11 UNL     1      27.917   7.503  47.517  1.00  0.00     0.032 A 
HETATM   22  C12 UNL     1      29.010   7.985  46.782  1.00  0.00     0.046 A 
HETATM   23  C13 UNL     1      30.166   7.248  46.893  1.00  0.00     0.138 A 
HETATM   24  F1  UNL     1      31.195   7.764  46.156  1.00  0.00    -0.204 F 
HETATM   25  C14 UNL     1      30.366   6.112  47.632  1.00  0.00     0.074 A 
HETATM   26 CL1  UNL     1      31.964   5.345  47.608  1.00  0.00    -0.081 Cl
HETATM   27  C15 UNL     1      29.280   5.658  48.344  1.00  0.00     0.056 A 
ENDBRANCH  18  20
ENDBRANCH  11  18
TORSDOF 2
ENDMDL
MODEL 3
REMARK VINA RESULT:      -8.7      1.087      1.464
REMARK  2 active torsions:
REMARK  status: ('A' for Active; 'I' for Inactive)
REMARK    1  A    between atoms: C9_11  and  N2_12 
REMARK    2  A    between atoms: N2_12  and  C10_13 
ROOT
HETATM    1  C1  UNL     1      27.350   1.388  52.961  1.00  0.00     0.048 C 
HETATM    2  C2  UNL     1      25.930   1.159  53.225  1.00  0.00    -0.053 C 
HETATM    3  C3  UNL     1      25.045   1.953  52.584  1.00  0.00     0.012 C 
HETATM    4  C4  UNL     1      25.087   3.072  51.620  1.00  0.00     0.315 C 
HETATM    5  N1  UNL     1      23.637   3.201  51.855  1.00  0.00     0.121 N 
HETATM    6  C5  UNL     1      23.438   4.414  52.670  1.00  0.00     0.314 C 
HETATM    7  C6  UNL     1      23.541   1.980  52.639  1.00  0.00     0.392 C 
HETATM    8  O1  UNL     1      22.882   0.981  52.089  1.00  0.00    -0.338 OA
HETATM    9  C7  UNL     1      22.624  -0.213  52.601  1.00  0.00     0.204 A 
HETATM   10  C8  UNL     1      21.125  -0.389  52.608  1.00  0.00     0.061 A 
HETATM   11  C9  UNL     1      20.534  -0.847  53.672  1.00  0.00     0.120 A 
HETATM   12  N3  UNL     1      21.186  -1.209  54.880  1.00  0.00    -0.262 N 
HETATM   13  N4  UNL     1      22.562  -1.069  54.944  1.00  0.00    -0.175 NA
HETATM   14  C16 UNL     1      23.193  -0.617  53.903  1.00  0.00     0.087 A 
HETATM   15  C17 UNL     1      24.578  -0.654  54.437  1.00  0.00     0.032 C 
HETATM   16  C18 UNL     1      25.716   0.043  54.194  1.00  0.00     0.009 C 
HETATM   17  H16 UNL     1      20.683  -1.573  55.719  1.00  0.00     0.191 HD
ENDROOT
BRANCH  11  18
HETATM   18  N2  UNL     1      19.131  -1.024  53.705  1.00  0.00    -0.342 N 
HETATM   19  H12 UNL     1      18.781  -0.313  54.413  1.00  0.00     0.167 HD
BRANCH  18  20
HETATM   20  C10 UNL     1      17.924  -1.635  53.305  1.00  0.00     0.035 A 
HETATM   21  C11 UNL     1      17.727  -2.952  53.685  1.00  0.00     0.032 A 
HETATM   22  C12 UNL     1      16.535  -3.584  53.303  1.00  0.00     0.046 A 
HETATM   23  C13 UNL     1      15.665  -2.810  52.573  1.00  0.00     0.138 A 
HETATM   24  F1  UNL     1      14.523  -3.478  52.229  1.00  0.00    -0.204 F 
HETATM   25  C14 UNL     1      15.830  -1.507  52.183  1.00  0.00     0.074 A 
HETATM   26 CL1  UNL     1      14.548  -0.726  51.241  1.00  0.00    -0.081 Cl
HETATM   27  C15 UNL     1      17.007  -0.908  52.569  1.00  0.00     0.056 A 
ENDBRANCH  18  20
ENDBRANCH  11  18
TORSDOF 2
ENDMDL
MODEL 4
REMARK VINA RESULT:      -8.6      6.174      9.815
REMARK  2 active torsions:
REMARK  status: ('A' for Active; 'I' for Inactive)
REMARK    1  A    between atoms: C9_11  and  N2_12 
REMARK    2  A    between atoms: N2_12  and  C10_13 
ROOT
HETATM    1  C1  UNL     1      22.229  -1.238  54.970  1.00  0.00     0.048 C 
HETATM    2  C2  UNL     1      22.757  -0.406  53.890  1.00  0.00    -0.053 C 
HETATM    3  C3  UNL     1      21.874   0.349  53.201  1.00  0.00     0.012 C 
HETATM    4  C4  UNL     1      20.419   0.604  53.212  1.00  0.00     0.315 C 
HETATM    5  N1  UNL     1      20.640   1.357  51.964  1.00  0.00     0.121 N 
HETATM    6  C5  UNL     1      20.101   0.538  50.863  1.00  0.00     0.314 C 
HETATM    7  C6  UNL     1      22.090   1.294  52.048  1.00  0.00     0.392 C 
HETATM    8  O1  UNL     1      22.714   2.429  52.286  1.00  0.00    -0.338 OA
HETATM    9  C7  UNL     1      24.016   2.648  52.375  1.00  0.00     0.204 A 
HETATM   10  C8  UNL     1      24.375   3.688  51.342  1.00  0.00     0.061 A 
HETATM   11  C9  UNL     1      25.411   3.509  50.577  1.00  0.00     0.120 A 
HETATM   12  N3  UNL     1      26.273   2.383  50.617  1.00  0.00    -0.262 N 
HETATM   13  N4  UNL     1      26.001   1.386  51.539  1.00  0.00    -0.175 NA
HETATM   14  C16 UNL     1      24.977   1.525  52.324  1.00  0.00     0.087 A 
HETATM   15  C17 UNL     1      25.105   0.264  53.098  1.00  0.00     0.032 C 
HETATM   16  C18 UNL     1      24.237  -0.551  53.748  1.00  0.00     0.009 C 
HETATM   17  H16 UNL     1      27.098   2.267  49.988  1.00  0.00     0.191 HD
ENDROOT
BRANCH  11  18
HETATM   18  N2  UNL     1      25.769   4.470  49.603  1.00  0.00    -0.342 N 
HETATM   19  H12 UNL     1      24.869   4.676  49.076  1.00  0.00     0.167 HD
BRANCH  18  20
HETATM   20  C10 UNL     1      26.680   5.318  48.938  1.00  0.00     0.035 A 
HETATM   21  C11 UNL     1      26.206   6.552  48.525  1.00  0.00     0.032 A 
HETATM   22  C12 UNL     1      27.089   7.416  47.862  1.00  0.00     0.046 A 
HETATM   23  C13 UNL     1      28.365   6.935  47.688  1.00  0.00     0.138 A 
HETATM   24  F1  UNL     1      29.180   7.819  47.037  1.00  0.00    -0.204 F 
HETATM   25  C14 UNL     1      28.864   5.722  48.085  1.00  0.00     0.074 A 
HETATM   26 CL1  UNL     1      30.559   5.338  47.741  1.00  0.00    -0.081 Cl
HETATM   27  C15 UNL     1      27.978   4.891  48.733  1.00  0.00     0.056 A 
ENDBRANCH  18  20
ENDBRANCH  11  18
TORSDOF 2
ENDMDL
MODEL 5
REMARK VINA RESULT:      -8.4      6.181      8.454
REMARK  2 active torsions:
REMARK  status: ('A' for Active; 'I' for Inactive)
REMARK    1  A    between atoms: C9_11  and  N2_12 
REMARK    2  A    between atoms: N2_12  and  C10_13 
ROOT
HETATM    1  C1  UNL     1      20.415   7.150  49.805  1.00  0.00     0.048 C 
HETATM    2  C2  UNL     1      21.378   6.121  50.194  1.00  0.00    -0.053 C 
HETATM    3  C3  UNL     1      22.622   6.530  50.524  1.00  0.00     0.012 C 
HETATM    4  C4  UNL     1      23.359   7.807  50.615  1.00  0.00     0.315 C 
HETATM    5  N1  UNL     1      24.563   6.984  50.835  1.00  0.00     0.121 N 
HETATM    6  C5  UNL     1      25.365   7.050  49.599  1.00  0.00     0.314 C 
HETATM    7  C6  UNL     1      23.827   5.737  50.957  1.00  0.00     0.392 C 
HETATM    8  O1  UNL     1      23.807   5.181  52.151  1.00  0.00    -0.338 OA
HETATM    9  C7  UNL     1      23.243   4.040  52.517  1.00  0.00     0.204 A 
HETATM   10  C8  UNL     1      24.326   3.164  53.099  1.00  0.00     0.061 A 
HETATM   11  C9  UNL     1      24.410   1.917  52.739  1.00  0.00     0.120 A 
HETATM   12  N3  UNL     1      23.551   1.272  51.812  1.00  0.00    -0.262 N 
HETATM   13  N4  UNL     1      22.537   2.018  51.236  1.00  0.00    -0.175 NA
HETATM   14  C16 UNL     1      22.415   3.267  51.568  1.00  0.00     0.087 A 
HETATM   15  C17 UNL     1      21.237   3.616  50.732  1.00  0.00     0.032 C 
HETATM   16  C18 UNL     1      20.778   4.754  50.155  1.00  0.00     0.009 C 
HETATM   17  H16 UNL     1      23.645   0.268  51.542  1.00  0.00     0.191 HD
ENDROOT
BRANCH  11  18
HETATM   18  N2  UNL     1      25.414   1.075  53.270  1.00  0.00    -0.342 N 
HETATM   19  H12 UNL     1      24.907   0.442  53.958  1.00  0.00     0.167 HD
BRANCH  18  20
HETATM   20  C10 UNL     1      26.740   0.606  53.389  1.00  0.00     0.035 A 
HETATM   21  C11 UNL     1      27.707   1.533  53.741  1.00  0.00     0.032 A 
HETATM   22  C12 UNL     1      29.034   1.095  53.867  1.00  0.00     0.046 A 
HETATM   23  C13 UNL     1      29.239  -0.242  53.623  1.00  0.00     0.138 A 
HETATM   24  F1  UNL     1      30.548  -0.611  53.760  1.00  0.00    -0.204 F 
HETATM   25  C14 UNL     1      28.304  -1.182  53.275  1.00  0.00     0.074 A 
HETATM   26 CL1  UNL     1      28.828  -2.855  53.015  1.00  0.00    -0.081 Cl
HETATM   27  C15 UNL     1      27.010  -0.729  53.156  1.00  0.00     0.056 A 
ENDBRANCH  18  20
ENDBRANCH  11  18
TORSDOF 2
ENDMDL
MODEL 6
REMARK VINA RESULT:      -8.0      6.239      9.108
REMARK  2 active torsions:
REMARK  status: ('A' for Active; 'I' for Inactive)
REMARK    1  A    between atoms: C9_11  and  N2_12 
REMARK    2  A    between atoms: N2_12  and  C10_13 
ROOT
HETATM    1  C1  UNL     1      20.302   6.202  46.505  1.00  0.00     0.048 C 
HETATM    2  C2  UNL     1      21.266   5.804  47.529  1.00  0.00    -0.053 C 
HETATM    3  C3  UNL     1      20.880   4.851  48.405  1.00  0.00     0.012 C 
HETATM    4  C4  UNL     1      19.681   4.026  48.658  1.00  0.00     0.315 C 
HETATM    5  N1  UNL     1      20.357   3.595  49.895  1.00  0.00     0.121 N 
HETATM    6  C5  UNL     1      19.668   4.259  51.018  1.00  0.00     0.314 C 
HETATM    7  C6  UNL     1      21.621   4.232  49.562  1.00  0.00     0.392 C 
HETATM    8  O1  UNL     1      22.630   3.429  49.294  1.00  0.00    -0.338 OA
HETATM    9  C7  UNL     1      23.880   3.751  48.999  1.00  0.00     0.204 A 
HETATM   10  C8  UNL     1      24.773   3.089  50.019  1.00  0.00     0.061 A 
HETATM   11  C9  UNL     1      25.725   3.771  50.583  1.00  0.00     0.120 A 
HETATM   12  N3  UNL     1      26.018   5.136  50.326  1.00  0.00    -0.262 N 
HETATM   13  N4  UNL     1      25.235   5.807  49.402  1.00  0.00    -0.175 NA
HETATM   14  C16 UNL     1      24.274   5.163  48.814  1.00  0.00     0.087 A 
HETATM   15  C17 UNL     1      23.757   6.256  47.951  1.00  0.00     0.032 C 
HETATM   16  C18 UNL     1      22.550   6.556  47.408  1.00  0.00     0.009 C 
HETATM   17  H16 UNL     1      26.790   5.657  50.797  1.00  0.00     0.191 HD
ENDROOT
BRANCH  11  18
HETATM   18  N2  UNL     1      26.577   3.174  51.541  1.00  0.00    -0.342 N 
HETATM   19  H12 UNL     1      27.049   3.989  52.035  1.00  0.00     0.167 HD
BRANCH  18  20
HETATM   20  C10 UNL     1      27.151   2.073  52.211  1.00  0.00     0.035 A 
HETATM   21  C11 UNL     1      28.182   2.342  53.097  1.00  0.00     0.032 A 
HETATM   22  C12 UNL     1      28.771   1.267  53.778  1.00  0.00     0.046 A 
HETATM   23  C13 UNL     1      28.249   0.028  53.489  1.00  0.00     0.138 A 
HETATM   24  F1  UNL     1      28.861  -0.979  54.181  1.00  0.00    -0.204 F 
HETATM   25  C14 UNL     1      27.231  -0.269  52.620  1.00  0.00     0.074 A 
HETATM   26 CL1  UNL     1      26.739  -1.960  52.424  1.00  0.00    -0.081 Cl
HETATM   27  C15 UNL     1      26.670   0.802  51.963  1.00  0.00     0.056 A 
ENDBRANCH  18  20
ENDBRANCH  11  18
TORSDOF 2
ENDMDL
MODEL 7
REMARK VINA RESULT:      -8.0      9.347     13.635
REMARK  2 active torsions:
REMARK  status: ('A' for Active; 'I' for Inactive)
REMARK    1  A    between atoms: C9_11  and  N2_12 
REMARK    2  A    between atoms: N2_12  and  C10_13 
ROOT
HETATM    1  C1  UNL     1      23.043   8.003  49.549  1.00  0.00     0.048 C 
HETATM    2  C2  UNL     1      24.474   7.703  49.545  1.00  0.00    -0.053 C 
HETATM    3  C3  UNL     1      24.837   6.417  49.343  1.00  0.00     0.012 C 
HETATM    4  C4  UNL     1      24.167   5.122  49.105  1.00  0.00     0.315 C 
HETATM    5  N1  UNL     1      25.501   4.514  49.260  1.00  0.00     0.121 N 
HETATM    6  C5  UNL     1      25.517   3.832  50.567  1.00  0.00     0.314 C 
HETATM    7  C6  UNL     1      26.203   5.787  49.286  1.00  0.00     0.392 C 
HETATM    8  O1  UNL     1      26.968   6.057  48.249  1.00  0.00    -0.338 OA
HETATM    9  C7  UNL     1      27.732   7.119  48.045  1.00  0.00     0.204 A 
HETATM   10  C8  UNL     1      29.146   6.631  47.844  1.00  0.00     0.061 A 
HETATM   11  C9  UNL     1      30.126   7.217  48.467  1.00  0.00     0.120 A 
HETATM   12  N3  UNL     1      29.991   8.313  49.358  1.00  0.00    -0.262 N 
HETATM   13  N4  UNL     1      28.721   8.810  49.592  1.00  0.00    -0.175 NA
HETATM   14  C16 UNL     1      27.713   8.256  48.989  1.00  0.00     0.087 A 
HETATM   15  C17 UNL     1      26.622   9.106  49.532  1.00  0.00     0.032 C 
HETATM   16  C18 UNL     1      25.300   8.925  49.774  1.00  0.00     0.009 C 
HETATM   17  H16 UNL     1      30.799   8.761  49.844  1.00  0.00     0.191 HD
ENDROOT
BRANCH  11  18
HETATM   18  N2  UNL     1      31.460   6.780  48.294  1.00  0.00    -0.342 N 
HETATM   19  H12 UNL     1      32.055   7.650  48.437  1.00  0.00     0.167 HD
BRANCH  18  20
HETATM   20  C10 UNL     1      32.449   5.808  48.033  1.00  0.00     0.035 A 
HETATM   21  C11 UNL     1      33.771   6.213  48.124  1.00  0.00     0.032 A 
HETATM   22  C12 UNL     1      34.775   5.268  47.871  1.00  0.00     0.046 A 
HETATM   23  C13 UNL     1      34.330   4.006  47.552  1.00  0.00     0.138 A 
HETATM   24  F1  UNL     1      35.351   3.129  47.315  1.00  0.00    -0.204 F 
HETATM   25  C14 UNL     1      33.033   3.576  47.455  1.00  0.00     0.074 A 
HETATM   26 CL1  UNL     1      32.721   1.885  47.026  1.00  0.00    -0.081 Cl
HETATM   27  C15 UNL     1      32.065   4.521  47.707  1.00  0.00     0.056 A 
ENDBRANCH  18  20
ENDBRANCH  11  18
TORSDOF 2
ENDMDL
MODEL 8
REMARK VINA RESULT:      -7.9      3.935      6.607
REMARK  2 active torsions:
REMARK  status: ('A' for Active; 'I' for Inactive)
REMARK    1  A    between atoms: C9_11  and  N2_12 
REMARK    2  A    between atoms: N2_12  and  C10_13 
ROOT
HETATM    1  C1  UNL     1      25.627   8.317  46.879  1.00  0.00     0.048 C 
HETATM    2  C2  UNL     1      25.394   7.293  47.896  1.00  0.00    -0.053 C 
HETATM    3  C3  UNL     1      24.131   7.152  48.355  1.00  0.00     0.012 C 
HETATM    4  C4  UNL     1      22.812   7.774  48.119  1.00  0.00     0.315 C 
HETATM    5  N1  UNL     1      22.342   6.983  49.271  1.00  0.00     0.121 N 
HETATM    6  C5  UNL     1      22.157   7.921  50.394  1.00  0.00     0.314 C 
HETATM    7  C6  UNL     1      23.568   6.210  49.386  1.00  0.00     0.392 C 
HETATM    8  O1  UNL     1      23.487   4.932  49.080  1.00  0.00    -0.338 OA
HETATM    9  C7  UNL     1      24.438   4.012  49.133  1.00  0.00     0.204 A 
HETATM   10  C8  UNL     1      23.959   2.915  50.053  1.00  0.00     0.061 A 
HETATM   11  C9  UNL     1      24.758   2.442  50.963  1.00  0.00     0.120 A 
HETATM   12  N3  UNL     1      26.090   2.875  51.190  1.00  0.00    -0.262 N 
HETATM   13  N4  UNL     1      26.593   3.882  50.384  1.00  0.00    -0.175 NA
HETATM   14  C16 UNL     1      25.830   4.383  49.461  1.00  0.00     0.087 A 
HETATM   15  C17 UNL     1      26.778   5.373  48.889  1.00  0.00     0.032 C 
HETATM   16  C18 UNL     1      26.647   6.562  48.248  1.00  0.00     0.009 C 
HETATM   17  H16 UNL     1      26.707   2.475  51.931  1.00  0.00     0.191 HD
ENDROOT
BRANCH  11  18
HETATM   18  N2  UNL     1      24.334   1.413  51.836  1.00  0.00    -0.342 N 
HETATM   19  H12 UNL     1      25.232   0.974  52.199  1.00  0.00     0.167 HD
BRANCH  18  20
HETATM   20  C10 UNL     1      23.359   0.639  52.500  1.00  0.00     0.035 A 
HETATM   21  C11 UNL     1      23.785  -0.128  53.572  1.00  0.00     0.032 A 
HETATM   22  C12 UNL     1      22.837  -0.907  54.251  1.00  0.00     0.046 A 
HETATM   23  C13 UNL     1      21.551  -0.823  53.770  1.00  0.00     0.138 A 
HETATM   24  F1  UNL     1      20.672  -1.602  54.470  1.00  0.00    -0.204 F 
HETATM   25  C14 UNL     1      21.100  -0.074  52.715  1.00  0.00     0.074 A 
HETATM   26 CL1  UNL     1      19.380  -0.139  52.292  1.00  0.00    -0.081 Cl
HETATM   27  C15 UNL     1      22.048   0.681  52.064  1.00  0.00     0.056 A 
ENDBRANCH  18  20
ENDBRANCH  11  18
TORSDOF 2
ENDMDL
MODEL 9
REMARK VINA RESULT:      -7.8      7.796     12.005
REMARK  2 active torsions:
REMARK  status: ('A' for Active; 'I' for Inactive)
REMARK    1  A    between atoms: C9_11  and  N2_12 
REMARK    2  A    between atoms: N2_12  and  C10_13 
ROOT
HETATM    1  C1  UNL     1      21.840   0.856  51.054  1.00  0.00     0.048 C 
HETATM    2  C2  UNL     1      22.858   1.886  50.853  1.00  0.00    -0.053 C 
HETATM    3  C3  UNL     1      24.028   1.737  51.511  1.00  0.00     0.012 C 
HETATM    4  C4  UNL     1      24.634   0.768  52.448  1.00  0.00     0.315 C 
HETATM    5  N1  UNL     1      25.731   1.742  52.593  1.00  0.00     0.121 N 
HETATM    6  C5  UNL     1      25.588   2.360  53.925  1.00  0.00     0.314 C 
HETATM    7  C6  UNL     1      25.258   2.606  51.524  1.00  0.00     0.392 C 
HETATM    8  O1  UNL     1      25.997   2.651  50.435  1.00  0.00    -0.338 OA
HETATM    9  C7  UNL     1      25.808   3.377  49.344  1.00  0.00     0.204 A 
HETATM   10  C8  UNL     1      27.037   4.232  49.148  1.00  0.00     0.061 A 
HETATM   11  C9  UNL     1      26.906   5.496  48.871  1.00  0.00     0.120 A 
HETATM   12  N3  UNL     1      25.670   6.180  48.732  1.00  0.00    -0.262 N 
HETATM   13  N4  UNL     1      24.502   5.457  48.903  1.00  0.00    -0.175 NA
HETATM   14  C16 UNL     1      24.587   4.192  49.179  1.00  0.00     0.087 A 
HETATM   15  C17 UNL     1      23.137   3.874  49.255  1.00  0.00     0.032 C 
HETATM   16  C18 UNL     1      22.394   2.953  49.917  1.00  0.00     0.009 C 
HETATM   17  H16 UNL     1      25.598   7.198  48.511  1.00  0.00     0.191 HD
ENDROOT
BRANCH  11  18
HETATM   18  N2  UNL     1      28.040   6.318  48.681  1.00  0.00    -0.342 N 
HETATM   19  H12 UNL     1      27.718   7.297  48.946  1.00  0.00     0.167 HD
BRANCH  18  20
HETATM   20  C10 UNL     1      29.386   6.556  48.329  1.00  0.00     0.035 A 
HETATM   21  C11 UNL     1      30.136   5.461  47.932  1.00  0.00     0.032 A 
HETATM   22  C12 UNL     1      31.477   5.667  47.575  1.00  0.00     0.046 A 
HETATM   23  C13 UNL     1      31.916   6.968  47.658  1.00  0.00     0.138 A 
HETATM   24  F1  UNL     1      33.227   7.108  47.299  1.00  0.00    -0.204 F 
HETATM   25  C14 UNL     1      31.199   8.070  48.046  1.00  0.00     0.074 A 
HETATM   26 CL1  UNL     1      32.001   9.649  48.067  1.00  0.00    -0.081 Cl
HETATM   27  C15 UNL     1      29.886   7.842  48.392  1.00  0.00     0.056 A 
ENDBRANCH  18  20
ENDBRANCH  11  18
TORSDOF 2
ENDMDL
