MODEL 1
REMARK VINA RESULT:      -8.7      0.000      0.000
REMARK  7 active torsions:
REMARK  status: ('A' for Active; 'I' for Inactive)
REMARK    1  A    between atoms: C2_2  and  C3_3 
REMARK    2  A    between atoms: C5_6  and  C6_7 
REMARK    3  A    between atoms: C6_7  and  N1_8 
REMARK    4  A    between atoms: C11_13  and  C12_14 
REMARK    5  A    between atoms: C12_14  and  C13_15 
REMARK    6  A    between atoms: C13_15  and  O1_16 
REMARK    7  A    between atoms: C21_27  and  N5_28 
ROOT
HETATM    1  C3  UNL     1      25.225   1.650  52.898  1.00  0.00     0.070 C 
HETATM    2  C4  UNL     1      24.296   2.636  52.723  1.00  0.00     0.124 C 
HETATM    3  F1  UNL     1      24.728   3.474  53.724  1.00  0.00    -0.208 F 
HETATM    4  C5  UNL     1      23.143   3.414  52.229  1.00  0.00     0.069 C 
HETATM    5  C15 UNL     1      22.300   2.703  51.191  1.00  0.00     0.036 C 
HETATM    6  C16 UNL     1      21.760   1.461  51.826  1.00  0.00     0.231 C 
HETATM    7  N3  UNL     1      21.161   0.376  52.307  1.00  0.00    -0.304 NA
HETATM    8  C17 UNL     1      22.100  -0.222  53.297  1.00  0.00     0.002 A 
HETATM    9  C18 UNL     1      23.394  -0.226  52.869  1.00  0.00     0.039 A 
HETATM   10  C19 UNL     1      24.424  -0.739  53.765  1.00  0.00     0.025 A 
HETATM   11  C20 UNL     1      25.543  -0.616  53.112  1.00  0.00     0.099 C 
HETATM   12  N4  UNL     1      25.634   0.402  52.306  1.00  0.00    -0.247 NA
HETATM   13  C21 UNL     1      24.013  -1.215  55.046  1.00  0.00     0.060 A 
HETATM   14  C22 UNL     1      22.607  -1.180  55.424  1.00  0.00     0.033 A 
HETATM   15  C23 UNL     1      21.688  -0.711  54.604  1.00  0.00     0.025 A 
ENDROOT
BRANCH   4  16
HETATM   16  C6  UNL     1      23.723   4.681  51.686  1.00  0.00     0.129 C 
BRANCH  16  17
HETATM   17  N1  UNL     1      24.337   4.722  50.454  1.00  0.00    -0.402 N 
HETATM   18  C7  UNL     1      25.266   3.789  50.000  1.00  0.00     0.117 C 
HETATM   19  C8  UNL     1      26.549   4.401  49.453  1.00  0.00     0.019 C 
HETATM   20  C9  UNL     1      26.232   5.696  48.806  1.00  0.00     0.004 C 
HETATM   21  C10 UNL     1      24.826   5.901  48.363  1.00  0.00     0.031 C 
HETATM   22  C11 UNL     1      23.804   5.531  49.417  1.00  0.00     0.129 C 
BRANCH  22  23
HETATM   23  C12 UNL     1      23.134   6.785  49.919  1.00  0.00     0.052 C 
HETATM   24  N2  UNL     1      21.864   6.721  49.996  1.00  0.00    -0.299 NA
HETATM   25  C14 UNL     1      21.028   7.788  50.442  1.00  0.00     0.177 C 
BRANCH  23  26
HETATM   26  C13 UNL     1      24.143   7.847  50.213  1.00  0.00     0.220 C 
BRANCH  26  27
HETATM   27  O1  UNL     1      24.232   7.933  51.617  1.00  0.00    -0.395 OA
HETATM   28  H18 UNL     1      23.354   7.765  52.035  1.00  0.00     0.209 HD
ENDBRANCH  26  27
ENDBRANCH  23  26
ENDBRANCH  22  23
ENDBRANCH  16  17
ENDBRANCH   4  16
BRANCH   1  29
HETATM   29  C2  UNL     1      26.016   2.239  54.065  1.00  0.00     0.025 C 
HETATM   30  C1  UNL     1      27.333   2.198  53.676  1.00  0.00     0.043 C 
ENDBRANCH   1  29
BRANCH  13  31
HETATM   31  N5  UNL     1      25.020  -1.636  55.729  1.00  0.00    -0.299 NA
HETATM   32  H26 UNL     1      25.729  -2.267  55.299  1.00  0.00     0.187 HD
ENDBRANCH  13  31
TORSDOF 7
ENDMDL
MODEL 2
REMARK VINA RESULT:      -8.6      1.088      2.384
REMARK  7 active torsions:
REMARK  status: ('A' for Active; 'I' for Inactive)
REMARK    1  A    between atoms: C2_2  and  C3_3 
REMARK    2  A    between atoms: C5_6  and  C6_7 
REMARK    3  A    between atoms: C6_7  and  N1_8 
REMARK    4  A    between atoms: C11_13  and  C12_14 
REMARK    5  A    between atoms: C12_14  and  C13_15 
REMARK    6  A    between atoms: C13_15  and  O1_16 
REMARK    7  A    between atoms: C21_27  and  N5_28 
ROOT
HETATM    1  C3  UNL     1      25.526   1.425  52.752  1.00  0.00     0.070 C 
HETATM    2  C4  UNL     1      24.586   2.333  52.352  1.00  0.00     0.124 C 
HETATM    3  F1  UNL     1      24.892   3.323  53.255  1.00  0.00    -0.208 F 
HETATM    4  C5  UNL     1      23.462   2.979  51.647  1.00  0.00     0.069 C 
HETATM    5  C15 UNL     1      22.746   2.089  50.651  1.00  0.00     0.036 C 
HETATM    6  C16 UNL     1      22.188   0.927  51.409  1.00  0.00     0.231 C 
HETATM    7  N3  UNL     1      21.581  -0.106  51.988  1.00  0.00    -0.304 NA
HETATM    8  C17 UNL     1      22.440  -0.513  53.134  1.00  0.00     0.002 A 
HETATM    9  C18 UNL     1      23.768  -0.518  52.830  1.00  0.00     0.039 A 
HETATM   10  C19 UNL     1      24.723  -0.851  53.882  1.00  0.00     0.025 A 
HETATM   11  C20 UNL     1      25.895  -0.770  53.322  1.00  0.00     0.099 C 
HETATM   12  N4  UNL     1      26.030   0.126  52.388  1.00  0.00    -0.247 NA
HETATM   13  C21 UNL     1      24.207  -1.159  55.175  1.00  0.00     0.060 A 
HETATM   14  C22 UNL     1      22.771  -1.135  55.415  1.00  0.00     0.033 A 
HETATM   15  C23 UNL     1      21.920  -0.830  54.456  1.00  0.00     0.025 A 
ENDROOT
BRANCH   4  16
HETATM   16  C6  UNL     1      24.050   4.181  50.980  1.00  0.00     0.129 C 
BRANCH  16  17
HETATM   17  N1  UNL     1      23.454   5.419  51.072  1.00  0.00    -0.402 N 
HETATM   18  C7  UNL     1      22.175   5.648  51.574  1.00  0.00     0.117 C 
HETATM   19  C8  UNL     1      21.289   6.490  50.666  1.00  0.00     0.019 C 
HETATM   20  C9  UNL     1      22.128   7.476  49.946  1.00  0.00     0.004 C 
HETATM   21  C10 UNL     1      23.442   7.813  50.557  1.00  0.00     0.031 C 
HETATM   22  C11 UNL     1      24.239   6.598  50.982  1.00  0.00     0.129 C 
BRANCH  22  23
HETATM   23  C12 UNL     1      25.438   6.452  50.079  1.00  0.00     0.052 C 
HETATM   24  N2  UNL     1      25.766   5.251  49.813  1.00  0.00    -0.299 NA
HETATM   25  C14 UNL     1      26.866   4.879  48.982  1.00  0.00     0.177 C 
BRANCH  23  26
HETATM   26  C13 UNL     1      25.985   7.790  49.699  1.00  0.00     0.220 C 
BRANCH  26  27
HETATM   27  O1  UNL     1      26.828   8.190  50.755  1.00  0.00    -0.395 OA
HETATM   28  H18 UNL     1      27.713   8.462  50.413  1.00  0.00     0.209 HD
ENDBRANCH  26  27
ENDBRANCH  23  26
ENDBRANCH  22  23
ENDBRANCH  16  17
ENDBRANCH   4  16
BRANCH   1  29
HETATM   29  C2  UNL     1      26.181   2.210  53.887  1.00  0.00     0.025 C 
HETATM   30  C1  UNL     1      27.524   2.231  53.594  1.00  0.00     0.043 C 
ENDBRANCH   1  29
BRANCH  13  31
HETATM   31  N5  UNL     1      25.156  -1.432  56.001  1.00  0.00    -0.299 NA
HETATM   32  H26 UNL     1      26.153  -1.295  55.730  1.00  0.00     0.187 HD
ENDBRANCH  13  31
TORSDOF 7
ENDMDL
MODEL 3
REMARK VINA RESULT:      -8.3      2.378      7.285
REMARK  7 active torsions:
REMARK  status: ('A' for Active; 'I' for Inactive)
REMARK    1  A    between atoms: C2_2  and  C3_3 
REMARK    2  A    between atoms: C5_6  and  C6_7 
REMARK    3  A    between atoms: C6_7  and  N1_8 
REMARK    4  A    between atoms: C11_13  and  C12_14 
REMARK    5  A    between atoms: C12_14  and  C13_15 
REMARK    6  A    between atoms: C13_15  and  O1_16 
REMARK    7  A    between atoms: C21_27  and  N5_28 
ROOT
HETATM    1  C3  UNL     1      23.431   3.583  50.988  1.00  0.00     0.070 C 
HETATM    2  C4  UNL     1      24.743   3.321  51.262  1.00  0.00     0.124 C 
HETATM    3  F1  UNL     1      24.641   3.291  52.633  1.00  0.00    -0.208 F 
HETATM    4  C5  UNL     1      26.191   3.073  51.117  1.00  0.00     0.069 C 
HETATM    5  C15 UNL     1      26.713   3.195  49.699  1.00  0.00     0.036 C 
HETATM    6  C16 UNL     1      26.453   4.596  49.245  1.00  0.00     0.231 C 
HETATM    7  N3  UNL     1      26.345   5.831  48.763  1.00  0.00    -0.304 NA
HETATM    8  C17 UNL     1      25.092   6.400  49.335  1.00  0.00     0.002 A 
HETATM    9  C18 UNL     1      24.055   5.516  49.331  1.00  0.00     0.039 A 
HETATM   10  C19 UNL     1      22.782   5.933  49.910  1.00  0.00     0.025 A 
HETATM   11  C20 UNL     1      21.992   4.907  49.780  1.00  0.00     0.099 C 
HETATM   12  N4  UNL     1      22.549   3.733  49.859  1.00  0.00    -0.247 NA
HETATM   13  C21 UNL     1      22.696   7.251  50.447  1.00  0.00     0.060 A 
HETATM   14  C22 UNL     1      23.852   8.136  50.407  1.00  0.00     0.033 A 
HETATM   15  C23 UNL     1      24.997   7.745  49.882  1.00  0.00     0.025 A 
ENDROOT
BRANCH   4  16
HETATM   16  C6  UNL     1      26.416   1.700  51.664  1.00  0.00     0.129 C 
BRANCH  16  17
HETATM   17  N1  UNL     1      27.082   1.499  52.852  1.00  0.00    -0.402 N 
HETATM   18  C7  UNL     1      28.249   2.159  53.229  1.00  0.00     0.117 C 
HETATM   19  C8  UNL     1      29.365   1.235  53.699  1.00  0.00     0.019 C 
HETATM   20  C9  UNL     1      28.770   0.064  54.385  1.00  0.00     0.004 C 
HETATM   21  C10 UNL     1      27.393   0.229  54.924  1.00  0.00     0.031 C 
HETATM   22  C11 UNL     1      26.430   0.853  53.935  1.00  0.00     0.129 C 
BRANCH  22  23
HETATM   23  C12 UNL     1      25.427  -0.185  53.499  1.00  0.00     0.052 C 
HETATM   24  N2  UNL     1      24.232   0.239  53.386  1.00  0.00    -0.299 NA
HETATM   25  C14 UNL     1      23.123  -0.567  52.988  1.00  0.00     0.177 C 
BRANCH  23  26
HETATM   26  C13 UNL     1      26.085  -1.512  53.298  1.00  0.00     0.220 C 
BRANCH  26  27
HETATM   27  O1  UNL     1      26.470  -1.564  51.944  1.00  0.00    -0.395 OA
HETATM   28  H18 UNL     1      25.932  -0.938  51.402  1.00  0.00     0.209 HD
ENDBRANCH  26  27
ENDBRANCH  23  26
ENDBRANCH  22  23
ENDBRANCH  16  17
ENDBRANCH   4  16
BRANCH   1  29
HETATM   29  C2  UNL     1      22.873   3.642  52.409  1.00  0.00     0.025 C 
HETATM   30  C1  UNL     1      21.755   2.842  52.399  1.00  0.00     0.043 C 
ENDBRANCH   1  29
BRANCH  13  31
HETATM   31  N5  UNL     1      21.522   7.483  50.923  1.00  0.00    -0.299 NA
HETATM   32  H26 UNL     1      20.686   6.995  50.537  1.00  0.00     0.187 HD
ENDBRANCH  13  31
TORSDOF 7
ENDMDL
MODEL 4
REMARK VINA RESULT:      -7.9      2.883      8.047
REMARK  7 active torsions:
REMARK  status: ('A' for Active; 'I' for Inactive)
REMARK    1  A    between atoms: C2_2  and  C3_3 
REMARK    2  A    between atoms: C5_6  and  C6_7 
REMARK    3  A    between atoms: C6_7  and  N1_8 
REMARK    4  A    between atoms: C11_13  and  C12_14 
REMARK    5  A    between atoms: C12_14  and  C13_15 
REMARK    6  A    between atoms: C13_15  and  O1_16 
REMARK    7  A    between atoms: C21_27  and  N5_28 
ROOT
HETATM    1  C3  UNL     1      24.719   6.744  49.169  1.00  0.00     0.070 C 
HETATM    2  C4  UNL     1      25.318   5.688  49.794  1.00  0.00     0.124 C 
HETATM    3  F1  UNL     1      24.839   5.929  51.060  1.00  0.00    -0.208 F 
HETATM    4  C5  UNL     1      26.136   4.490  50.064  1.00  0.00     0.069 C 
HETATM    5  C15 UNL     1      26.969   4.017  48.889  1.00  0.00     0.036 C 
HETATM    6  C16 UNL     1      27.906   5.125  48.529  1.00  0.00     0.231 C 
HETATM    7  N3  UNL     1      28.836   6.006  48.171  1.00  0.00    -0.304 NA
HETATM    8  C17 UNL     1      28.249   7.356  48.398  1.00  0.00     0.002 A 
HETATM    9  C18 UNL     1      26.951   7.449  47.990  1.00  0.00     0.039 A 
HETATM   10  C19 UNL     1      26.242   8.706  48.202  1.00  0.00     0.025 A 
HETATM   11  C20 UNL     1      25.044   8.509  47.733  1.00  0.00     0.099 C 
HETATM   12  N4  UNL     1      24.567   7.304  47.850  1.00  0.00    -0.247 NA
HETATM   13  C21 UNL     1      26.954   9.774  48.825  1.00  0.00     0.060 A 
HETATM   14  C22 UNL     1      28.342   9.593  49.227  1.00  0.00     0.033 A 
HETATM   15  C23 UNL     1      28.969   8.450  49.031  1.00  0.00     0.025 A 
ENDROOT
BRANCH   4  16
HETATM   16  C6  UNL     1      25.168   3.439  50.505  1.00  0.00     0.129 C 
BRANCH  16  17
HETATM   17  N1  UNL     1      25.446   2.603  51.563  1.00  0.00    -0.402 N 
HETATM   18  C7  UNL     1      26.707   2.094  51.862  1.00  0.00     0.117 C 
HETATM   19  C8  UNL     1      26.739   0.586  52.068  1.00  0.00     0.019 C 
HETATM   20  C9  UNL     1      25.460   0.151  52.678  1.00  0.00     0.004 C 
HETATM   21  C10 UNL     1      24.678   1.186  53.407  1.00  0.00     0.031 C 
HETATM   22  C11 UNL     1      24.524   2.479  52.635  1.00  0.00     0.129 C 
BRANCH  22  23
HETATM   23  C12 UNL     1      23.085   2.633  52.210  1.00  0.00     0.052 C 
HETATM   24  N2  UNL     1      22.637   3.824  52.255  1.00  0.00    -0.299 NA
HETATM   25  C14 UNL     1      21.307   4.202  51.900  1.00  0.00     0.177 C 
BRANCH  23  26
HETATM   26  C13 UNL     1      22.498   1.314  51.827  1.00  0.00     0.220 C 
BRANCH  26  27
HETATM   27  O1  UNL     1      22.459   1.290  50.418  1.00  0.00    -0.395 OA
HETATM   28  H18 UNL     1      21.528   1.230  50.094  1.00  0.00     0.209 HD
ENDBRANCH  26  27
ENDBRANCH  23  26
ENDBRANCH  22  23
ENDBRANCH  16  17
ENDBRANCH   4  16
BRANCH   1  29
HETATM   29  C2  UNL     1      23.989   7.372  50.355  1.00  0.00     0.025 C 
HETATM   30  C1  UNL     1      22.675   7.478  49.965  1.00  0.00     0.043 C 
ENDBRANCH   1  29
BRANCH  13  31
HETATM   31  N5  UNL     1      26.210  10.817  48.949  1.00  0.00    -0.299 NA
HETATM   32  H26 UNL     1      25.487  10.869  49.699  1.00  0.00     0.187 HD
ENDBRANCH  13  31
TORSDOF 7
ENDMDL
MODEL 5
REMARK VINA RESULT:      -7.8      2.505      7.473
REMARK  7 active torsions:
REMARK  status: ('A' for Active; 'I' for Inactive)
REMARK    1  A    between atoms: C2_2  and  C3_3 
REMARK    2  A    between atoms: C5_6  and  C6_7 
REMARK    3  A    between atoms: C6_7  and  N1_8 
REMARK    4  A    between atoms: C11_13  and  C12_14 
REMARK    5  A    between atoms: C12_14  and  C13_15 
REMARK    6  A    between atoms: C13_15  and  O1_16 
REMARK    7  A    between atoms: C21_27  and  N5_28 
ROOT
HETATM    1  C3  UNL     1      25.472   5.288  50.042  1.00  0.00     0.070 C 
HETATM    2  C4  UNL     1      24.790   4.334  50.743  1.00  0.00     0.124 C 
HETATM    3  F1  UNL     1      25.153   3.250  49.978  1.00  0.00    -0.208 F 
HETATM    4  C5  UNL     1      23.921   3.661  51.728  1.00  0.00     0.069 C 
HETATM    5  C15 UNL     1      23.191   4.598  52.670  1.00  0.00     0.036 C 
HETATM    6  C16 UNL     1      22.320   5.482  51.836  1.00  0.00     0.231 C 
HETATM    7  N3  UNL     1      21.451   6.269  51.207  1.00  0.00    -0.304 NA
HETATM    8  C17 UNL     1      22.047   6.581  49.879  1.00  0.00     0.002 A 
HETATM    9  C18 UNL     1      23.379   6.863  49.945  1.00  0.00     0.039 A 
HETATM   10  C19 UNL     1      24.096   7.137  48.705  1.00  0.00     0.025 A 
HETATM   11  C20 UNL     1      25.328   7.361  49.061  1.00  0.00     0.099 C 
HETATM   12  N4  UNL     1      25.761   6.698  50.093  1.00  0.00    -0.247 NA
HETATM   13  C21 UNL     1      23.356   7.098  47.486  1.00  0.00     0.060 A 
HETATM   14  C22 UNL     1      21.932   6.793  47.504  1.00  0.00     0.033 A 
HETATM   15  C23 UNL     1      21.297   6.545  48.632  1.00  0.00     0.025 A 
ENDROOT
BRANCH   4  16
HETATM   16  C6  UNL     1      24.816   2.725  52.475  1.00  0.00     0.129 C 
BRANCH  16  17
HETATM   17  N1  UNL     1      24.516   1.387  52.598  1.00  0.00    -0.402 N 
HETATM   18  C7  UNL     1      23.301   0.810  52.236  1.00  0.00     0.117 C 
HETATM   19  C8  UNL     1      22.677  -0.062  53.318  1.00  0.00     0.019 C 
HETATM   20  C9  UNL     1      23.755  -0.721  54.093  1.00  0.00     0.004 C 
HETATM   21  C10 UNL     1      25.080  -0.848  53.427  1.00  0.00     0.031 C 
HETATM   22  C11 UNL     1      25.554   0.436  52.781  1.00  0.00     0.129 C 
BRANCH  22  23
HETATM   23  C12 UNL     1      26.731   0.975  53.555  1.00  0.00     0.052 C 
HETATM   24  N2  UNL     1      27.451   1.813  52.922  1.00  0.00    -0.299 NA
HETATM   25  C14 UNL     1      28.611   2.448  53.457  1.00  0.00     0.177 C 
BRANCH  23  26
HETATM   26  C13 UNL     1      26.786   0.380  54.924  1.00  0.00     0.220 C 
BRANCH  26  27
HETATM   27  O1  UNL     1      27.934  -0.436  54.958  1.00  0.00    -0.395 OA
HETATM   28  H18 UNL     1      28.120  -0.741  55.878  1.00  0.00     0.209 HD
ENDBRANCH  26  27
ENDBRANCH  23  26
ENDBRANCH  22  23
ENDBRANCH  16  17
ENDBRANCH   4  16
BRANCH   1  29
HETATM   29  C2  UNL     1      26.102   4.416  48.958  1.00  0.00     0.025 C 
HETATM   30  C1  UNL     1      27.439   4.736  48.958  1.00  0.00     0.043 C 
ENDBRANCH   1  29
BRANCH  13  31
HETATM   31  N5  UNL     1      24.110   7.358  46.476  1.00  0.00    -0.299 NA
HETATM   32  H26 UNL     1      23.833   8.079  45.776  1.00  0.00     0.187 HD
ENDBRANCH  13  31
TORSDOF 7
ENDMDL
MODEL 6
REMARK VINA RESULT:      -7.6      2.513      7.631
REMARK  7 active torsions:
REMARK  status: ('A' for Active; 'I' for Inactive)
REMARK    1  A    between atoms: C2_2  and  C3_3 
REMARK    2  A    between atoms: C5_6  and  C6_7 
REMARK    3  A    between atoms: C6_7  and  N1_8 
REMARK    4  A    between atoms: C11_13  and  C12_14 
REMARK    5  A    between atoms: C12_14  and  C13_15 
REMARK    6  A    between atoms: C13_15  and  O1_16 
REMARK    7  A    between atoms: C21_27  and  N5_28 
ROOT
HETATM    1  C3  UNL     1      23.059   4.040  50.845  1.00  0.00     0.070 C 
HETATM    2  C4  UNL     1      24.004   3.632  51.744  1.00  0.00     0.124 C 
HETATM    3  F1  UNL     1      23.585   4.395  52.808  1.00  0.00    -0.208 F 
HETATM    4  C5  UNL     1      25.167   2.965  52.360  1.00  0.00     0.069 C 
HETATM    5  C15 UNL     1      26.000   2.136  51.403  1.00  0.00     0.036 C 
HETATM    6  C16 UNL     1      26.521   3.058  50.347  1.00  0.00     0.231 C 
HETATM    7  N3  UNL     1      27.103   3.792  49.404  1.00  0.00    -0.304 NA
HETATM    8  C17 UNL     1      26.155   4.895  49.081  1.00  0.00     0.002 A 
HETATM    9  C18 UNL     1      24.861   4.477  48.992  1.00  0.00     0.039 A 
HETATM   10  C19 UNL     1      23.824   5.469  48.729  1.00  0.00     0.025 A 
HETATM   11  C20 UNL     1      22.707   4.802  48.706  1.00  0.00     0.099 C 
HETATM   12  N4  UNL     1      22.631   3.771  49.496  1.00  0.00    -0.247 NA
HETATM   13  C21 UNL     1      24.228   6.828  48.576  1.00  0.00     0.060 A 
HETATM   14  C22 UNL     1      25.635   7.191  48.681  1.00  0.00     0.033 A 
HETATM   15  C23 UNL     1      26.561   6.283  48.921  1.00  0.00     0.025 A 
ENDROOT
BRANCH   4  16
HETATM   16  C6  UNL     1      24.607   2.126  53.464  1.00  0.00     0.129 C 
BRANCH  16  17
HETATM   17  N1  UNL     1      23.661   1.155  53.221  1.00  0.00    -0.402 N 
HETATM   18  C7  UNL     1      22.321   1.407  52.937  1.00  0.00     0.117 C 
HETATM   19  C8  UNL     1      21.342   0.615  53.793  1.00  0.00     0.019 C 
HETATM   20  C9  UNL     1      21.930  -0.709  54.105  1.00  0.00     0.004 C 
HETATM   21  C10 UNL     1      22.997  -1.202  53.193  1.00  0.00     0.031 C 
HETATM   22  C11 UNL     1      24.063  -0.167  52.898  1.00  0.00     0.129 C 
BRANCH  22  23
HETATM   23  C12 UNL     1      25.352  -0.581  53.562  1.00  0.00     0.052 C 
HETATM   24  N2  UNL     1      26.245  -1.022  52.769  1.00  0.00    -0.299 NA
HETATM   25  C14 UNL     1      27.538  -1.470  53.177  1.00  0.00     0.177 C 
BRANCH  23  26
HETATM   26  C13 UNL     1      25.281  -0.378  55.040  1.00  0.00     0.220 C 
BRANCH  26  27
HETATM   27  O1  UNL     1      25.108  -1.656  55.610  1.00  0.00    -0.395 OA
HETATM   28  H18 UNL     1      24.663  -1.590  56.488  1.00  0.00     0.209 HD
ENDBRANCH  26  27
ENDBRANCH  23  26
ENDBRANCH  22  23
ENDBRANCH  16  17
ENDBRANCH   4  16
BRANCH   1  29
HETATM   29  C2  UNL     1      22.279   5.025  51.714  1.00  0.00     0.025 C 
HETATM   30  C1  UNL     1      20.962   4.646  51.608  1.00  0.00     0.043 C 
ENDBRANCH   1  29
BRANCH  13  31
HETATM   31  N5  UNL     1      23.216   7.591  48.350  1.00  0.00    -0.299 NA
HETATM   32  H26 UNL     1      22.816   8.181  49.110  1.00  0.00     0.187 HD
ENDBRANCH  13  31
TORSDOF 7
ENDMDL
MODEL 7
REMARK VINA RESULT:      -7.5      2.656      4.934
REMARK  7 active torsions:
REMARK  status: ('A' for Active; 'I' for Inactive)
REMARK    1  A    between atoms: C2_2  and  C3_3 
REMARK    2  A    between atoms: C5_6  and  C6_7 
REMARK    3  A    between atoms: C6_7  and  N1_8 
REMARK    4  A    between atoms: C11_13  and  C12_14 
REMARK    5  A    between atoms: C12_14  and  C13_15 
REMARK    6  A    between atoms: C13_15  and  O1_16 
REMARK    7  A    between atoms: C21_27  and  N5_28 
ROOT
HETATM    1  C3  UNL     1      24.236   3.444  51.061  1.00  0.00     0.070 C 
HETATM    2  C4  UNL     1      23.065   3.265  51.741  1.00  0.00     0.124 C 
HETATM    3  F1  UNL     1      23.014   4.499  52.345  1.00  0.00    -0.208 F 
HETATM    4  C5  UNL     1      21.836   2.667  52.297  1.00  0.00     0.069 C 
HETATM    5  C15 UNL     1      21.641   1.201  51.963  1.00  0.00     0.036 C 
HETATM    6  C16 UNL     1      22.800   0.452  52.537  1.00  0.00     0.231 C 
HETATM    7  N3  UNL     1      23.739  -0.325  53.069  1.00  0.00    -0.304 NA
HETATM    8  C17 UNL     1      25.003   0.462  53.048  1.00  0.00     0.002 A 
HETATM    9  C18 UNL     1      25.187   1.144  51.882  1.00  0.00     0.039 A 
HETATM   10  C19 UNL     1      26.364   1.996  51.750  1.00  0.00     0.025 A 
HETATM   11  C20 UNL     1      26.280   2.519  50.562  1.00  0.00     0.099 C 
HETATM   12  N4  UNL     1      25.080   2.756  50.118  1.00  0.00    -0.247 NA
HETATM   13  C21 UNL     1      27.263   2.063  52.856  1.00  0.00     0.060 A 
HETATM   14  C22 UNL     1      26.994   1.298  54.066  1.00  0.00     0.033 A 
HETATM   15  C23 UNL     1      25.925   0.534  54.172  1.00  0.00     0.025 A 
ENDROOT
BRANCH   4  16
HETATM   16  C6  UNL     1      20.713   3.501  51.769  1.00  0.00     0.129 C 
BRANCH  16  17
HETATM   17  N1  UNL     1      19.610   2.931  51.174  1.00  0.00    -0.402 N 
HETATM   18  C7  UNL     1      18.513   2.420  51.864  1.00  0.00     0.117 C 
HETATM   19  C8  UNL     1      18.118   1.008  51.451  1.00  0.00     0.019 C 
HETATM   20  C9  UNL     1      18.396   0.829  50.006  1.00  0.00     0.004 C 
HETATM   21  C10 UNL     1      18.483   2.063  49.180  1.00  0.00     0.031 C 
HETATM   22  C11 UNL     1      19.356   3.138  49.793  1.00  0.00     0.129 C 
BRANCH  22  23
HETATM   23  C12 UNL     1      20.610   3.287  48.969  1.00  0.00     0.052 C 
HETATM   24  N2  UNL     1      21.163   2.191  48.630  1.00  0.00    -0.299 NA
HETATM   25  C14 UNL     1      22.355   2.094  47.852  1.00  0.00     0.177 C 
BRANCH  23  26
HETATM   26  C13 UNL     1      20.927   4.729  48.736  1.00  0.00     0.220 C 
BRANCH  26  27
HETATM   27  O1  UNL     1      19.700   5.420  48.794  1.00  0.00    -0.395 OA
HETATM   28  H18 UNL     1      19.286   5.323  49.685  1.00  0.00     0.209 HD
ENDBRANCH  26  27
ENDBRANCH  23  26
ENDBRANCH  22  23
ENDBRANCH  16  17
ENDBRANCH   4  16
BRANCH   1  29
HETATM   29  C2  UNL     1      24.579   4.867  51.499  1.00  0.00     0.025 C 
HETATM   30  C1  UNL     1      24.767   5.576  50.337  1.00  0.00     0.043 C 
ENDBRANCH   1  29
BRANCH  13  31
HETATM   31  N5  UNL     1      28.251   2.848  52.604  1.00  0.00    -0.299 NA
HETATM   32  H26 UNL     1      29.035   2.951  53.284  1.00  0.00     0.187 HD
ENDBRANCH  13  31
TORSDOF 7
ENDMDL
MODEL 8
REMARK VINA RESULT:      -7.4      3.299      4.968
REMARK  7 active torsions:
REMARK  status: ('A' for Active; 'I' for Inactive)
REMARK    1  A    between atoms: C2_2  and  C3_3 
REMARK    2  A    between atoms: C5_6  and  C6_7 
REMARK    3  A    between atoms: C6_7  and  N1_8 
REMARK    4  A    between atoms: C11_13  and  C12_14 
REMARK    5  A    between atoms: C12_14  and  C13_15 
REMARK    6  A    between atoms: C13_15  and  O1_16 
REMARK    7  A    between atoms: C21_27  and  N5_28 
ROOT
HETATM    1  C3  UNL     1      21.965   1.670  50.895  1.00  0.00     0.070 C 
HETATM    2  C4  UNL     1      22.297   1.965  49.603  1.00  0.00     0.124 C 
HETATM    3  F1  UNL     1      21.895   0.780  49.035  1.00  0.00    -0.208 F 
HETATM    4  C5  UNL     1      22.805   2.655  48.402  1.00  0.00     0.069 C 
HETATM    5  C15 UNL     1      23.496   3.976  48.678  1.00  0.00     0.036 C 
HETATM    6  C16 UNL     1      24.670   3.693  49.559  1.00  0.00     0.231 C 
HETATM    7  N3  UNL     1      25.782   3.551  50.276  1.00  0.00    -0.304 NA
HETATM    8  C17 UNL     1      25.536   2.427  51.221  1.00  0.00     0.002 A 
HETATM    9  C18 UNL     1      24.297   2.468  51.788  1.00  0.00     0.039 A 
HETATM   10  C19 UNL     1      23.910   1.395  52.697  1.00  0.00     0.025 A 
HETATM   11  C20 UNL     1      22.697   1.682  53.073  1.00  0.00     0.099 C 
HETATM   12  N4  UNL     1      21.946   2.284  52.197  1.00  0.00    -0.247 NA
HETATM   13  C21 UNL     1      24.858   0.359  52.945  1.00  0.00     0.060 A 
HETATM   14  C22 UNL     1      26.164   0.392  52.301  1.00  0.00     0.033 A 
HETATM   15  C23 UNL     1      26.500   1.368  51.480  1.00  0.00     0.025 A 
ENDROOT
BRANCH   4  16
HETATM   16  C6  UNL     1      21.616   2.837  47.514  1.00  0.00     0.129 C 
BRANCH  16  17
HETATM   17  N1  UNL     1      21.297   4.065  46.980  1.00  0.00    -0.402 N 
HETATM   18  C7  UNL     1      22.007   4.695  45.960  1.00  0.00     0.117 C 
HETATM   19  C8  UNL     1      22.390   6.137  46.264  1.00  0.00     0.019 C 
HETATM   20  C9  UNL     1      21.330   6.756  47.095  1.00  0.00     0.004 C 
HETATM   21  C10 UNL     1      19.982   6.130  47.040  1.00  0.00     0.031 C 
HETATM   22  C11 UNL     1      20.010   4.624  47.193  1.00  0.00     0.129 C 
BRANCH  22  23
HETATM   23  C12 UNL     1      19.407   4.250  48.523  1.00  0.00     0.052 C 
HETATM   24  N2  UNL     1      19.997   4.744  49.538  1.00  0.00    -0.299 NA
HETATM   25  C14 UNL     1      19.600   4.523  50.891  1.00  0.00     0.177 C 
BRANCH  23  26
HETATM   26  C13 UNL     1      18.224   3.355  48.340  1.00  0.00     0.220 C 
BRANCH  26  27
HETATM   27  O1  UNL     1      18.658   2.052  48.655  1.00  0.00    -0.395 OA
HETATM   28  H18 UNL     1      18.629   1.471  47.857  1.00  0.00     0.209 HD
ENDBRANCH  26  27
ENDBRANCH  23  26
ENDBRANCH  22  23
ENDBRANCH  16  17
ENDBRANCH   4  16
BRANCH   1  29
HETATM   29  C2  UNL     1      21.411   0.258  50.707  1.00  0.00     0.025 C 
HETATM   30  C1  UNL     1      20.181   0.260  51.320  1.00  0.00     0.043 C 
ENDBRANCH   1  29
BRANCH  13  31
HETATM   31  N5  UNL     1      24.386  -0.518  53.760  1.00  0.00    -0.299 NA
HETATM   32  H26 UNL     1      24.132  -1.472  53.426  1.00  0.00     0.187 HD
ENDBRANCH  13  31
TORSDOF 7
ENDMDL
MODEL 9
REMARK VINA RESULT:      -7.3      2.838      8.164
REMARK  7 active torsions:
REMARK  status: ('A' for Active; 'I' for Inactive)
REMARK    1  A    between atoms: C2_2  and  C3_3 
REMARK    2  A    between atoms: C5_6  and  C6_7 
REMARK    3  A    between atoms: C6_7  and  N1_8 
REMARK    4  A    between atoms: C11_13  and  C12_14 
REMARK    5  A    between atoms: C12_14  and  C13_15 
REMARK    6  A    between atoms: C13_15  and  O1_16 
REMARK    7  A    between atoms: C21_27  and  N5_28 
ROOT
HETATM    1  C3  UNL     1      26.466   6.591  49.182  1.00  0.00     0.070 C 
HETATM    2  C4  UNL     1      25.297   6.025  49.605  1.00  0.00     0.124 C 
HETATM    3  F1  UNL     1      25.448   4.807  48.985  1.00  0.00    -0.208 F 
HETATM    4  C5  UNL     1      23.981   5.817  50.240  1.00  0.00     0.069 C 
HETATM    5  C15 UNL     1      23.400   7.049  50.905  1.00  0.00     0.036 C 
HETATM    6  C16 UNL     1      23.225   8.090  49.847  1.00  0.00     0.231 C 
HETATM    7  N3  UNL     1      22.952   9.062  48.980  1.00  0.00    -0.304 NA
HETATM    8  C17 UNL     1      24.002   8.995  47.926  1.00  0.00     0.002 A 
HETATM    9  C18 UNL     1      25.252   8.788  48.429  1.00  0.00     0.039 A 
HETATM   10  C19 UNL     1      26.365   8.653  47.497  1.00  0.00     0.025 A 
HETATM   11  C20 UNL     1      27.416   8.459  48.240  1.00  0.00     0.099 C 
HETATM   12  N4  UNL     1      27.228   7.801  49.347  1.00  0.00    -0.247 NA
HETATM   13  C21 UNL     1      26.081   8.749  46.102  1.00  0.00     0.060 A 
HETATM   14  C22 UNL     1      24.716   8.975  45.647  1.00  0.00     0.033 A 
HETATM   15  C23 UNL     1      23.719   9.094  46.501  1.00  0.00     0.025 A 
ENDROOT
BRANCH   4  16
HETATM   16  C6  UNL     1      24.184   4.710  51.224  1.00  0.00     0.129 C 
BRANCH  16  17
HETATM   17  N1  UNL     1      23.387   3.587  51.219  1.00  0.00    -0.402 N 
HETATM   18  C7  UNL     1      22.023   3.584  50.934  1.00  0.00     0.117 C 
HETATM   19  C8  UNL     1      21.171   2.860  51.968  1.00  0.00     0.019 C 
HETATM   20  C9  UNL     1      21.945   1.726  52.527  1.00  0.00     0.004 C 
HETATM   21  C10 UNL     1      23.069   1.207  51.702  1.00  0.00     0.031 C 
HETATM   22  C11 UNL     1      23.973   2.296  51.164  1.00  0.00     0.129 C 
BRANCH  22  23
HETATM   23  C12 UNL     1      25.311   2.215  51.856  1.00  0.00     0.052 C 
HETATM   24  N2  UNL     1      25.256   2.204  53.128  1.00  0.00    -0.299 NA
HETATM   25  C14 UNL     1      26.396   2.133  53.985  1.00  0.00     0.177 C 
BRANCH  23  26
HETATM   26  C13 UNL     1      26.424   2.169  50.861  1.00  0.00     0.220 C 
BRANCH  26  27
HETATM   27  O1  UNL     1      27.230   3.297  51.114  1.00  0.00    -0.395 OA
HETATM   28  H18 UNL     1      26.711   4.130  51.005  1.00  0.00     0.209 HD
ENDBRANCH  26  27
ENDBRANCH  23  26
ENDBRANCH  22  23
ENDBRANCH  16  17
ENDBRANCH   4  16
BRANCH   1  29
HETATM   29  C2  UNL     1      27.028   5.439  48.350  1.00  0.00     0.025 C 
HETATM   30  C1  UNL     1      28.387   5.464  48.557  1.00  0.00     0.043 C 
ENDBRANCH   1  29
BRANCH  13  31
HETATM   31  N5  UNL     1      27.150   8.611  45.399  1.00  0.00    -0.299 NA
HETATM   32  H26 UNL     1      28.086   8.818  45.808  1.00  0.00     0.187 HD
ENDBRANCH  13  31
TORSDOF 7
ENDMDL
