MODEL 1
REMARK VINA RESULT:      -8.9      0.000      0.000
REMARK  2 active torsions:
REMARK  status: ('A' for Active; 'I' for Inactive)
REMARK    1  A    between atoms: O1_1  and  N1_2 
REMARK    2  A    between atoms: C12_18  and  C13_19 
ROOT
HETATM    1  N1  UNL     1      23.117   4.924  49.529  1.00  0.00    -0.232 N 
HETATM    2  C1  UNL     1      24.469   5.374  49.596  1.00  0.00     0.135 C 
HETATM    3  C2  UNL     1      25.338   4.438  50.042  1.00  0.00     0.067 C 
HETATM    4  S1  UNL     1      26.262   3.099  50.629  1.00  0.00    -0.119 SA
HETATM    5  C3  UNL     1      25.377   1.622  51.192  1.00  0.00     0.221 C 
HETATM    6  N2  UNL     1      24.585   1.962  52.432  1.00  0.00    -0.311 N 
HETATM    7  N3  UNL     1      23.712   2.839  51.919  1.00  0.00    -0.310 N 
HETATM    8  C4  UNL     1      22.627   3.743  52.065  1.00  0.00     0.131 A 
HETATM    9  C5  UNL     1      22.349   5.011  52.134  1.00  0.00     0.058 A 
HETATM   10  S2  UNL     1      21.848   4.371  50.426  1.00  0.00    -0.142 SA
HETATM   11  C6  UNL     1      21.225   2.796  50.704  1.00  0.00     0.105 C 
HETATM   12  C7  UNL     1      21.466   2.385  52.197  1.00  0.00    -0.071 C 
HETATM   13  C8  UNL     1      21.103   3.630  52.324  1.00  0.00     0.024 C 
HETATM   14  C9  UNL     1      21.955   1.210  52.746  1.00  0.00     0.035 C 
HETATM   15  C10 UNL     1      22.052   0.021  53.441  1.00  0.00     0.007 C 
HETATM   16  C11 UNL     1      23.597  -0.308  53.205  1.00  0.00     0.032 C 
HETATM   17  C12 UNL     1      24.461   0.903  53.296  1.00  0.00     0.135 C 
HETATM   18  H6  UNL     1      23.615   3.117  50.932  1.00  0.00     0.182 HD
HETATM   19  H8  UNL     1      20.482   5.415  49.996  1.00  0.00     0.102 HD
ENDROOT
BRANCH  17  20
HETATM   20  C13 UNL     1      25.844   0.302  53.341  1.00  0.00    -0.034 A 
HETATM   21  C14 UNL     1      26.289  -0.893  52.813  1.00  0.00     0.011 A 
HETATM   22  C15 UNL     1      27.610  -1.243  52.998  1.00  0.00     0.024 A 
HETATM   23  C16 UNL     1      28.524  -0.461  53.687  1.00  0.00     0.034 A 
HETATM   24 CL1  UNL     1      30.174  -1.030  53.847  1.00  0.00    -0.084 Cl
HETATM   25  C17 UNL     1      28.085   0.733  54.217  1.00  0.00     0.024 A 
HETATM   26  C18 UNL     1      26.761   1.073  54.025  1.00  0.00     0.011 A 
ENDBRANCH  17  20
BRANCH   1  27
HETATM   27  O1  UNL     1      22.973   5.054  48.168  1.00  0.00    -0.279 OA
HETATM   28  H1  UNL     1      22.252   5.717  47.964  1.00  0.00     0.245 HD
ENDBRANCH   1  27
TORSDOF 2
ENDMDL
MODEL 2
REMARK VINA RESULT:      -8.7      2.915      4.408
REMARK  2 active torsions:
REMARK  status: ('A' for Active; 'I' for Inactive)
REMARK    1  A    between atoms: O1_1  and  N1_2 
REMARK    2  A    between atoms: C12_18  and  C13_19 
ROOT
HETATM    1  N1  UNL     1      21.039   0.212  54.222  1.00  0.00    -0.232 N 
HETATM    2  C1  UNL     1      21.492  -1.028  54.763  1.00  0.00     0.135 C 
HETATM    3  C2  UNL     1      22.838  -1.123  54.868  1.00  0.00     0.067 C 
HETATM    4  S1  UNL     1      24.564  -1.027  54.912  1.00  0.00    -0.119 SA
HETATM    5  C3  UNL     1      25.367   0.398  54.134  1.00  0.00     0.221 C 
HETATM    6  N2  UNL     1      25.143   0.340  52.642  1.00  0.00    -0.311 N 
HETATM    7  N3  UNL     1      23.814   0.497  52.599  1.00  0.00    -0.310 N 
HETATM    8  C4  UNL     1      22.595   0.584  51.876  1.00  0.00     0.131 A 
HETATM    9  C5  UNL     1      21.532  -0.099  51.568  1.00  0.00     0.058 A 
HETATM   10  S2  UNL     1      21.074   1.178  52.886  1.00  0.00    -0.142 SA
HETATM   11  C6  UNL     1      21.989   2.575  52.491  1.00  0.00     0.105 C 
HETATM   12  C7  UNL     1      22.993   2.243  51.333  1.00  0.00    -0.071 C 
HETATM   13  C8  UNL     1      21.921   1.617  50.937  1.00  0.00     0.024 C 
HETATM   14  C9  UNL     1      24.339   2.537  51.190  1.00  0.00     0.035 C 
HETATM   15  C10 UNL     1      25.533   3.062  50.734  1.00  0.00     0.007 C 
HETATM   16  C11 UNL     1      26.552   2.304  51.702  1.00  0.00     0.032 C 
HETATM   17  C12 UNL     1      26.180   0.878  51.922  1.00  0.00     0.135 C 
HETATM   18  H6  UNL     1      23.180   0.669  53.392  1.00  0.00     0.182 HD
HETATM   19  H8  UNL     1      19.376   1.533  52.521  1.00  0.00     0.102 HD
ENDROOT
BRANCH  17  20
HETATM   20  C13 UNL     1      27.416   0.329  52.592  1.00  0.00    -0.034 A 
HETATM   21  C14 UNL     1      28.432   1.009  53.230  1.00  0.00     0.011 A 
HETATM   22  C15 UNL     1      29.480   0.284  53.758  1.00  0.00     0.024 A 
HETATM   23  C16 UNL     1      29.574  -1.097  53.683  1.00  0.00     0.034 A 
HETATM   24 CL1  UNL     1      30.963  -1.891  54.398  1.00  0.00    -0.084 Cl
HETATM   25  C17 UNL     1      28.562  -1.782  53.046  1.00  0.00     0.024 A 
HETATM   26  C18 UNL     1      27.518  -1.046  52.523  1.00  0.00     0.011 A 
ENDBRANCH  17  20
BRANCH   1  27
HETATM   27  O1  UNL     1      20.347   0.627  55.335  1.00  0.00    -0.279 OA
HETATM   28  H1  UNL     1      20.942   0.594  56.138  1.00  0.00     0.245 HD
ENDBRANCH   1  27
TORSDOF 2
ENDMDL
MODEL 3
REMARK VINA RESULT:      -8.3      2.157      3.771
REMARK  2 active torsions:
REMARK  status: ('A' for Active; 'I' for Inactive)
REMARK    1  A    between atoms: O1_1  and  N1_2 
REMARK    2  A    between atoms: C12_18  and  C13_19 
ROOT
HETATM    1  N1  UNL     1      20.089   3.124  51.227  1.00  0.00    -0.232 N 
HETATM    2  C1  UNL     1      20.038   1.849  51.865  1.00  0.00     0.135 C 
HETATM    3  C2  UNL     1      21.226   1.434  52.361  1.00  0.00     0.067 C 
HETATM    4  S1  UNL     1      22.832   1.108  52.913  1.00  0.00    -0.119 SA
HETATM    5  C3  UNL     1      24.159   2.238  52.422  1.00  0.00     0.221 C 
HETATM    6  N2  UNL     1      24.367   2.140  50.929  1.00  0.00    -0.311 N 
HETATM    7  N3  UNL     1      23.191   2.614  50.497  1.00  0.00    -0.310 N 
HETATM    8  C4  UNL     1      22.295   2.950  49.448  1.00  0.00     0.131 A 
HETATM    9  C5  UNL     1      21.230   2.530  48.833  1.00  0.00     0.058 A 
HETATM   10  S2  UNL     1      20.751   3.964  49.971  1.00  0.00    -0.142 SA
HETATM   11  C6  UNL     1      22.063   5.065  49.877  1.00  0.00     0.105 C 
HETATM   12  C7  UNL     1      23.239   4.423  49.064  1.00  0.00    -0.071 C 
HETATM   13  C8  UNL     1      22.205   4.053  48.363  1.00  0.00     0.024 C 
HETATM   14  C9  UNL     1      24.598   4.368  49.328  1.00  0.00     0.035 C 
HETATM   15  C10 UNL     1      25.966   4.553  49.250  1.00  0.00     0.007 C 
HETATM   16  C11 UNL     1      26.436   3.634  50.468  1.00  0.00     0.032 C 
HETATM   17  C12 UNL     1      25.668   2.359  50.552  1.00  0.00     0.135 C 
HETATM   18  H6  UNL     1      22.421   2.988  51.070  1.00  0.00     0.182 HD
HETATM   19  H8  UNL     1      19.378   4.699  49.125  1.00  0.00     0.102 HD
ENDROOT
BRANCH  17  20
HETATM   20  C13 UNL     1      26.477   1.569  51.551  1.00  0.00    -0.034 A 
HETATM   21  C14 UNL     1      26.432   0.219  51.830  1.00  0.00     0.011 A 
HETATM   22  C15 UNL     1      27.267  -0.280  52.810  1.00  0.00     0.024 A 
HETATM   23  C16 UNL     1      28.153   0.501  53.535  1.00  0.00     0.034 A 
HETATM   24 CL1  UNL     1      29.156  -0.264  54.751  1.00  0.00    -0.084 Cl
HETATM   25  C17 UNL     1      28.202   1.851  53.260  1.00  0.00     0.024 A 
HETATM   26  C18 UNL     1      27.363   2.338  52.278  1.00  0.00     0.011 A 
ENDBRANCH  17  20
BRANCH   1  27
HETATM   27  O1  UNL     1      19.234   3.768  52.090  1.00  0.00    -0.279 OA
HETATM   28  H1  UNL     1      19.742   4.431  52.641  1.00  0.00     0.245 HD
ENDBRANCH   1  27
TORSDOF 2
ENDMDL
MODEL 4
REMARK VINA RESULT:      -8.2      3.181      4.994
REMARK  2 active torsions:
REMARK  status: ('A' for Active; 'I' for Inactive)
REMARK    1  A    between atoms: O1_1  and  N1_2 
REMARK    2  A    between atoms: C12_18  and  C13_19 
ROOT
HETATM    1  N1  UNL     1      19.511   2.064  49.958  1.00  0.00    -0.232 N 
HETATM    2  C1  UNL     1      19.411   3.334  49.315  1.00  0.00     0.135 C 
HETATM    3  C2  UNL     1      20.601   3.848  48.926  1.00  0.00     0.067 C 
HETATM    4  S1  UNL     1      22.216   4.310  48.518  1.00  0.00    -0.119 SA
HETATM    5  C3  UNL     1      23.583   3.291  49.130  1.00  0.00     0.221 C 
HETATM    6  N2  UNL     1      23.648   3.399  50.634  1.00  0.00    -0.311 N 
HETATM    7  N3  UNL     1      22.482   2.827  50.961  1.00  0.00    -0.310 N 
HETATM    8  C4  UNL     1      21.527   2.413  51.927  1.00  0.00     0.131 A 
HETATM    9  C5  UNL     1      20.380   2.740  52.443  1.00  0.00     0.058 A 
HETATM   10  S2  UNL     1      20.125   1.277  51.270  1.00  0.00    -0.142 SA
HETATM   11  C6  UNL     1      21.511   0.288  51.484  1.00  0.00     0.105 C 
HETATM   12  C7  UNL     1      22.553   1.022  52.397  1.00  0.00    -0.071 C 
HETATM   13  C8  UNL     1      21.433   1.301  53.002  1.00  0.00     0.024 C 
HETATM   14  C9  UNL     1      23.920   1.191  52.256  1.00  0.00     0.035 C 
HETATM   15  C10 UNL     1      25.286   1.119  52.456  1.00  0.00     0.007 C 
HETATM   16  C11 UNL     1      25.785   2.080  51.283  1.00  0.00     0.032 C 
HETATM   17  C12 UNL     1      24.924   3.287  51.127  1.00  0.00     0.135 C 
HETATM   18  H6  UNL     1      21.800   2.393  50.322  1.00  0.00     0.182 HD
HETATM   19  H8  UNL     1      18.748   0.426  51.992  1.00  0.00     0.102 HD
ENDROOT
BRANCH  17  20
HETATM   20  C13 UNL     1      25.751   4.147  50.202  1.00  0.00    -0.034 A 
HETATM   21  C14 UNL     1      26.826   3.790  49.415  1.00  0.00     0.011 A 
HETATM   22  C15 UNL     1      27.440   4.765  48.657  1.00  0.00     0.024 A 
HETATM   23  C16 UNL     1      27.039   6.092  48.639  1.00  0.00     0.034 A 
HETATM   24 CL1  UNL     1      27.911   7.227  47.629  1.00  0.00    -0.084 Cl
HETATM   25  C17 UNL     1      25.965   6.454  49.424  1.00  0.00     0.024 A 
HETATM   26  C18 UNL     1      25.358   5.470  50.178  1.00  0.00     0.011 A 
ENDBRANCH  17  20
BRANCH   1  27
HETATM   27  O1  UNL     1      18.793   1.356  49.023  1.00  0.00    -0.279 OA
HETATM   28  H1  UNL     1      17.895   1.778  48.893  1.00  0.00     0.245 HD
ENDBRANCH   1  27
TORSDOF 2
ENDMDL
MODEL 5
REMARK VINA RESULT:      -8.1      4.125      6.379
REMARK  2 active torsions:
REMARK  status: ('A' for Active; 'I' for Inactive)
REMARK    1  A    between atoms: O1_1  and  N1_2 
REMARK    2  A    between atoms: C12_18  and  C13_19 
ROOT
HETATM    1  N1  UNL     1      23.107   5.116  51.330  1.00  0.00    -0.232 N 
HETATM    2  C1  UNL     1      22.018   5.425  50.461  1.00  0.00     0.135 C 
HETATM    3  C2  UNL     1      20.922   4.656  50.658  1.00  0.00     0.067 C 
HETATM    4  S1  UNL     1      19.646   3.568  51.080  1.00  0.00    -0.119 SA
HETATM    5  C3  UNL     1      19.998   2.246  52.268  1.00  0.00     0.221 C 
HETATM    6  N2  UNL     1      20.981   1.277  51.654  1.00  0.00    -0.311 N 
HETATM    7  N3  UNL     1      22.052   2.073  51.538  1.00  0.00    -0.310 N 
HETATM    8  C4  UNL     1      23.398   2.297  51.143  1.00  0.00     0.131 A 
HETATM    9  C5  UNL     1      24.115   2.854  50.212  1.00  0.00     0.058 A 
HETATM   10  S2  UNL     1      24.179   3.939  51.761  1.00  0.00    -0.142 SA
HETATM   11  C6  UNL     1      24.224   2.838  53.076  1.00  0.00     0.105 C 
HETATM   12  C7  UNL     1      24.005   1.376  52.553  1.00  0.00    -0.071 C 
HETATM   13  C8  UNL     1      24.799   1.863  51.642  1.00  0.00     0.024 C 
HETATM   14  C9  UNL     1      23.188   0.360  53.022  1.00  0.00     0.035 C 
HETATM   15  C10 UNL     1      22.743  -0.830  53.566  1.00  0.00     0.007 C 
HETATM   16  C11 UNL     1      21.167  -0.638  53.393  1.00  0.00     0.032 C 
HETATM   17  C12 UNL     1      20.807  -0.012  52.089  1.00  0.00     0.135 C 
HETATM   18  H6  UNL     1      22.142   3.048  51.856  1.00  0.00     0.182 HD
HETATM   19  H8  UNL     1      25.776   4.698  51.647  1.00  0.00     0.102 HD
ENDROOT
BRANCH  17  20
HETATM   20  C13 UNL     1      19.312  -0.216  52.045  1.00  0.00    -0.034 A 
HETATM   21  C14 UNL     1      18.409   0.192  51.085  1.00  0.00     0.011 A 
HETATM   22  C15 UNL     1      17.073  -0.098  51.272  1.00  0.00     0.024 A 
HETATM   23  C16 UNL     1      16.581  -0.779  52.375  1.00  0.00     0.034 A 
HETATM   24 CL1  UNL     1      14.859  -1.080  52.484  1.00  0.00    -0.084 Cl
HETATM   25  C17 UNL     1      17.479  -1.189  53.337  1.00  0.00     0.024 A 
HETATM   26  C18 UNL     1      18.813  -0.893  53.139  1.00  0.00     0.011 A 
ENDBRANCH  17  20
BRANCH   1  27
HETATM   27  O1  UNL     1      23.148   6.332  51.971  1.00  0.00    -0.279 OA
HETATM   28  H1  UNL     1      23.176   7.071  51.297  1.00  0.00     0.245 HD
ENDBRANCH   1  27
TORSDOF 2
ENDMDL
MODEL 6
REMARK VINA RESULT:      -7.4      3.498      5.519
REMARK  2 active torsions:
REMARK  status: ('A' for Active; 'I' for Inactive)
REMARK    1  A    between atoms: O1_1  and  N1_2 
REMARK    2  A    between atoms: C12_18  and  C13_19 
ROOT
HETATM    1  N1  UNL     1      21.995   6.574  50.027  1.00  0.00    -0.232 N 
HETATM    2  C1  UNL     1      20.603   6.361  49.796  1.00  0.00     0.135 C 
HETATM    3  C2  UNL     1      20.096   5.290  50.448  1.00  0.00     0.067 C 
HETATM    4  S1  UNL     1      19.664   3.889  51.366  1.00  0.00    -0.119 SA
HETATM    5  C3  UNL     1      20.985   2.947  52.172  1.00  0.00     0.221 C 
HETATM    6  N2  UNL     1      21.858   2.314  51.116  1.00  0.00    -0.311 N 
HETATM    7  N3  UNL     1      22.373   3.412  50.548  1.00  0.00    -0.310 N 
HETATM    8  C4  UNL     1      23.194   4.041  49.575  1.00  0.00     0.131 A 
HETATM    9  C5  UNL     1      23.140   4.684  48.446  1.00  0.00     0.058 A 
HETATM   10  S2  UNL     1      23.496   5.919  49.835  1.00  0.00    -0.142 SA
HETATM   11  C6  UNL     1      24.545   5.090  50.911  1.00  0.00     0.105 C 
HETATM   12  C7  UNL     1      24.674   3.589  50.478  1.00  0.00    -0.071 C 
HETATM   13  C8  UNL     1      24.716   4.198  49.326  1.00  0.00     0.024 C 
HETATM   14  C9  UNL     1      24.608   2.423  51.222  1.00  0.00     0.035 C 
HETATM   15  C10 UNL     1      24.942   1.237  51.848  1.00  0.00     0.007 C 
HETATM   16  C11 UNL     1      23.519   0.837  52.454  1.00  0.00     0.032 C 
HETATM   17  C12 UNL     1      22.398   1.116  51.512  1.00  0.00     0.135 C 
HETATM   18  H6  UNL     1      22.228   4.390  50.837  1.00  0.00     0.182 HD
HETATM   19  H8  UNL     1      24.451   7.169  49.018  1.00  0.00     0.102 HD
ENDROOT
BRANCH  17  20
HETATM   20  C13 UNL     1      21.246   0.395  52.171  1.00  0.00    -0.034 A 
HETATM   21  C14 UNL     1      21.180  -0.166  53.429  1.00  0.00     0.011 A 
HETATM   22  C15 UNL     1      20.012  -0.794  53.809  1.00  0.00     0.024 A 
HETATM   23  C16 UNL     1      18.894  -0.897  52.996  1.00  0.00     0.034 A 
HETATM   24 CL1  UNL     1      17.476  -1.724  53.607  1.00  0.00    -0.084 Cl
HETATM   25  C17 UNL     1      18.955  -0.337  51.738  1.00  0.00     0.024 A 
HETATM   26  C18 UNL     1      20.128   0.289  51.369  1.00  0.00     0.011 A 
ENDBRANCH  17  20
BRANCH   1  27
HETATM   27  O1  UNL     1      21.869   7.801  50.635  1.00  0.00    -0.279 OA
HETATM   28  H1  UNL     1      20.953   8.168  50.474  1.00  0.00     0.245 HD
ENDBRANCH   1  27
TORSDOF 2
ENDMDL
MODEL 7
REMARK VINA RESULT:      -7.4      4.263      6.805
REMARK  2 active torsions:
REMARK  status: ('A' for Active; 'I' for Inactive)
REMARK    1  A    between atoms: O1_1  and  N1_2 
REMARK    2  A    between atoms: C12_18  and  C13_19 
ROOT
HETATM    1  N1  UNL     1      26.534  -0.081  53.984  1.00  0.00    -0.232 N 
HETATM    2  C1  UNL     1      25.852  -0.555  55.145  1.00  0.00     0.135 C 
HETATM    3  C2  UNL     1      24.551  -0.858  54.932  1.00  0.00     0.067 C 
HETATM    4  S1  UNL     1      22.926  -1.181  54.437  1.00  0.00    -0.119 SA
HETATM    5  C3  UNL     1      22.420  -0.690  52.768  1.00  0.00     0.221 C 
HETATM    6  N2  UNL     1      22.433   0.816  52.670  1.00  0.00    -0.311 N 
HETATM    7  N3  UNL     1      23.742   1.050  52.828  1.00  0.00    -0.310 N 
HETATM    8  C4  UNL     1      24.843   1.942  52.932  1.00  0.00     0.131 A 
HETATM    9  C5  UNL     1      25.649   2.481  53.797  1.00  0.00     0.058 A 
HETATM   10  S2  UNL     1      26.579   1.125  52.861  1.00  0.00    -0.142 SA
HETATM   11  C6  UNL     1      26.007   1.226  51.246  1.00  0.00     0.105 C 
HETATM   12  C7  UNL     1      24.815   2.240  51.166  1.00  0.00    -0.071 C 
HETATM   13  C8  UNL     1      25.633   2.862  51.967  1.00  0.00     0.024 C 
HETATM   14  C9  UNL     1      23.581   2.140  50.545  1.00  0.00     0.035 C 
HETATM   15  C10 UNL     1      22.512   2.347  49.694  1.00  0.00     0.007 C 
HETATM   16  C11 UNL     1      21.463   1.315  50.316  1.00  0.00     0.032 C 
HETATM   17  C12 UNL     1      21.485   1.306  51.807  1.00  0.00     0.135 C 
HETATM   18  H6  UNL     1      24.493   0.352  52.922  1.00  0.00     0.182 HD
HETATM   19  H8  UNL     1      28.251   1.712  52.871  1.00  0.00     0.102 HD
ENDROOT
BRANCH  17  20
HETATM   20  C13 UNL     1      20.244   0.512  52.135  1.00  0.00    -0.034 A 
HETATM   21  C14 UNL     1      19.919  -0.145  53.304  1.00  0.00     0.011 A 
HETATM   22  C15 UNL     1      18.721  -0.826  53.364  1.00  0.00     0.024 A 
HETATM   23  C16 UNL     1      17.819  -0.891  52.314  1.00  0.00     0.034 A 
HETATM   24 CL1  UNL     1      16.333  -1.793  52.529  1.00  0.00    -0.084 Cl
HETATM   25  C17 UNL     1      18.139  -0.235  51.144  1.00  0.00     0.024 A 
HETATM   26  C18 UNL     1      19.340   0.443  51.095  1.00  0.00     0.011 A 
ENDBRANCH  17  20
BRANCH   1  27
HETATM   27  O1  UNL     1      27.444  -1.110  53.904  1.00  0.00    -0.279 OA
HETATM   28  H1  UNL     1      26.981  -1.985  54.046  1.00  0.00     0.245 HD
ENDBRANCH   1  27
TORSDOF 2
ENDMDL
MODEL 8
REMARK VINA RESULT:      -7.4      2.188      3.379
REMARK  2 active torsions:
REMARK  status: ('A' for Active; 'I' for Inactive)
REMARK    1  A    between atoms: O1_1  and  N1_2 
REMARK    2  A    between atoms: C12_18  and  C13_19 
ROOT
HETATM    1  N1  UNL     1      24.946   7.388  48.020  1.00  0.00    -0.232 N 
HETATM    2  C1  UNL     1      26.336   7.086  48.128  1.00  0.00     0.135 C 
HETATM    3  C2  UNL     1      26.595   5.878  48.679  1.00  0.00     0.067 C 
HETATM    4  S1  UNL     1      26.692   4.308  49.398  1.00  0.00    -0.119 SA
HETATM    5  C3  UNL     1      25.166   3.544  50.008  1.00  0.00     0.221 C 
HETATM    6  N2  UNL     1      24.647   4.342  51.180  1.00  0.00    -0.311 N 
HETATM    7  N3  UNL     1      24.355   5.496  50.567  1.00  0.00    -0.310 N 
HETATM    8  C4  UNL     1      23.887   6.837  50.597  1.00  0.00     0.131 A 
HETATM    9  C5  UNL     1      24.300   8.069  50.570  1.00  0.00     0.058 A 
HETATM   10  S2  UNL     1      23.562   7.638  48.882  1.00  0.00    -0.142 SA
HETATM   11  C6  UNL     1      22.215   6.633  49.228  1.00  0.00     0.105 C 
HETATM   12  C7  UNL     1      22.193   6.280  50.755  1.00  0.00    -0.071 C 
HETATM   13  C8  UNL     1      22.520   7.542  50.783  1.00  0.00     0.024 C 
HETATM   14  C9  UNL     1      22.001   5.071  51.403  1.00  0.00     0.035 C 
HETATM   15  C10 UNL     1      21.464   4.061  52.178  1.00  0.00     0.007 C 
HETATM   16  C11 UNL     1      22.623   2.969  52.044  1.00  0.00     0.032 C 
HETATM   17  C12 UNL     1      23.985   3.571  52.102  1.00  0.00     0.135 C 
HETATM   18  H6  UNL     1      24.427   5.703  49.560  1.00  0.00     0.182 HD
HETATM   19  H8  UNL     1      22.933   9.195  48.316  1.00  0.00     0.102 HD
ENDROOT
BRANCH  17  20
HETATM   20  C13 UNL     1      24.862   2.352  52.259  1.00  0.00    -0.034 A 
HETATM   21  C14 UNL     1      26.238   2.267  52.248  1.00  0.00     0.011 A 
HETATM   22  C15 UNL     1      26.822   1.025  52.394  1.00  0.00     0.024 A 
HETATM   23  C16 UNL     1      26.102  -0.149  52.552  1.00  0.00     0.034 A 
HETATM   24 CL1  UNL     1      26.974  -1.659  52.727  1.00  0.00    -0.084 Cl
HETATM   25  C17 UNL     1      24.726  -0.069  52.564  1.00  0.00     0.024 A 
HETATM   26  C18 UNL     1      24.154   1.178  52.417  1.00  0.00     0.011 A 
ENDBRANCH  17  20
BRANCH   1  27
HETATM   27  O1  UNL     1      24.906   7.461  46.648  1.00  0.00    -0.279 OA
HETATM   28  H1  UNL     1      24.440   6.658  46.277  1.00  0.00     0.245 HD
ENDBRANCH   1  27
TORSDOF 2
ENDMDL
MODEL 9
REMARK VINA RESULT:      -7.3      3.288      5.115
REMARK  2 active torsions:
REMARK  status: ('A' for Active; 'I' for Inactive)
REMARK    1  A    between atoms: O1_1  and  N1_2 
REMARK    2  A    between atoms: C12_18  and  C13_19 
ROOT
HETATM    1  N1  UNL     1      19.694   6.740  49.001  1.00  0.00    -0.232 N 
HETATM    2  C1  UNL     1      18.600   5.881  49.320  1.00  0.00     0.135 C 
HETATM    3  C2  UNL     1      18.933   4.839  50.116  1.00  0.00     0.067 C 
HETATM    4  S1  UNL     1      19.578   3.594  51.128  1.00  0.00    -0.119 SA
HETATM    5  C3  UNL     1      21.372   3.522  51.367  1.00  0.00     0.221 C 
HETATM    6  N2  UNL     1      22.033   3.167  50.057  1.00  0.00    -0.311 N 
HETATM    7  N3  UNL     1      21.721   4.252  49.336  1.00  0.00    -0.310 N 
HETATM    8  C4  UNL     1      21.750   4.989  48.123  1.00  0.00     0.131 A 
HETATM    9  C5  UNL     1      21.014   5.315  47.101  1.00  0.00     0.058 A 
HETATM   10  S2  UNL     1      21.160   6.812  48.249  1.00  0.00    -0.142 SA
HETATM   11  C6  UNL     1      22.770   6.766  48.841  1.00  0.00     0.105 C 
HETATM   12  C7  UNL     1      23.464   5.434  48.391  1.00  0.00    -0.071 C 
HETATM   13  C8  UNL     1      22.815   5.769  47.311  1.00  0.00     0.024 C 
HETATM   14  C9  UNL     1      24.230   4.527  49.104  1.00  0.00     0.035 C 
HETATM   15  C10 UNL     1      25.289   3.761  49.554  1.00  0.00     0.007 C 
HETATM   16  C11 UNL     1      24.540   2.882  50.658  1.00  0.00     0.032 C 
HETATM   17  C12 UNL     1      23.187   2.441  50.216  1.00  0.00     0.135 C 
HETATM   18  H6  UNL     1      21.221   5.092  49.659  1.00  0.00     0.182 HD
HETATM   19  H8  UNL     1      21.044   8.182  47.129  1.00  0.00     0.102 HD
ENDROOT
BRANCH  17  20
HETATM   20  C13 UNL     1      22.832   1.415  51.265  1.00  0.00    -0.034 A 
HETATM   21  C14 UNL     1      21.747   0.565  51.315  1.00  0.00     0.011 A 
HETATM   22  C15 UNL     1      21.625  -0.284  52.396  1.00  0.00     0.024 A 
HETATM   23  C16 UNL     1      22.534  -0.334  53.441  1.00  0.00     0.034 A 
HETATM   24 CL1  UNL     1      22.255  -1.462  54.752  1.00  0.00    -0.084 Cl
HETATM   25  C17 UNL     1      23.620   0.513  53.396  1.00  0.00     0.024 A 
HETATM   26  C18 UNL     1      23.732   1.358  52.310  1.00  0.00     0.011 A 
ENDBRANCH  17  20
BRANCH   1  27
HETATM   27  O1  UNL     1      19.194   7.866  49.611  1.00  0.00    -0.279 OA
HETATM   28  H1  UNL     1      18.749   7.618  50.472  1.00  0.00     0.245 HD
ENDBRANCH   1  27
TORSDOF 2
ENDMDL
