MODEL 1
REMARK VINA RESULT:      -7.7      0.000      0.000
REMARK  5 active torsions:
REMARK  status: ('A' for Active; 'I' for Inactive)
REMARK    1  A    between atoms: O1_2  and  C2_3 
REMARK    2  A    between atoms: C8_11  and  O2_12 
REMARK    3  A    between atoms: O2_12  and  C9_13 
REMARK    4  A    between atoms: C9_13  and  C11_15 
REMARK    5  A    between atoms: C17_21  and  O3_22 
ROOT
HETATM    1  C2  UNL     1      21.451   1.621  52.232  1.00  0.00     0.105 A 
HETATM    2  C3  UNL     1      21.070   0.582  53.056  1.00  0.00     0.055 A 
HETATM    3  C4  UNL     1      22.026  -0.076  53.803  1.00  0.00     0.016 A 
HETATM    4  C5  UNL     1      21.561  -1.103  54.601  1.00  0.00     0.132 A 
HETATM    5  N1  UNL     1      22.438  -1.794  55.362  1.00  0.00    -0.253 NA
HETATM    6  C6  UNL     1      23.738  -1.445  55.304  1.00  0.00     0.233 A 
HETATM    7  N2  UNL     1      24.180  -0.438  54.520  1.00  0.00    -0.238 NA
HETATM    8  C7  UNL     1      23.356   0.283  53.744  1.00  0.00     0.106 A 
HETATM    9  C8  UNL     1      23.761   1.318  52.927  1.00  0.00     0.135 A 
HETATM   10  C17 UNL     1      22.801   1.984  52.174  1.00  0.00     0.137 A 
ENDROOT
BRANCH   9  11
HETATM   11  O2  UNL     1      25.102   1.620  52.920  1.00  0.00    -0.336 OA
BRANCH  11  12
HETATM   12  C9  UNL     1      25.991   1.105  51.954  1.00  0.00     0.158 C 
HETATM   13  C10 UNL     1      26.556   2.223  51.073  1.00  0.00     0.045 C 
BRANCH  12  14
HETATM   14  C11 UNL     1      27.142   0.434  52.579  1.00  0.00    -0.029 A 
HETATM   15  C12 UNL     1      27.292  -0.936  52.645  1.00  0.00     0.010 A 
HETATM   16  C13 UNL     1      28.396  -1.497  53.245  1.00  0.00     0.001 A 
HETATM   17  C14 UNL     1      29.395  -0.706  53.805  1.00  0.00     0.000 A 
HETATM   18  C15 UNL     1      29.225   0.665  53.730  1.00  0.00     0.001 A 
HETATM   19  C16 UNL     1      28.109   1.241  53.122  1.00  0.00     0.010 A 
ENDBRANCH  12  14
ENDBRANCH  11  12
ENDBRANCH   9  11
BRANCH  10  20
HETATM   20  O3  UNL     1      23.347   3.007  51.394  1.00  0.00    -0.351 OA
HETATM   21  C18 UNL     1      23.433   4.285  51.990  1.00  0.00     0.210 C 
ENDBRANCH  10  20
BRANCH   1  22
HETATM   22  O1  UNL     1      20.701   2.429  51.395  1.00  0.00    -0.353 OA
HETATM   23  C1  UNL     1      19.754   3.375  51.811  1.00  0.00     0.210 C 
ENDBRANCH   1  22
TORSDOF 5
ENDMDL
MODEL 2
REMARK VINA RESULT:      -7.5      2.581      4.944
REMARK  5 active torsions:
REMARK  status: ('A' for Active; 'I' for Inactive)
REMARK    1  A    between atoms: O1_2  and  C2_3 
REMARK    2  A    between atoms: C8_11  and  O2_12 
REMARK    3  A    between atoms: O2_12  and  C9_13 
REMARK    4  A    between atoms: C9_13  and  C11_15 
REMARK    5  A    between atoms: C17_21  and  O3_22 
ROOT
HETATM    1  C2  UNL     1      23.522  -0.256  53.348  1.00  0.00     0.105 A 
HETATM    2  C3  UNL     1      24.734  -0.395  53.991  1.00  0.00     0.055 A 
HETATM    3  C4  UNL     1      25.735   0.525  53.758  1.00  0.00     0.016 A 
HETATM    4  C5  UNL     1      26.917   0.313  54.441  1.00  0.00     0.132 A 
HETATM    5  N1  UNL     1      27.943   1.174  54.264  1.00  0.00    -0.253 NA
HETATM    6  C6  UNL     1      27.764   2.208  53.419  1.00  0.00     0.233 A 
HETATM    7  N2  UNL     1      26.604   2.405  52.757  1.00  0.00    -0.238 NA
HETATM    8  C7  UNL     1      25.550   1.584  52.894  1.00  0.00     0.106 A 
HETATM    9  C8  UNL     1      24.347   1.744  52.239  1.00  0.00     0.135 A 
HETATM   10  C17 UNL     1      23.336   0.819  52.472  1.00  0.00     0.137 A 
ENDROOT
BRANCH   9  11
HETATM   11  O2  UNL     1      24.235   2.822  51.394  1.00  0.00    -0.336 OA
BRANCH  11  12
HETATM   12  C9  UNL     1      24.461   2.725  50.005  1.00  0.00     0.158 C 
HETATM   13  C10 UNL     1      23.153   2.872  49.221  1.00  0.00     0.045 C 
BRANCH  12  14
HETATM   14  C11 UNL     1      25.364   3.785  49.528  1.00  0.00    -0.029 A 
HETATM   15  C12 UNL     1      26.717   3.609  49.322  1.00  0.00     0.010 A 
HETATM   16  C13 UNL     1      27.503   4.646  48.873  1.00  0.00     0.001 A 
HETATM   17  C14 UNL     1      26.964   5.901  48.613  1.00  0.00     0.000 A 
HETATM   18  C15 UNL     1      25.606   6.058  48.825  1.00  0.00     0.001 A 
HETATM   19  C16 UNL     1      24.802   5.012  49.279  1.00  0.00     0.010 A 
ENDBRANCH  12  14
ENDBRANCH  11  12
ENDBRANCH   9  11
BRANCH  10  20
HETATM   20  O3  UNL     1      22.175   1.100  51.747  1.00  0.00    -0.351 OA
HETATM   21  C18 UNL     1      21.191   1.877  52.396  1.00  0.00     0.210 C 
ENDBRANCH  10  20
BRANCH   1  22
HETATM   22  O1  UNL     1      22.376  -1.030  53.408  1.00  0.00    -0.353 OA
HETATM   23  C1  UNL     1      21.625  -1.281  54.565  1.00  0.00     0.210 C 
ENDBRANCH   1  22
TORSDOF 5
ENDMDL
MODEL 3
REMARK VINA RESULT:      -7.4      2.415      5.070
REMARK  5 active torsions:
REMARK  status: ('A' for Active; 'I' for Inactive)
REMARK    1  A    between atoms: O1_2  and  C2_3 
REMARK    2  A    between atoms: C8_11  and  O2_12 
REMARK    3  A    between atoms: O2_12  and  C9_13 
REMARK    4  A    between atoms: C9_13  and  C11_15 
REMARK    5  A    between atoms: C17_21  and  O3_22 
ROOT
HETATM    1  C2  UNL     1      25.456  -0.388  53.247  1.00  0.00     0.105 A 
HETATM    2  C3  UNL     1      24.222  -0.743  53.753  1.00  0.00     0.055 A 
HETATM    3  C4  UNL     1      23.129   0.058  53.496  1.00  0.00     0.016 A 
HETATM    4  C5  UNL     1      21.932  -0.368  54.040  1.00  0.00     0.132 A 
HETATM    5  N1  UNL     1      20.816   0.365  53.830  1.00  0.00    -0.253 NA
HETATM    6  C6  UNL     1      20.925   1.488  53.094  1.00  0.00     0.233 A 
HETATM    7  N2  UNL     1      22.101   1.894  52.569  1.00  0.00    -0.238 NA
HETATM    8  C7  UNL     1      23.241   1.207  52.743  1.00  0.00     0.106 A 
HETATM    9  C8  UNL     1      24.464   1.582  52.226  1.00  0.00     0.135 A 
HETATM   10  C17 UNL     1      25.568   0.778  52.482  1.00  0.00     0.137 A 
ENDROOT
BRANCH   9  11
HETATM   11  O2  UNL     1      24.499   2.739  51.484  1.00  0.00    -0.336 OA
BRANCH  11  12
HETATM   12  C9  UNL     1      24.549   2.736  50.075  1.00  0.00     0.158 C 
HETATM   13  C10 UNL     1      23.158   2.960  49.474  1.00  0.00     0.045 C 
BRANCH  12  14
HETATM   14  C11 UNL     1      25.412   3.811  49.560  1.00  0.00    -0.029 A 
HETATM   15  C12 UNL     1      26.761   3.660  49.309  1.00  0.00     0.010 A 
HETATM   16  C13 UNL     1      27.510   4.710  48.826  1.00  0.00     0.001 A 
HETATM   17  C14 UNL     1      26.937   5.953  48.578  1.00  0.00     0.000 A 
HETATM   18  C15 UNL     1      25.583   6.083  48.837  1.00  0.00     0.001 A 
HETATM   19  C16 UNL     1      24.818   5.024  49.325  1.00  0.00     0.010 A 
ENDBRANCH  12  14
ENDBRANCH  11  12
ENDBRANCH   9  11
BRANCH  10  20
HETATM   20  O3  UNL     1      26.738   1.273  51.901  1.00  0.00    -0.351 OA
HETATM   21  C18 UNL     1      27.555   2.092  52.712  1.00  0.00     0.210 C 
ENDBRANCH  10  20
BRANCH   1  22
HETATM   22  O1  UNL     1      26.688  -1.009  53.359  1.00  0.00    -0.353 OA
HETATM   23  C1  UNL     1      27.098  -2.138  52.636  1.00  0.00     0.210 C 
ENDBRANCH   1  22
TORSDOF 5
ENDMDL
MODEL 4
REMARK VINA RESULT:      -7.1      2.214      3.933
REMARK  5 active torsions:
REMARK  status: ('A' for Active; 'I' for Inactive)
REMARK    1  A    between atoms: O1_2  and  C2_3 
REMARK    2  A    between atoms: C8_11  and  O2_12 
REMARK    3  A    between atoms: O2_12  and  C9_13 
REMARK    4  A    between atoms: C9_13  and  C11_15 
REMARK    5  A    between atoms: C17_21  and  O3_22 
ROOT
HETATM    1  C2  UNL     1      22.169   2.937  52.095  1.00  0.00     0.105 A 
HETATM    2  C3  UNL     1      22.832   3.861  51.314  1.00  0.00     0.055 A 
HETATM    3  C4  UNL     1      24.149   3.639  50.971  1.00  0.00     0.016 A 
HETATM    4  C5  UNL     1      24.739   4.612  50.187  1.00  0.00     0.132 A 
HETATM    5  N1  UNL     1      26.028   4.463  49.811  1.00  0.00    -0.253 NA
HETATM    6  C6  UNL     1      26.684   3.361  50.223  1.00  0.00     0.233 A 
HETATM    7  N2  UNL     1      26.097   2.417  50.989  1.00  0.00    -0.238 NA
HETATM    8  C7  UNL     1      24.821   2.510  51.393  1.00  0.00     0.106 A 
HETATM    9  C8  UNL     1      24.179   1.572  52.175  1.00  0.00     0.135 A 
HETATM   10  C17 UNL     1      22.852   1.793  52.522  1.00  0.00     0.137 A 
ENDROOT
BRANCH   9  11
HETATM   11  O2  UNL     1      24.911   0.473  52.557  1.00  0.00    -0.336 OA
BRANCH  11  12
HETATM   12  C9  UNL     1      25.524   0.372  53.823  1.00  0.00     0.158 C 
HETATM   13  C10 UNL     1      24.935  -0.790  54.630  1.00  0.00     0.045 C 
BRANCH  12  14
HETATM   14  C11 UNL     1      26.969   0.119  53.707  1.00  0.00    -0.029 A 
HETATM   15  C12 UNL     1      27.509  -1.077  53.277  1.00  0.00     0.010 A 
HETATM   16  C13 UNL     1      28.872  -1.245  53.192  1.00  0.00     0.001 A 
HETATM   17  C14 UNL     1      29.750  -0.221  53.535  1.00  0.00     0.000 A 
HETATM   18  C15 UNL     1      29.189   0.969  53.963  1.00  0.00     0.001 A 
HETATM   19  C16 UNL     1      27.808   1.147  54.052  1.00  0.00     0.010 A 
ENDBRANCH  12  14
ENDBRANCH  11  12
ENDBRANCH   9  11
BRANCH  10  20
HETATM   20  O3  UNL     1      22.327   0.767  53.313  1.00  0.00    -0.351 OA
HETATM   21  C18 UNL     1      21.686  -0.295  52.637  1.00  0.00     0.210 C 
ENDBRANCH  10  20
BRANCH   1  22
HETATM   22  O1  UNL     1      20.869   2.925  52.569  1.00  0.00    -0.353 OA
HETATM   23  C1  UNL     1      19.729   3.258  51.825  1.00  0.00     0.210 C 
ENDBRANCH   1  22
TORSDOF 5
ENDMDL
MODEL 5
REMARK VINA RESULT:      -7.0      1.892      5.806
REMARK  5 active torsions:
REMARK  status: ('A' for Active; 'I' for Inactive)
REMARK    1  A    between atoms: O1_2  and  C2_3 
REMARK    2  A    between atoms: C8_11  and  O2_12 
REMARK    3  A    between atoms: O2_12  and  C9_13 
REMARK    4  A    between atoms: C9_13  and  C11_15 
REMARK    5  A    between atoms: C17_21  and  O3_22 
ROOT
HETATM    1  C2  UNL     1      25.638   2.767  50.886  1.00  0.00     0.105 A 
HETATM    2  C3  UNL     1      26.845   2.418  51.457  1.00  0.00     0.055 A 
HETATM    3  C4  UNL     1      26.856   1.661  52.610  1.00  0.00     0.016 A 
HETATM    4  C5  UNL     1      28.105   1.356  53.116  1.00  0.00     0.132 A 
HETATM    5  N1  UNL     1      28.195   0.617  54.244  1.00  0.00    -0.253 NA
HETATM    6  C6  UNL     1      27.052   0.209  54.827  1.00  0.00     0.233 A 
HETATM    7  N2  UNL     1      25.837   0.514  54.323  1.00  0.00    -0.238 NA
HETATM    8  C7  UNL     1      25.685   1.244  53.206  1.00  0.00     0.106 A 
HETATM    9  C8  UNL     1      24.466   1.579  52.654  1.00  0.00     0.135 A 
HETATM   10  C17 UNL     1      24.451   2.342  51.493  1.00  0.00     0.137 A 
ENDROOT
BRANCH   9  11
HETATM   11  O2  UNL     1      23.342   1.128  53.303  1.00  0.00    -0.336 OA
BRANCH  11  12
HETATM   12  C9  UNL     1      22.817  -0.166  53.102  1.00  0.00     0.158 C 
HETATM   13  C10 UNL     1      22.841  -0.979  54.401  1.00  0.00     0.045 C 
BRANCH  12  14
HETATM   14  C11 UNL     1      21.416  -0.120  52.656  1.00  0.00    -0.029 A 
HETATM   15  C12 UNL     1      21.016   0.356  51.424  1.00  0.00     0.010 A 
HETATM   16  C13 UNL     1      19.686   0.370  51.070  1.00  0.00     0.001 A 
HETATM   17  C14 UNL     1      18.702  -0.093  51.939  1.00  0.00     0.000 A 
HETATM   18  C15 UNL     1      19.124  -0.567  53.169  1.00  0.00     0.001 A 
HETATM   19  C16 UNL     1      20.470  -0.584  53.534  1.00  0.00     0.010 A 
ENDBRANCH  12  14
ENDBRANCH  11  12
ENDBRANCH   9  11
BRANCH  10  20
HETATM   20  O3  UNL     1      23.155   2.608  51.043  1.00  0.00    -0.351 OA
HETATM   21  C18 UNL     1      22.544   3.788  51.523  1.00  0.00     0.210 C 
ENDBRANCH  10  20
BRANCH   1  22
HETATM   22  O1  UNL     1      25.359   3.507  49.750  1.00  0.00    -0.353 OA
HETATM   23  C1  UNL     1      25.924   4.749  49.430  1.00  0.00     0.210 C 
ENDBRANCH   1  22
TORSDOF 5
ENDMDL
MODEL 6
REMARK VINA RESULT:      -7.0      1.475      2.267
REMARK  5 active torsions:
REMARK  status: ('A' for Active; 'I' for Inactive)
REMARK    1  A    between atoms: O1_2  and  C2_3 
REMARK    2  A    between atoms: C8_11  and  O2_12 
REMARK    3  A    between atoms: O2_12  and  C9_13 
REMARK    4  A    between atoms: C9_13  and  C11_15 
REMARK    5  A    between atoms: C17_21  and  O3_22 
ROOT
HETATM    1  C2  UNL     1      23.346   2.242  50.988  1.00  0.00     0.105 A 
HETATM    2  C3  UNL     1      22.406   1.325  51.411  1.00  0.00     0.055 A 
HETATM    3  C4  UNL     1      22.692   0.509  52.486  1.00  0.00     0.016 A 
HETATM    4  C5  UNL     1      21.698  -0.381  52.845  1.00  0.00     0.132 A 
HETATM    5  N1  UNL     1      21.905  -1.212  53.890  1.00  0.00    -0.253 NA
HETATM    6  C6  UNL     1      23.084  -1.134  54.538  1.00  0.00     0.233 A 
HETATM    7  N2  UNL     1      24.047  -0.260  54.177  1.00  0.00    -0.238 NA
HETATM    8  C7  UNL     1      23.898   0.590  53.149  1.00  0.00     0.106 A 
HETATM    9  C8  UNL     1      24.853   1.500  52.744  1.00  0.00     0.135 A 
HETATM   10  C17 UNL     1      24.569   2.323  51.661  1.00  0.00     0.137 A 
ENDROOT
BRANCH   9  11
HETATM   11  O2  UNL     1      26.031   1.524  53.452  1.00  0.00    -0.336 OA
BRANCH  11  12
HETATM   12  C9  UNL     1      27.293   1.409  52.832  1.00  0.00     0.158 C 
HETATM   13  C10 UNL     1      28.313   2.350  53.479  1.00  0.00     0.045 C 
BRANCH  12  14
HETATM   14  C11 UNL     1      27.834   0.046  52.955  1.00  0.00    -0.029 A 
HETATM   15  C12 UNL     1      29.076  -0.244  53.484  1.00  0.00     0.010 A 
HETATM   16  C13 UNL     1      29.520  -1.544  53.569  1.00  0.00     0.001 A 
HETATM   17  C14 UNL     1      28.738  -2.606  53.128  1.00  0.00     0.000 A 
HETATM   18  C15 UNL     1      27.496  -2.294  52.602  1.00  0.00     0.001 A 
HETATM   19  C16 UNL     1      27.039  -0.980  52.512  1.00  0.00     0.010 A 
ENDBRANCH  12  14
ENDBRANCH  11  12
ENDBRANCH   9  11
BRANCH  10  20
HETATM   20  O3  UNL     1      25.620   3.193  51.360  1.00  0.00    -0.351 OA
HETATM   21  C18 UNL     1      26.337   2.939  50.169  1.00  0.00     0.210 C 
ENDBRANCH  10  20
BRANCH   1  22
HETATM   22  O1  UNL     1      23.306   3.161  49.953  1.00  0.00    -0.353 OA
HETATM   23  C1  UNL     1      22.957   2.875  48.625  1.00  0.00     0.210 C 
ENDBRANCH   1  22
TORSDOF 5
ENDMDL
MODEL 7
REMARK VINA RESULT:      -6.9      2.637      4.597
REMARK  5 active torsions:
REMARK  status: ('A' for Active; 'I' for Inactive)
REMARK    1  A    between atoms: O1_2  and  C2_3 
REMARK    2  A    between atoms: C8_11  and  O2_12 
REMARK    3  A    between atoms: O2_12  and  C9_13 
REMARK    4  A    between atoms: C9_13  and  C11_15 
REMARK    5  A    between atoms: C17_21  and  O3_22 
ROOT
HETATM    1  C2  UNL     1      22.099   1.225  52.807  1.00  0.00     0.105 A 
HETATM    2  C3  UNL     1      22.972   0.242  53.227  1.00  0.00     0.055 A 
HETATM    3  C4  UNL     1      24.309   0.340  52.903  1.00  0.00     0.016 A 
HETATM    4  C5  UNL     1      25.115  -0.686  53.362  1.00  0.00     0.132 A 
HETATM    5  N1  UNL     1      26.437  -0.658  53.084  1.00  0.00    -0.253 NA
HETATM    6  C6  UNL     1      26.912   0.378  52.366  1.00  0.00     0.233 A 
HETATM    7  N2  UNL     1      26.114   1.373  51.923  1.00  0.00    -0.238 NA
HETATM    8  C7  UNL     1      24.795   1.400  52.168  1.00  0.00     0.106 A 
HETATM    9  C8  UNL     1      23.941   2.395  51.737  1.00  0.00     0.135 A 
HETATM   10  C17 UNL     1      22.594   2.300  52.061  1.00  0.00     0.137 A 
ENDROOT
BRANCH   9  11
HETATM   11  O2  UNL     1      24.496   3.421  51.010  1.00  0.00    -0.336 OA
BRANCH  11  12
HETATM   12  C9  UNL     1      24.852   3.284  49.652  1.00  0.00     0.158 C 
HETATM   13  C10 UNL     1      23.611   3.288  48.754  1.00  0.00     0.045 C 
BRANCH  12  14
HETATM   14  C11 UNL     1      25.707   4.393  49.200  1.00  0.00    -0.029 A 
HETATM   15  C12 UNL     1      25.239   5.663  48.929  1.00  0.00     0.010 A 
HETATM   16  C13 UNL     1      26.097   6.655  48.510  1.00  0.00     0.001 A 
HETATM   17  C14 UNL     1      27.457   6.414  48.345  1.00  0.00     0.000 A 
HETATM   18  C15 UNL     1      27.905   5.134  48.623  1.00  0.00     0.001 A 
HETATM   19  C16 UNL     1      27.043   4.123  49.048  1.00  0.00     0.010 A 
ENDBRANCH  12  14
ENDBRANCH  11  12
ENDBRANCH   9  11
BRANCH  10  20
HETATM   20  O3  UNL     1      21.846   3.371  51.564  1.00  0.00    -0.351 OA
HETATM   21  C18 UNL     1      21.767   4.525  52.375  1.00  0.00     0.210 C 
ENDBRANCH  10  20
BRANCH   1  22
HETATM   22  O1  UNL     1      20.734   1.358  52.996  1.00  0.00    -0.353 OA
HETATM   23  C1  UNL     1      19.747   0.586  52.369  1.00  0.00     0.210 C 
ENDBRANCH   1  22
TORSDOF 5
ENDMDL
MODEL 8
REMARK VINA RESULT:      -6.8      2.363      3.923
REMARK  5 active torsions:
REMARK  status: ('A' for Active; 'I' for Inactive)
REMARK    1  A    between atoms: O1_2  and  C2_3 
REMARK    2  A    between atoms: C8_11  and  O2_12 
REMARK    3  A    between atoms: O2_12  and  C9_13 
REMARK    4  A    between atoms: C9_13  and  C11_15 
REMARK    5  A    between atoms: C17_21  and  O3_22 
ROOT
HETATM    1  C2  UNL     1      21.274   1.494  51.948  1.00  0.00     0.105 A 
HETATM    2  C3  UNL     1      20.823   2.755  51.614  1.00  0.00     0.055 A 
HETATM    3  C4  UNL     1      21.715   3.806  51.577  1.00  0.00     0.016 A 
HETATM    4  C5  UNL     1      21.182   5.034  51.234  1.00  0.00     0.132 A 
HETATM    5  N1  UNL     1      21.996   6.111  51.177  1.00  0.00    -0.253 NA
HETATM    6  C6  UNL     1      23.301   5.936  51.461  1.00  0.00     0.233 A 
HETATM    7  N2  UNL     1      23.809   4.730  51.795  1.00  0.00    -0.238 NA
HETATM    8  C7  UNL     1      23.051   3.625  51.868  1.00  0.00     0.106 A 
HETATM    9  C8  UNL     1      23.525   2.374  52.205  1.00  0.00     0.135 A 
HETATM   10  C17 UNL     1      22.629   1.313  52.243  1.00  0.00     0.137 A 
ENDROOT
BRANCH   9  11
HETATM   11  O2  UNL     1      24.867   2.269  52.481  1.00  0.00    -0.336 OA
BRANCH  11  12
HETATM   12  C9  UNL     1      25.783   1.681  51.584  1.00  0.00     0.158 C 
HETATM   13  C10 UNL     1      26.505   2.748  50.755  1.00  0.00     0.045 C 
BRANCH  12  14
HETATM   14  C11 UNL     1      26.824   0.920  52.294  1.00  0.00    -0.029 A 
HETATM   15  C12 UNL     1      27.881   1.501  52.964  1.00  0.00     0.010 A 
HETATM   16  C13 UNL     1      28.819   0.727  53.608  1.00  0.00     0.001 A 
HETATM   17  C14 UNL     1      28.736  -0.662  53.605  1.00  0.00     0.000 A 
HETATM   18  C15 UNL     1      27.668  -1.225  52.928  1.00  0.00     0.001 A 
HETATM   19  C16 UNL     1      26.713  -0.447  52.274  1.00  0.00     0.010 A 
ENDBRANCH  12  14
ENDBRANCH  11  12
ENDBRANCH   9  11
BRANCH  10  20
HETATM   20  O3  UNL     1      23.241   0.107  52.596  1.00  0.00    -0.351 OA
HETATM   21  C18 UNL     1      23.156  -0.276  53.953  1.00  0.00     0.210 C 
ENDBRANCH  10  20
BRANCH   1  22
HETATM   22  O1  UNL     1      20.593   0.293  52.055  1.00  0.00    -0.353 OA
HETATM   23  C1  UNL     1      19.245   0.091  51.731  1.00  0.00     0.210 C 
ENDBRANCH   1  22
TORSDOF 5
ENDMDL
MODEL 9
REMARK VINA RESULT:      -6.7      2.254      5.549
REMARK  5 active torsions:
REMARK  status: ('A' for Active; 'I' for Inactive)
REMARK    1  A    between atoms: O1_2  and  C2_3 
REMARK    2  A    between atoms: C8_11  and  O2_12 
REMARK    3  A    between atoms: O2_12  and  C9_13 
REMARK    4  A    between atoms: C9_13  and  C11_15 
REMARK    5  A    between atoms: C17_21  and  O3_22 
ROOT
HETATM    1  C2  UNL     1      26.104  -0.149  52.994  1.00  0.00     0.105 A 
HETATM    2  C3  UNL     1      25.405  -0.828  53.971  1.00  0.00     0.055 A 
HETATM    3  C4  UNL     1      24.057  -0.585  54.133  1.00  0.00     0.016 A 
HETATM    4  C5  UNL     1      23.432  -1.306  55.133  1.00  0.00     0.132 A 
HETATM    5  N1  UNL     1      22.112  -1.121  55.350  1.00  0.00    -0.253 NA
HETATM    6  C6  UNL     1      21.460  -0.233  54.575  1.00  0.00     0.233 A 
HETATM    7  N2  UNL     1      22.081   0.465  53.601  1.00  0.00    -0.238 NA
HETATM    8  C7  UNL     1      23.390   0.324  53.338  1.00  0.00     0.106 A 
HETATM    9  C8  UNL     1      24.068   1.015  52.355  1.00  0.00     0.135 A 
HETATM   10  C17 UNL     1      25.426   0.772  52.189  1.00  0.00     0.137 A 
ENDROOT
BRANCH   9  11
HETATM   11  O2  UNL     1      23.338   1.904  51.602  1.00  0.00    -0.336 OA
BRANCH  11  12
HETATM   12  C9  UNL     1      22.906   1.612  50.291  1.00  0.00     0.158 C 
HETATM   13  C10 UNL     1      21.469   1.080  50.290  1.00  0.00     0.045 C 
BRANCH  12  14
HETATM   14  C11 UNL     1      22.914   2.812  49.438  1.00  0.00    -0.029 A 
HETATM   15  C12 UNL     1      22.215   2.918  48.253  1.00  0.00     0.010 A 
HETATM   16  C13 UNL     1      22.268   4.072  47.504  1.00  0.00     0.001 A 
HETATM   17  C14 UNL     1      23.026   5.165  47.913  1.00  0.00     0.000 A 
HETATM   18  C15 UNL     1      23.719   5.038  49.104  1.00  0.00     0.001 A 
HETATM   19  C16 UNL     1      23.670   3.872  49.868  1.00  0.00     0.010 A 
ENDBRANCH  12  14
ENDBRANCH  11  12
ENDBRANCH   9  11
BRANCH  10  20
HETATM   20  O3  UNL     1      25.985   1.536  51.161  1.00  0.00    -0.351 OA
HETATM   21  C18 UNL     1      26.681   2.705  51.543  1.00  0.00     0.210 C 
ENDBRANCH  10  20
BRANCH   1  22
HETATM   22  O1  UNL     1      27.439  -0.211  52.634  1.00  0.00    -0.353 OA
HETATM   23  C1  UNL     1      28.450  -0.848  53.367  1.00  0.00     0.210 C 
ENDBRANCH   1  22
TORSDOF 5
ENDMDL
