MODEL 1
REMARK VINA RESULT:      -8.0      0.000      0.000
REMARK  3 active torsions:
REMARK  status: ('A' for Active; 'I' for Inactive)
REMARK    1  A    between atoms: O1_2  and  C2_3 
REMARK    2  A    between atoms: C5_6  and  N1_7 
REMARK    3  A    between atoms: N1_7  and  C6_8 
ROOT
HETATM    1  C2  UNL     1      24.363  -0.215  53.326  1.00  0.00     0.075 A 
HETATM    2  C3  UNL     1      25.139   0.609  52.532  1.00  0.00     0.055 A 
HETATM    3  C4  UNL     1      26.342   1.133  52.913  1.00  0.00     0.041 A 
HETATM    4  C5  UNL     1      27.045   1.947  52.060  1.00  0.00     0.142 A 
HETATM    5  N2  UNL     1      28.222   2.443  52.480  1.00  0.00    -0.224 NA
HETATM    6  C12 UNL     1      28.726   2.163  53.709  1.00  0.00     0.236 A 
HETATM    7  N3  UNL     1      28.024   1.367  54.524  1.00  0.00    -0.241 NA
HETATM    8  C13 UNL     1      26.839   0.844  54.150  1.00  0.00     0.072 A 
HETATM    9  C14 UNL     1      26.081   0.014  54.981  1.00  0.00     0.042 A 
HETATM   10  C15 UNL     1      24.862  -0.519  54.599  1.00  0.00    -0.026 A 
HETATM   11  C16 UNL     1      24.106  -1.413  55.538  1.00  0.00     0.051 C 
ENDROOT
BRANCH   4  12
HETATM   12  N1  UNL     1      26.594   2.248  50.746  1.00  0.00    -0.340 N 
HETATM   13  H5  UNL     1      26.450   1.516  50.028  1.00  0.00     0.167 HD
BRANCH  12  14
HETATM   14  C6  UNL     1      26.279   3.555  50.217  1.00  0.00     0.035 A 
HETATM   15  C7  UNL     1      27.062   4.147  49.250  1.00  0.00     0.029 A 
HETATM   16  C8  UNL     1      26.722   5.398  48.737  1.00  0.00     0.004 A 
HETATM   17  C9  UNL     1      25.603   6.027  49.206  1.00  0.00     0.019 A 
HETATM   18  C10 UNL     1      24.794   5.467  50.172  1.00  0.00     0.013 A 
HETATM   19 BR1  UNL     1      23.203   6.255  50.897  1.00  0.00    -0.051 Br
HETATM   20  C11 UNL     1      25.138   4.227  50.674  1.00  0.00     0.048 A 
ENDBRANCH  12  14
ENDBRANCH   4  12
BRANCH   1  21
HETATM   21  O1  UNL     1      23.154  -0.778  53.023  1.00  0.00    -0.355 OA
HETATM   22  C1  UNL     1      22.028  -0.115  52.504  1.00  0.00     0.210 C 
ENDBRANCH   1  21
TORSDOF 3
ENDMDL
MODEL 2
REMARK VINA RESULT:      -8.0      3.911      5.707
REMARK  3 active torsions:
REMARK  status: ('A' for Active; 'I' for Inactive)
REMARK    1  A    between atoms: O1_2  and  C2_3 
REMARK    2  A    between atoms: C5_6  and  N1_7 
REMARK    3  A    between atoms: N1_7  and  C6_8 
ROOT
HETATM    1  C2  UNL     1      20.752   0.270  51.583  1.00  0.00     0.075 A 
HETATM    2  C3  UNL     1      22.074   0.223  51.985  1.00  0.00     0.055 A 
HETATM    3  C4  UNL     1      22.499  -0.312  53.168  1.00  0.00     0.041 A 
HETATM    4  C5  UNL     1      23.834  -0.313  53.489  1.00  0.00     0.142 A 
HETATM    5  N2  UNL     1      24.205  -0.847  54.666  1.00  0.00    -0.224 NA
HETATM    6  C12 UNL     1      23.305  -1.376  55.533  1.00  0.00     0.236 A 
HETATM    7  N3  UNL     1      22.009  -1.366  55.200  1.00  0.00    -0.241 NA
HETATM    8  C13 UNL     1      21.586  -0.843  54.032  1.00  0.00     0.072 A 
HETATM    9  C14 UNL     1      20.240  -0.812  53.658  1.00  0.00     0.042 A 
HETATM   10  C15 UNL     1      19.805  -0.272  52.460  1.00  0.00    -0.026 A 
HETATM   11  C16 UNL     1      18.344  -0.283  52.118  1.00  0.00     0.051 C 
ENDROOT
BRANCH   4  12
HETATM   12  N1  UNL     1      24.831   0.190  52.610  1.00  0.00    -0.340 N 
HETATM   13  H5  UNL     1      24.668   0.304  51.594  1.00  0.00     0.167 HD
BRANCH  12  14
HETATM   14  C6  UNL     1      26.170   0.603  52.964  1.00  0.00     0.035 A 
HETATM   15  C7  UNL     1      26.465   1.919  53.249  1.00  0.00     0.029 A 
HETATM   16  C8  UNL     1      27.759   2.287  53.612  1.00  0.00     0.004 A 
HETATM   17  C9  UNL     1      28.729   1.327  53.682  1.00  0.00     0.019 A 
HETATM   18  C10 UNL     1      28.473   0.001  53.406  1.00  0.00     0.013 A 
HETATM   19 BR1  UNL     1      29.752  -1.427  53.476  1.00  0.00    -0.051 Br
HETATM   20  C11 UNL     1      27.188  -0.356  53.047  1.00  0.00     0.048 A 
ENDBRANCH  12  14
ENDBRANCH   4  12
BRANCH   1  21
HETATM   21  O1  UNL     1      20.246   0.785  50.422  1.00  0.00    -0.355 OA
HETATM   22  C1  UNL     1      20.981   1.209  49.301  1.00  0.00     0.210 C 
ENDBRANCH   1  21
TORSDOF 3
ENDMDL
MODEL 3
REMARK VINA RESULT:      -7.6      1.296      1.489
REMARK  3 active torsions:
REMARK  status: ('A' for Active; 'I' for Inactive)
REMARK    1  A    between atoms: O1_2  and  C2_3 
REMARK    2  A    between atoms: C5_6  and  N1_7 
REMARK    3  A    between atoms: N1_7  and  C6_8 
ROOT
HETATM    1  C2  UNL     1      23.159   0.624  52.244  1.00  0.00     0.075 A 
HETATM    2  C3  UNL     1      24.136   1.364  51.605  1.00  0.00     0.055 A 
HETATM    3  C4  UNL     1      25.396   1.562  52.095  1.00  0.00     0.041 A 
HETATM    4  C5  UNL     1      26.303   2.316  51.393  1.00  0.00     0.142 A 
HETATM    5  N2  UNL     1      27.530   2.486  51.918  1.00  0.00    -0.224 NA
HETATM    6  C12 UNL     1      27.888   1.939  53.107  1.00  0.00     0.236 A 
HETATM    7  N3  UNL     1      26.988   1.207  53.774  1.00  0.00    -0.241 NA
HETATM    8  C13 UNL     1      25.745   1.007  53.291  1.00  0.00     0.072 A 
HETATM    9  C14 UNL     1      24.782   0.252  53.967  1.00  0.00     0.042 A 
HETATM   10  C15 UNL     1      23.506   0.049  53.473  1.00  0.00    -0.026 A 
HETATM   11  C16 UNL     1      22.525  -0.783  54.247  1.00  0.00     0.051 C 
ENDROOT
BRANCH   4  12
HETATM   12  N1  UNL     1      26.006   2.884  50.125  1.00  0.00    -0.340 N 
HETATM   13  H5  UNL     1      25.571   2.336  49.361  1.00  0.00     0.167 HD
BRANCH  12  14
HETATM   14  C6  UNL     1      26.247   4.246  49.707  1.00  0.00     0.035 A 
HETATM   15  C7  UNL     1      27.295   4.566  48.870  1.00  0.00     0.029 A 
HETATM   16  C8  UNL     1      27.490   5.885  48.462  1.00  0.00     0.004 A 
HETATM   17  C9  UNL     1      26.632   6.852  48.902  1.00  0.00     0.019 A 
HETATM   18  C10 UNL     1      25.573   6.571  49.739  1.00  0.00     0.013 A 
HETATM   19 BR1  UNL     1      24.306   7.844  50.412  1.00  0.00    -0.051 Br
HETATM   20  C11 UNL     1      25.385   5.262  50.139  1.00  0.00     0.048 A 
ENDBRANCH  12  14
ENDBRANCH   4  12
BRANCH   1  21
HETATM   21  O1  UNL     1      21.881   0.380  51.825  1.00  0.00    -0.355 OA
HETATM   22  C1  UNL     1      21.358   0.626  50.543  1.00  0.00     0.210 C 
ENDBRANCH   1  21
TORSDOF 3
ENDMDL
MODEL 4
REMARK VINA RESULT:      -7.6      2.847      5.277
REMARK  3 active torsions:
REMARK  status: ('A' for Active; 'I' for Inactive)
REMARK    1  A    between atoms: O1_2  and  C2_3 
REMARK    2  A    between atoms: C5_6  and  N1_7 
REMARK    3  A    between atoms: N1_7  and  C6_8 
ROOT
HETATM    1  C2  UNL     1      22.326   0.843  52.659  1.00  0.00     0.075 A 
HETATM    2  C3  UNL     1      23.568   1.451  52.669  1.00  0.00     0.055 A 
HETATM    3  C4  UNL     1      24.082   2.169  51.626  1.00  0.00     0.041 A 
HETATM    4  C5  UNL     1      25.328   2.736  51.723  1.00  0.00     0.142 A 
HETATM    5  N2  UNL     1      25.794   3.430  50.668  1.00  0.00    -0.224 NA
HETATM    6  C12 UNL     1      25.073   3.580  49.528  1.00  0.00     0.236 A 
HETATM    7  N3  UNL     1      23.860   3.018  49.457  1.00  0.00    -0.241 NA
HETATM    8  C13 UNL     1      23.348   2.313  50.485  1.00  0.00     0.072 A 
HETATM    9  C14 UNL     1      22.087   1.712  50.439  1.00  0.00     0.042 A 
HETATM   10  C15 UNL     1      21.563   0.985  51.494  1.00  0.00    -0.026 A 
HETATM   11  C16 UNL     1      20.197   0.374  51.379  1.00  0.00     0.051 C 
ENDROOT
BRANCH   4  12
HETATM   12  N1  UNL     1      26.118   2.650  52.900  1.00  0.00    -0.340 N 
HETATM   13  H5  UNL     1      25.980   3.284  53.707  1.00  0.00     0.167 HD
BRANCH  12  14
HETATM   14  C6  UNL     1      27.190   1.717  53.158  1.00  0.00     0.035 A 
HETATM   15  C7  UNL     1      28.387   2.130  53.703  1.00  0.00     0.029 A 
HETATM   16  C8  UNL     1      29.397   1.205  53.966  1.00  0.00     0.004 A 
HETATM   17  C9  UNL     1      29.183  -0.113  53.676  1.00  0.00     0.019 A 
HETATM   18  C10 UNL     1      28.000  -0.565  53.131  1.00  0.00     0.013 A 
HETATM   19 BR1  UNL     1      27.591  -2.386  52.691  1.00  0.00    -0.051 Br
HETATM   20  C11 UNL     1      27.004   0.358  52.875  1.00  0.00     0.048 A 
ENDBRANCH  12  14
ENDBRANCH   4  12
BRANCH   1  21
HETATM   21  O1  UNL     1      21.741   0.110  53.654  1.00  0.00    -0.355 OA
HETATM   22  C1  UNL     1      22.375  -0.829  54.487  1.00  0.00     0.210 C 
ENDBRANCH   1  21
TORSDOF 3
ENDMDL
MODEL 5
REMARK VINA RESULT:      -7.1      3.233      4.728
REMARK  3 active torsions:
REMARK  status: ('A' for Active; 'I' for Inactive)
REMARK    1  A    between atoms: O1_2  and  C2_3 
REMARK    2  A    between atoms: C5_6  and  N1_7 
REMARK    3  A    between atoms: N1_7  and  C6_8 
ROOT
HETATM    1  C2  UNL     1      25.796   0.866  52.326  1.00  0.00     0.075 A 
HETATM    2  C3  UNL     1      24.444   1.152  52.359  1.00  0.00     0.055 A 
HETATM    3  C4  UNL     1      23.542   0.514  53.163  1.00  0.00     0.041 A 
HETATM    4  C5  UNL     1      22.214   0.861  53.127  1.00  0.00     0.142 A 
HETATM    5  N2  UNL     1      21.363   0.202  53.933  1.00  0.00    -0.224 NA
HETATM    6  C12 UNL     1      21.777  -0.784  54.769  1.00  0.00     0.236 A 
HETATM    7  N3  UNL     1      23.077  -1.105  54.788  1.00  0.00    -0.241 NA
HETATM    8  C13 UNL     1      23.970  -0.475  53.999  1.00  0.00     0.072 A 
HETATM    9  C14 UNL     1      25.331  -0.792  53.992  1.00  0.00     0.042 A 
HETATM   10  C15 UNL     1      26.248  -0.147  53.180  1.00  0.00    -0.026 A 
HETATM   11  C16 UNL     1      27.698  -0.531  53.233  1.00  0.00     0.051 C 
ENDROOT
BRANCH   4  12
HETATM   12  N1  UNL     1      21.720   1.909  52.305  1.00  0.00    -0.340 N 
HETATM   13  H5  UNL     1      21.248   2.744  52.696  1.00  0.00     0.167 HD
BRANCH  12  14
HETATM   14  C6  UNL     1      21.786   1.984  50.863  1.00  0.00     0.035 A 
HETATM   15  C7  UNL     1      21.406   0.923  50.070  1.00  0.00     0.029 A 
HETATM   16  C8  UNL     1      21.455   1.030  48.681  1.00  0.00     0.004 A 
HETATM   17  C9  UNL     1      21.884   2.199  48.119  1.00  0.00     0.019 A 
HETATM   18  C10 UNL     1      22.271   3.283  48.878  1.00  0.00     0.013 A 
HETATM   19 BR1  UNL     1      22.882   4.969  48.198  1.00  0.00    -0.051 Br
HETATM   20  C11 UNL     1      22.219   3.169  50.254  1.00  0.00     0.048 A 
ENDBRANCH  12  14
ENDBRANCH   4  12
BRANCH   1  21
HETATM   21  O1  UNL     1      26.760   1.454  51.555  1.00  0.00    -0.355 OA
HETATM   22  C1  UNL     1      26.620   2.620  50.783  1.00  0.00     0.210 C 
ENDBRANCH   1  21
TORSDOF 3
ENDMDL
MODEL 6
REMARK VINA RESULT:      -7.1      1.907      2.541
REMARK  3 active torsions:
REMARK  status: ('A' for Active; 'I' for Inactive)
REMARK    1  A    between atoms: O1_2  and  C2_3 
REMARK    2  A    between atoms: C5_6  and  N1_7 
REMARK    3  A    between atoms: N1_7  and  C6_8 
ROOT
HETATM    1  C2  UNL     1      22.307   0.719  52.360  1.00  0.00     0.075 A 
HETATM    2  C3  UNL     1      23.269   1.456  51.695  1.00  0.00     0.055 A 
HETATM    3  C4  UNL     1      24.606   1.401  51.970  1.00  0.00     0.041 A 
HETATM    4  C5  UNL     1      25.492   2.173  51.259  1.00  0.00     0.142 A 
HETATM    5  N2  UNL     1      26.798   2.089  51.569  1.00  0.00    -0.224 NA
HETATM    6  C12 UNL     1      27.256   1.273  52.552  1.00  0.00     0.236 A 
HETATM    7  N3  UNL     1      26.374   0.529  53.232  1.00  0.00    -0.241 NA
HETATM    8  C13 UNL     1      25.055   0.577  52.960  1.00  0.00     0.072 A 
HETATM    9  C14 UNL     1      24.110  -0.183  53.655  1.00  0.00     0.042 A 
HETATM   10  C15 UNL     1      22.755  -0.131  53.379  1.00  0.00    -0.026 A 
HETATM   11  C16 UNL     1      21.797  -0.984  54.158  1.00  0.00     0.051 C 
ENDROOT
BRANCH   4  12
HETATM   12  N1  UNL     1      25.085   3.018  50.192  1.00  0.00    -0.340 N 
HETATM   13  H5  UNL     1      24.620   2.652  49.342  1.00  0.00     0.167 HD
BRANCH  12  14
HETATM   14  C6  UNL     1      25.241   4.452  50.115  1.00  0.00     0.035 A 
HETATM   15  C7  UNL     1      24.447   5.304  50.853  1.00  0.00     0.029 A 
HETATM   16  C8  UNL     1      24.635   6.683  50.779  1.00  0.00     0.004 A 
HETATM   17  C9  UNL     1      25.616   7.177  49.966  1.00  0.00     0.019 A 
HETATM   18  C10 UNL     1      26.431   6.359  49.213  1.00  0.00     0.013 A 
HETATM   19 BR1  UNL     1      27.838   6.942  48.047  1.00  0.00    -0.051 Br
HETATM   20  C11 UNL     1      26.238   4.993  49.293  1.00  0.00     0.048 A 
ENDBRANCH  12  14
ENDBRANCH   4  12
BRANCH   1  21
HETATM   21  O1  UNL     1      20.956   0.716  52.148  1.00  0.00    -0.355 OA
HETATM   22  C1  UNL     1      20.074   1.794  52.342  1.00  0.00     0.210 C 
ENDBRANCH   1  21
TORSDOF 3
ENDMDL
MODEL 7
REMARK VINA RESULT:      -6.9      3.284      5.236
REMARK  3 active torsions:
REMARK  status: ('A' for Active; 'I' for Inactive)
REMARK    1  A    between atoms: O1_2  and  C2_3 
REMARK    2  A    between atoms: C5_6  and  N1_7 
REMARK    3  A    between atoms: N1_7  and  C6_8 
ROOT
HETATM    1  C2  UNL     1      25.754   0.525  52.929  1.00  0.00     0.075 A 
HETATM    2  C3  UNL     1      24.418   0.407  52.594  1.00  0.00     0.055 A 
HETATM    3  C4  UNL     1      23.489  -0.245  53.355  1.00  0.00     0.041 A 
HETATM    4  C5  UNL     1      22.182  -0.316  52.942  1.00  0.00     0.142 A 
HETATM    5  N2  UNL     1      21.304  -0.973  53.722  1.00  0.00    -0.224 NA
HETATM    6  C12 UNL     1      21.674  -1.559  54.888  1.00  0.00     0.236 A 
HETATM    7  N3  UNL     1      22.954  -1.477  55.271  1.00  0.00    -0.241 NA
HETATM    8  C13 UNL     1      23.872  -0.830  54.526  1.00  0.00     0.072 A 
HETATM    9  C14 UNL     1      25.216  -0.731  54.897  1.00  0.00     0.042 A 
HETATM   10  C15 UNL     1      26.159  -0.071  54.130  1.00  0.00    -0.026 A 
HETATM   11  C16 UNL     1      27.584   0.006  54.594  1.00  0.00     0.051 C 
ENDROOT
BRANCH   4  12
HETATM   12  N1  UNL     1      21.721   0.308  51.752  1.00  0.00    -0.340 N 
HETATM   13  H5  UNL     1      21.928  -0.073  50.811  1.00  0.00     0.167 HD
BRANCH  12  14
HETATM   14  C6  UNL     1      20.931   1.514  51.655  1.00  0.00     0.035 A 
HETATM   15  C7  UNL     1      19.554   1.476  51.688  1.00  0.00     0.029 A 
HETATM   16  C8  UNL     1      18.816   2.656  51.619  1.00  0.00     0.004 A 
HETATM   17  C9  UNL     1      19.476   3.849  51.518  1.00  0.00     0.019 A 
HETATM   18  C10 UNL     1      20.852   3.928  51.483  1.00  0.00     0.013 A 
HETATM   19 BR1  UNL     1      21.880   5.541  51.349  1.00  0.00    -0.051 Br
HETATM   20  C11 UNL     1      21.576   2.753  51.553  1.00  0.00     0.048 A 
ENDBRANCH  12  14
ENDBRANCH   4  12
BRANCH   1  21
HETATM   21  O1  UNL     1      26.744   1.157  52.228  1.00  0.00    -0.355 OA
HETATM   22  C1  UNL     1      26.632   2.375  51.534  1.00  0.00     0.210 C 
ENDBRANCH   1  21
TORSDOF 3
ENDMDL
MODEL 8
REMARK VINA RESULT:      -6.9      2.716      3.314
REMARK  3 active torsions:
REMARK  status: ('A' for Active; 'I' for Inactive)
REMARK    1  A    between atoms: O1_2  and  C2_3 
REMARK    2  A    between atoms: C5_6  and  N1_7 
REMARK    3  A    between atoms: N1_7  and  C6_8 
ROOT
HETATM    1  C2  UNL     1      22.013   0.432  53.502  1.00  0.00     0.075 A 
HETATM    2  C3  UNL     1      22.599   1.357  52.658  1.00  0.00     0.055 A 
HETATM    3  C4  UNL     1      23.928   1.375  52.342  1.00  0.00     0.041 A 
HETATM    4  C5  UNL     1      24.427   2.334  51.496  1.00  0.00     0.142 A 
HETATM    5  N2  UNL     1      25.743   2.314  51.217  1.00  0.00    -0.224 NA
HETATM    6  C12 UNL     1      26.578   1.384  51.745  1.00  0.00     0.236 A 
HETATM    7  N3  UNL     1      26.070   0.457  52.567  1.00  0.00    -0.241 NA
HETATM    8  C13 UNL     1      24.758   0.434  52.877  1.00  0.00     0.072 A 
HETATM    9  C14 UNL     1      24.200  -0.517  53.736  1.00  0.00     0.042 A 
HETATM   10  C15 UNL     1      22.854  -0.539  54.058  1.00  0.00    -0.026 A 
HETATM   11  C16 UNL     1      22.320  -1.596  54.979  1.00  0.00     0.051 C 
ENDROOT
BRANCH   4  12
HETATM   12  N1  UNL     1      23.602   3.312  50.879  1.00  0.00    -0.340 N 
HETATM   13  H5  UNL     1      23.308   4.177  51.368  1.00  0.00     0.167 HD
BRANCH  12  14
HETATM   14  C6  UNL     1      23.059   3.270  49.540  1.00  0.00     0.035 A 
HETATM   15  C7  UNL     1      22.599   2.093  48.988  1.00  0.00     0.029 A 
HETATM   16  C8  UNL     1      22.058   2.084  47.704  1.00  0.00     0.004 A 
HETATM   17  C9  UNL     1      21.989   3.254  47.002  1.00  0.00     0.019 A 
HETATM   18  C10 UNL     1      22.437   4.451  47.520  1.00  0.00     0.013 A 
HETATM   19 BR1  UNL     1      22.385   6.149  46.630  1.00  0.00    -0.051 Br
HETATM   20  C11 UNL     1      22.972   4.452  48.794  1.00  0.00     0.048 A 
ENDBRANCH  12  14
ENDBRANCH   4  12
BRANCH   1  21
HETATM   21  O1  UNL     1      20.698   0.345  53.869  1.00  0.00    -0.355 OA
HETATM   22  C1  UNL     1      19.629  -0.080  53.061  1.00  0.00     0.210 C 
ENDBRANCH   1  21
TORSDOF 3
ENDMDL
MODEL 9
REMARK VINA RESULT:      -6.9      4.118      6.637
REMARK  3 active torsions:
REMARK  status: ('A' for Active; 'I' for Inactive)
REMARK    1  A    between atoms: O1_2  and  C2_3 
REMARK    2  A    between atoms: C5_6  and  N1_7 
REMARK    3  A    between atoms: N1_7  and  C6_8 
ROOT
HETATM    1  C2  UNL     1      24.253   1.940  51.670  1.00  0.00     0.075 A 
HETATM    2  C3  UNL     1      23.047   1.608  52.258  1.00  0.00     0.055 A 
HETATM    3  C4  UNL     1      22.897   0.643  53.215  1.00  0.00     0.041 A 
HETATM    4  C5  UNL     1      21.658   0.377  53.743  1.00  0.00     0.142 A 
HETATM    5  N2  UNL     1      21.559  -0.584  54.678  1.00  0.00    -0.224 NA
HETATM    6  C12 UNL     1      22.637  -1.288  55.106  1.00  0.00     0.236 A 
HETATM    7  N3  UNL     1      23.835  -1.011  54.578  1.00  0.00    -0.241 NA
HETATM    8  C13 UNL     1      23.988  -0.057  53.638  1.00  0.00     0.072 A 
HETATM    9  C14 UNL     1      25.225   0.251  53.064  1.00  0.00     0.042 A 
HETATM   10  C15 UNL     1      25.380   1.228  52.096  1.00  0.00    -0.026 A 
HETATM   11  C16 UNL     1      26.741   1.514  51.531  1.00  0.00     0.051 C 
ENDROOT
BRANCH   4  12
HETATM   12  N1  UNL     1      20.495   1.103  53.368  1.00  0.00    -0.340 N 
HETATM   13  H5  UNL     1      20.231   1.997  53.819  1.00  0.00     0.167 HD
BRANCH  12  14
HETATM   14  C6  UNL     1      19.536   0.737  52.351  1.00  0.00     0.035 A 
HETATM   15  C7  UNL     1      19.631   1.222  51.064  1.00  0.00     0.029 A 
HETATM   16  C8  UNL     1      18.706   0.833  50.096  1.00  0.00     0.004 A 
HETATM   17  C9  UNL     1      17.706  -0.032  50.441  1.00  0.00     0.019 A 
HETATM   18  C10 UNL     1      17.578  -0.539  51.716  1.00  0.00     0.013 A 
HETATM   19 BR1  UNL     1      16.222  -1.760  52.308  1.00  0.00    -0.051 Br
HETATM   20  C11 UNL     1      18.499  -0.150  52.670  1.00  0.00     0.048 A 
ENDBRANCH  12  14
ENDBRANCH   4  12
BRANCH   1  21
HETATM   21  O1  UNL     1      24.488   2.886  50.711  1.00  0.00    -0.355 OA
HETATM   22  C1  UNL     1      24.324   4.276  50.848  1.00  0.00     0.210 C 
ENDBRANCH   1  21
TORSDOF 3
ENDMDL
