MODEL 1
REMARK VINA RESULT:      -8.8      0.000      0.000
REMARK  7 active torsions:
REMARK  status: ('A' for Active; 'I' for Inactive)
REMARK    1  A    between atoms: O1_1  and  S1_2 
REMARK    2  A    between atoms: S1_2  and  C1_3 
REMARK    3  A    between atoms: C5_7  and  C6_8 
REMARK    4  A    between atoms: C6_8  and  C7_9 
REMARK    5  A    between atoms: C9_11  and  C10_12 
REMARK    6  A    between atoms: N2_20  and  C16_21 
REMARK    7  A    between atoms: C17_23  and  O2_24 
ROOT
HETATM    1  C7  UNL     1      24.685   2.751  51.813  1.00  0.00     0.122 C 
HETATM    2  C8  UNL     1      23.741   1.687  51.275  1.00  0.00     0.089 C 
HETATM    3  C9  UNL     1      23.358   0.996  52.563  1.00  0.00     0.067 C 
HETATM    4  N1  UNL     1      24.359   1.171  53.388  1.00  0.00    -0.174 NA
HETATM    5  N2  UNL     1      25.396   1.912  52.796  1.00  0.00    -0.240 N 
ENDROOT
BRANCH   1   6
HETATM    6  C6  UNL     1      25.671   3.264  50.836  1.00  0.00     0.062 C 
BRANCH   6   7
HETATM    7  C5  UNL     1      25.219   4.518  50.163  1.00  0.00    -0.077 C 
HETATM    8  C4  UNL     1      23.832   5.006  50.365  1.00  0.00     0.060 C 
HETATM    9  C3  UNL     1      23.208   5.272  49.010  1.00  0.00    -0.025 C 
HETATM   10  C2  UNL     1      24.083   5.991  48.293  1.00  0.00    -0.009 C 
HETATM   11  C1  UNL     1      25.408   6.415  48.795  1.00  0.00     0.121 C 
HETATM   12  C19 UNL     1      26.067   5.200  49.370  1.00  0.00    -0.003 C 
BRANCH  11  13
HETATM   13  S1  UNL     1      25.319   7.672  50.078  1.00  0.00    -0.003 SA
BRANCH  13  14
HETATM   14  O1  UNL     1      26.870   8.138  50.630  1.00  0.00    -0.329 OA
HETATM   15  H1  UNL     1      26.923   8.240  51.617  1.00  0.00     0.227 HD
ENDBRANCH  13  14
ENDBRANCH  11  13
ENDBRANCH   6   7
ENDBRANCH   1   6
BRANCH   5  16
HETATM   16  C16 UNL     1      26.722   1.697  53.241  1.00  0.00     0.192 A 
HETATM   17  N3  UNL     1      27.558   2.455  53.828  1.00  0.00    -0.198 NA
HETATM   18  C17 UNL     1      28.753   1.991  54.151  1.00  0.00     0.171 A 
HETATM   19  C18 UNL     1      29.142   0.637  53.854  1.00  0.00     0.111 A 
HETATM   20  S2  UNL     1      27.551   0.039  53.017  1.00  0.00    -0.058 SA
BRANCH  18  21
HETATM   21  O2  UNL     1      29.910   2.440  54.764  1.00  0.00    -0.344 OA
HETATM   22  H16 UNL     1      30.766   2.703  54.257  1.00  0.00     0.219 HD
ENDBRANCH  18  21
ENDBRANCH   5  16
BRANCH   3  23
HETATM   23  C10 UNL     1      22.120   0.280  52.863  1.00  0.00    -0.010 A 
HETATM   24  C11 UNL     1      22.171  -0.658  53.865  1.00  0.00     0.015 A 
HETATM   25  C12 UNL     1      21.029  -1.332  54.161  1.00  0.00     0.024 A 
HETATM   26  C13 UNL     1      19.871  -1.053  53.450  1.00  0.00     0.034 A 
HETATM   27 CL1  UNL     1      18.360  -1.897  53.790  1.00  0.00    -0.084 Cl
HETATM   28  C14 UNL     1      19.852  -0.105  52.449  1.00  0.00     0.024 A 
HETATM   29  C15 UNL     1      20.995   0.618  52.104  1.00  0.00     0.015 A 
ENDBRANCH   3  23
TORSDOF 7
ENDMDL
MODEL 2
REMARK VINA RESULT:      -8.8      2.370      5.895
REMARK  7 active torsions:
REMARK  status: ('A' for Active; 'I' for Inactive)
REMARK    1  A    between atoms: O1_1  and  S1_2 
REMARK    2  A    between atoms: S1_2  and  C1_3 
REMARK    3  A    between atoms: C5_7  and  C6_8 
REMARK    4  A    between atoms: C6_8  and  C7_9 
REMARK    5  A    between atoms: C9_11  and  C10_12 
REMARK    6  A    between atoms: N2_20  and  C16_21 
REMARK    7  A    between atoms: C17_23  and  O2_24 
ROOT
HETATM    1  C7  UNL     1      23.884   1.349  52.592  1.00  0.00     0.122 C 
HETATM    2  C8  UNL     1      22.652   0.988  53.407  1.00  0.00     0.089 C 
HETATM    3  C9  UNL     1      21.578   1.182  52.362  1.00  0.00     0.067 C 
HETATM    4  N1  UNL     1      22.038   2.071  51.519  1.00  0.00    -0.174 NA
HETATM    5  N2  UNL     1      23.323   2.512  51.880  1.00  0.00    -0.240 N 
ENDROOT
BRANCH   1   6
HETATM    6  C6  UNL     1      25.048   1.803  53.386  1.00  0.00     0.062 C 
BRANCH   6   7
HETATM    7  C5  UNL     1      26.149   0.797  53.427  1.00  0.00    -0.077 C 
HETATM    8  C4  UNL     1      26.449   0.082  54.694  1.00  0.00     0.060 C 
HETATM    9  C3  UNL     1      27.933   0.200  54.978  1.00  0.00    -0.025 C 
HETATM   10  C2  UNL     1      28.589  -0.110  53.852  1.00  0.00    -0.009 C 
HETATM   11  C1  UNL     1      27.922  -0.490  52.587  1.00  0.00     0.121 C 
HETATM   12  C19 UNL     1      26.871   0.542  52.320  1.00  0.00    -0.003 C 
BRANCH  11  13
HETATM   13  S1  UNL     1      27.129  -2.102  52.652  1.00  0.00    -0.003 SA
BRANCH  13  14
HETATM   14  O1  UNL     1      28.258  -3.366  52.883  1.00  0.00    -0.329 OA
HETATM   15  H1  UNL     1      28.139  -4.122  52.250  1.00  0.00     0.227 HD
ENDBRANCH  13  14
ENDBRANCH  11  13
ENDBRANCH   6   7
ENDBRANCH   1   6
BRANCH   5  16
HETATM   16  C16 UNL     1      23.720   3.819  51.510  1.00  0.00     0.192 A 
HETATM   17  N3  UNL     1      23.467   4.960  52.010  1.00  0.00    -0.198 NA
HETATM   18  C17 UNL     1      23.986   6.047  51.466  1.00  0.00     0.171 A 
HETATM   19  C18 UNL     1      24.838   5.977  50.308  1.00  0.00     0.111 A 
HETATM   20  S2  UNL     1      24.839   4.102  50.042  1.00  0.00    -0.058 SA
BRANCH  18  21
HETATM   21  O2  UNL     1      23.978   7.417  51.671  1.00  0.00    -0.344 OA
HETATM   22  H16 UNL     1      24.472   7.886  52.440  1.00  0.00     0.219 HD
ENDBRANCH  18  21
ENDBRANCH   5  16
BRANCH   3  23
HETATM   23  C10 UNL     1      20.280   0.516  52.276  1.00  0.00    -0.010 A 
HETATM   24  C11 UNL     1      19.527   0.762  51.153  1.00  0.00     0.015 A 
HETATM   25  C12 UNL     1      18.319   0.148  51.053  1.00  0.00     0.024 A 
HETATM   26  C13 UNL     1      17.896  -0.691  52.073  1.00  0.00     0.034 A 
HETATM   27 CL1  UNL     1      16.337  -1.512  51.997  1.00  0.00    -0.084 Cl
HETATM   28  C14 UNL     1      18.675  -0.918  53.188  1.00  0.00     0.024 A 
HETATM   29  C15 UNL     1      19.924  -0.315  53.342  1.00  0.00     0.015 A 
ENDBRANCH   3  23
TORSDOF 7
ENDMDL
MODEL 3
REMARK VINA RESULT:      -8.7      2.349      2.859
REMARK  7 active torsions:
REMARK  status: ('A' for Active; 'I' for Inactive)
REMARK    1  A    between atoms: O1_1  and  S1_2 
REMARK    2  A    between atoms: S1_2  and  C1_3 
REMARK    3  A    between atoms: C5_7  and  C6_8 
REMARK    4  A    between atoms: C6_8  and  C7_9 
REMARK    5  A    between atoms: C9_11  and  C10_12 
REMARK    6  A    between atoms: N2_20  and  C16_21 
REMARK    7  A    between atoms: C17_23  and  O2_24 
ROOT
HETATM    1  C7  UNL     1      25.280   1.617  52.524  1.00  0.00     0.122 C 
HETATM    2  C8  UNL     1      24.034   1.186  51.766  1.00  0.00     0.089 C 
HETATM    3  C9  UNL     1      23.438   0.219  52.763  1.00  0.00     0.067 C 
HETATM    4  N1  UNL     1      24.437  -0.251  53.465  1.00  0.00    -0.174 NA
HETATM    5  N2  UNL     1      25.665   0.294  53.050  1.00  0.00    -0.240 N 
ENDROOT
BRANCH   1   6
HETATM    6  C6  UNL     1      26.382   2.124  51.678  1.00  0.00     0.062 C 
BRANCH   6   7
HETATM    7  C5  UNL     1      25.941   3.188  50.729  1.00  0.00    -0.077 C 
HETATM    8  C4  UNL     1      26.438   3.181  49.329  1.00  0.00     0.060 C 
HETATM    9  C3  UNL     1      26.990   4.554  49.002  1.00  0.00    -0.025 C 
HETATM   10  C2  UNL     1      26.086   5.460  49.398  1.00  0.00    -0.009 C 
HETATM   11  C1  UNL     1      24.797   5.115  50.035  1.00  0.00     0.121 C 
HETATM   12  C19 UNL     1      25.100   4.154  51.142  1.00  0.00    -0.003 C 
BRANCH  11  13
HETATM   13  S1  UNL     1      23.628   4.336  48.913  1.00  0.00    -0.003 SA
BRANCH  13  14
HETATM   14  O1  UNL     1      22.420   3.460  49.749  1.00  0.00    -0.329 OA
HETATM   15  H1  UNL     1      22.526   2.475  49.678  1.00  0.00     0.227 HD
ENDBRANCH  13  14
ENDBRANCH  11  13
ENDBRANCH   6   7
ENDBRANCH   1   6
BRANCH   5  16
HETATM   16  C16 UNL     1      26.841  -0.475  53.221  1.00  0.00     0.192 A 
HETATM   17  N3  UNL     1      27.071  -1.719  53.095  1.00  0.00    -0.198 NA
HETATM   18  C17 UNL     1      28.289  -2.188  53.306  1.00  0.00     0.171 A 
HETATM   19  C18 UNL     1      29.376  -1.322  53.680  1.00  0.00     0.111 A 
HETATM   20  S2  UNL     1      28.452   0.332  53.707  1.00  0.00    -0.058 SA
BRANCH  18  21
HETATM   21  O2  UNL     1      28.952  -3.403  53.283  1.00  0.00    -0.344 OA
HETATM   22  H16 UNL     1      29.182  -3.949  54.123  1.00  0.00     0.219 HD
ENDBRANCH  18  21
ENDBRANCH   5  16
BRANCH   3  23
HETATM   23  C10 UNL     1      22.031  -0.132  52.942  1.00  0.00    -0.010 A 
HETATM   24  C11 UNL     1      21.126   0.478  52.107  1.00  0.00     0.015 A 
HETATM   25  C12 UNL     1      19.813   0.161  52.255  1.00  0.00     0.024 A 
HETATM   26  C13 UNL     1      19.440  -0.752  53.231  1.00  0.00     0.034 A 
HETATM   27 CL1  UNL     1      17.751  -1.200  53.468  1.00  0.00    -0.084 Cl
HETATM   28  C14 UNL     1      20.372  -1.348  54.054  1.00  0.00     0.024 A 
HETATM   29  C15 UNL     1      21.734  -1.060  53.945  1.00  0.00     0.015 A 
ENDBRANCH   3  23
TORSDOF 7
ENDMDL
MODEL 4
REMARK VINA RESULT:      -8.7      2.180      5.473
REMARK  7 active torsions:
REMARK  status: ('A' for Active; 'I' for Inactive)
REMARK    1  A    between atoms: O1_1  and  S1_2 
REMARK    2  A    between atoms: S1_2  and  C1_3 
REMARK    3  A    between atoms: C5_7  and  C6_8 
REMARK    4  A    between atoms: C6_8  and  C7_9 
REMARK    5  A    between atoms: C9_11  and  C10_12 
REMARK    6  A    between atoms: N2_20  and  C16_21 
REMARK    7  A    between atoms: C17_23  and  O2_24 
ROOT
HETATM    1  C7  UNL     1      23.758   1.744  52.418  1.00  0.00     0.122 C 
HETATM    2  C8  UNL     1      22.424   1.411  53.067  1.00  0.00     0.089 C 
HETATM    3  C9  UNL     1      21.498   1.619  51.890  1.00  0.00     0.067 C 
HETATM    4  N1  UNL     1      22.082   2.494  51.112  1.00  0.00    -0.174 NA
HETATM    5  N2  UNL     1      23.318   2.913  51.635  1.00  0.00    -0.240 N 
ENDROOT
BRANCH   1   6
HETATM    6  C6  UNL     1      24.817   2.180  53.355  1.00  0.00     0.062 C 
BRANCH   6   7
HETATM    7  C5  UNL     1      26.010   1.283  53.339  1.00  0.00    -0.077 C 
HETATM    8  C4  UNL     1      26.616   0.883  52.044  1.00  0.00     0.060 C 
HETATM    9  C3  UNL     1      26.762  -0.626  52.022  1.00  0.00    -0.025 C 
HETATM   10  C2  UNL     1      27.327  -0.996  53.179  1.00  0.00    -0.009 C 
HETATM   11  C1  UNL     1      27.714  -0.050  54.248  1.00  0.00     0.121 C 
HETATM   12  C19 UNL     1      26.533   0.835  54.496  1.00  0.00    -0.003 C 
BRANCH  11  13
HETATM   13  S1  UNL     1      29.117   0.987  53.814  1.00  0.00    -0.003 SA
BRANCH  13  14
HETATM   14  O1  UNL     1      29.361   2.246  54.946  1.00  0.00    -0.329 OA
HETATM   15  H1  UNL     1      28.522   2.558  55.376  1.00  0.00     0.227 HD
ENDBRANCH  13  14
ENDBRANCH  11  13
ENDBRANCH   6   7
ENDBRANCH   1   6
BRANCH   5  16
HETATM   16  C16 UNL     1      23.785   4.210  51.315  1.00  0.00     0.192 A 
HETATM   17  N3  UNL     1      23.519   5.355  51.799  1.00  0.00    -0.198 NA
HETATM   18  C17 UNL     1      24.118   6.430  51.316  1.00  0.00     0.171 A 
HETATM   19  C18 UNL     1      25.074   6.341  50.243  1.00  0.00     0.111 A 
HETATM   20  S2  UNL     1      25.046   4.468  49.963  1.00  0.00    -0.058 SA
BRANCH  18  21
HETATM   21  O2  UNL     1      24.129   7.798  51.531  1.00  0.00    -0.344 OA
HETATM   22  H16 UNL     1      24.193   8.234  52.459  1.00  0.00     0.219 HD
ENDBRANCH  18  21
ENDBRANCH   5  16
BRANCH   3  23
HETATM   23  C10 UNL     1      20.210   0.978  51.638  1.00  0.00    -0.010 A 
HETATM   24  C11 UNL     1      19.724   0.151  52.621  1.00  0.00     0.015 A 
HETATM   25  C12 UNL     1      18.524  -0.452  52.406  1.00  0.00     0.024 A 
HETATM   26  C13 UNL     1      17.847  -0.215  51.218  1.00  0.00     0.034 A 
HETATM   27 CL1  UNL     1      16.289  -0.970  50.886  1.00  0.00    -0.084 Cl
HETATM   28  C14 UNL     1      18.362   0.622  50.251  1.00  0.00     0.024 A 
HETATM   29  C15 UNL     1      19.588   1.267  50.420  1.00  0.00     0.015 A 
ENDBRANCH   3  23
TORSDOF 7
ENDMDL
MODEL 5
REMARK VINA RESULT:      -8.6      4.343      7.170
REMARK  7 active torsions:
REMARK  status: ('A' for Active; 'I' for Inactive)
REMARK    1  A    between atoms: O1_1  and  S1_2 
REMARK    2  A    between atoms: S1_2  and  C1_3 
REMARK    3  A    between atoms: C5_7  and  C6_8 
REMARK    4  A    between atoms: C6_8  and  C7_9 
REMARK    5  A    between atoms: C9_11  and  C10_12 
REMARK    6  A    between atoms: N2_20  and  C16_21 
REMARK    7  A    between atoms: C17_23  and  O2_24 
ROOT
HETATM    1  C7  UNL     1      24.500   1.440  51.809  1.00  0.00     0.122 C 
HETATM    2  C8  UNL     1      24.692   2.947  51.872  1.00  0.00     0.089 C 
HETATM    3  C9  UNL     1      25.777   3.120  50.835  1.00  0.00     0.067 C 
HETATM    4  N1  UNL     1      26.440   1.993  50.803  1.00  0.00    -0.174 NA
HETATM    5  N2  UNL     1      25.922   1.059  51.716  1.00  0.00    -0.240 N 
ENDROOT
BRANCH   1   6
HETATM    6  C6  UNL     1      23.931   0.831  53.031  1.00  0.00     0.062 C 
BRANCH   6   7
HETATM    7  C5  UNL     1      22.484   0.490  52.888  1.00  0.00    -0.077 C 
HETATM    8  C4  UNL     1      22.019  -0.273  51.702  1.00  0.00     0.060 C 
HETATM    9  C3  UNL     1      20.851   0.464  51.078  1.00  0.00    -0.025 C 
HETATM   10  C2  UNL     1      19.996   0.778  52.062  1.00  0.00    -0.009 C 
HETATM   11  C1  UNL     1      20.215   0.437  53.484  1.00  0.00     0.121 C 
HETATM   12  C19 UNL     1      21.604   0.877  53.830  1.00  0.00    -0.003 C 
BRANCH  11  13
HETATM   13  S1  UNL     1      20.077  -1.322  53.830  1.00  0.00    -0.003 SA
BRANCH  13  14
HETATM   14  O1  UNL     1      21.136  -1.818  55.077  1.00  0.00    -0.329 OA
HETATM   15  H1  UNL     1      21.966  -1.275  55.129  1.00  0.00     0.227 HD
ENDBRANCH  13  14
ENDBRANCH  11  13
ENDBRANCH   6   7
ENDBRANCH   1   6
BRANCH   5  16
HETATM   16  C16 UNL     1      26.794   0.087  52.262  1.00  0.00     0.192 A 
HETATM   17  N3  UNL     1      26.850  -1.176  52.134  1.00  0.00    -0.198 NA
HETATM   18  C17 UNL     1      27.794  -1.861  52.757  1.00  0.00     0.171 A 
HETATM   19  C18 UNL     1      28.773  -1.210  53.588  1.00  0.00     0.111 A 
HETATM   20  S2  UNL     1      28.195   0.584  53.393  1.00  0.00    -0.058 SA
BRANCH  18  21
HETATM   21  O2  UNL     1      28.206  -3.176  52.892  1.00  0.00    -0.344 OA
HETATM   22  H16 UNL     1      29.185  -3.461  53.025  1.00  0.00     0.219 HD
ENDBRANCH  18  21
ENDBRANCH   5  16
BRANCH   3  23
HETATM   23  C10 UNL     1      26.049   4.294  50.008  1.00  0.00    -0.010 A 
HETATM   24  C11 UNL     1      27.196   4.271  49.253  1.00  0.00     0.015 A 
HETATM   25  C12 UNL     1      27.464   5.352  48.474  1.00  0.00     0.024 A 
HETATM   26  C13 UNL     1      26.584   6.424  48.472  1.00  0.00     0.034 A 
HETATM   27 CL1  UNL     1      26.882   7.853  47.483  1.00  0.00    -0.084 Cl
HETATM   28  C14 UNL     1      25.440   6.417  49.243  1.00  0.00     0.024 A 
HETATM   29  C15 UNL     1      25.115   5.333  50.060  1.00  0.00     0.015 A 
ENDBRANCH   3  23
TORSDOF 7
ENDMDL
MODEL 6
REMARK VINA RESULT:      -8.6      4.567      8.435
REMARK  7 active torsions:
REMARK  status: ('A' for Active; 'I' for Inactive)
REMARK    1  A    between atoms: O1_1  and  S1_2 
REMARK    2  A    between atoms: S1_2  and  C1_3 
REMARK    3  A    between atoms: C5_7  and  C6_8 
REMARK    4  A    between atoms: C6_8  and  C7_9 
REMARK    5  A    between atoms: C9_11  and  C10_12 
REMARK    6  A    between atoms: N2_20  and  C16_21 
REMARK    7  A    between atoms: C17_23  and  O2_24 
ROOT
HETATM    1  C7  UNL     1      25.397   3.116  51.157  1.00  0.00     0.122 C 
HETATM    2  C8  UNL     1      26.222   3.233  49.886  1.00  0.00     0.089 C 
HETATM    3  C9  UNL     1      25.930   4.667  49.511  1.00  0.00     0.067 C 
HETATM    4  N1  UNL     1      24.754   4.948  50.012  1.00  0.00    -0.174 NA
HETATM    5  N2  UNL     1      24.204   3.848  50.693  1.00  0.00    -0.240 N 
ENDROOT
BRANCH   1   6
HETATM    6  C6  UNL     1      24.990   1.738  51.514  1.00  0.00     0.062 C 
BRANCH   6   7
HETATM    7  C5  UNL     1      25.977   1.056  52.404  1.00  0.00    -0.077 C 
HETATM    8  C4  UNL     1      26.724  -0.127  51.907  1.00  0.00     0.060 C 
HETATM    9  C3  UNL     1      26.587  -1.248  52.917  1.00  0.00    -0.025 C 
HETATM   10  C2  UNL     1      26.849  -0.738  54.128  1.00  0.00    -0.009 C 
HETATM   11  C1  UNL     1      27.203   0.677  54.368  1.00  0.00     0.121 C 
HETATM   12  C19 UNL     1      26.183   1.509  53.654  1.00  0.00    -0.003 C 
BRANCH  11  13
HETATM   13  S1  UNL     1      28.831   1.124  53.750  1.00  0.00    -0.003 SA
BRANCH  13  14
HETATM   14  O1  UNL     1      29.502   2.446  54.603  1.00  0.00    -0.329 OA
HETATM   15  H1  UNL     1      29.393   3.315  54.133  1.00  0.00     0.227 HD
ENDBRANCH  13  14
ENDBRANCH  11  13
ENDBRANCH   6   7
ENDBRANCH   1   6
BRANCH   5  16
HETATM   16  C16 UNL     1      22.796   3.728  50.761  1.00  0.00     0.192 A 
HETATM   17  N3  UNL     1      21.983   3.766  51.738  1.00  0.00    -0.198 NA
HETATM   18  C17 UNL     1      20.685   3.637  51.520  1.00  0.00     0.171 A 
HETATM   19  C18 UNL     1      20.158   3.451  50.194  1.00  0.00     0.111 A 
HETATM   20  S2  UNL     1      21.780   3.478  49.215  1.00  0.00    -0.058 SA
BRANCH  18  21
HETATM   21  O2  UNL     1      19.507   3.619  52.248  1.00  0.00    -0.344 OA
HETATM   22  H16 UNL     1      18.749   4.303  52.132  1.00  0.00     0.219 HD
ENDBRANCH  18  21
ENDBRANCH   5  16
BRANCH   3  23
HETATM   23  C10 UNL     1      26.776   5.587  48.754  1.00  0.00    -0.010 A 
HETATM   24  C11 UNL     1      28.083   5.212  48.558  1.00  0.00     0.015 A 
HETATM   25  C12 UNL     1      28.885   6.052  47.852  1.00  0.00     0.024 A 
HETATM   26  C13 UNL     1      28.362   7.242  47.365  1.00  0.00     0.034 A 
HETATM   27 CL1  UNL     1      29.357   8.370  46.445  1.00  0.00    -0.084 Cl
HETATM   28  C14 UNL     1      27.045   7.590  47.578  1.00  0.00     0.024 A 
HETATM   29  C15 UNL     1      26.178   6.764  48.295  1.00  0.00     0.015 A 
ENDBRANCH   3  23
TORSDOF 7
ENDMDL
MODEL 7
REMARK VINA RESULT:      -8.3      2.221      5.497
REMARK  7 active torsions:
REMARK  status: ('A' for Active; 'I' for Inactive)
REMARK    1  A    between atoms: O1_1  and  S1_2 
REMARK    2  A    between atoms: S1_2  and  C1_3 
REMARK    3  A    between atoms: C5_7  and  C6_8 
REMARK    4  A    between atoms: C6_8  and  C7_9 
REMARK    5  A    between atoms: C9_11  and  C10_12 
REMARK    6  A    between atoms: N2_20  and  C16_21 
REMARK    7  A    between atoms: C17_23  and  O2_24 
ROOT
HETATM    1  C7  UNL     1      24.010   1.392  52.240  1.00  0.00     0.122 C 
HETATM    2  C8  UNL     1      22.577   1.559  52.722  1.00  0.00     0.089 C 
HETATM    3  C9  UNL     1      21.843   1.473  51.404  1.00  0.00     0.067 C 
HETATM    4  N1  UNL     1      22.681   1.882  50.486  1.00  0.00    -0.174 NA
HETATM    5  N2  UNL     1      23.921   2.244  51.040  1.00  0.00    -0.240 N 
ENDROOT
BRANCH   1   6
HETATM    6  C6  UNL     1      25.042   1.955  53.139  1.00  0.00     0.062 C 
BRANCH   6   7
HETATM    7  C5  UNL     1      26.237   1.071  53.273  1.00  0.00    -0.077 C 
HETATM    8  C4  UNL     1      26.845   0.462  52.063  1.00  0.00     0.060 C 
HETATM    9  C3  UNL     1      26.995  -1.028  52.292  1.00  0.00    -0.025 C 
HETATM   10  C2  UNL     1      27.560  -1.200  53.495  1.00  0.00    -0.009 C 
HETATM   11  C1  UNL     1      27.943  -0.088  54.392  1.00  0.00     0.121 C 
HETATM   12  C19 UNL     1      26.759   0.823  54.489  1.00  0.00    -0.003 C 
BRANCH  11  13
HETATM   13  S1  UNL     1      29.344   0.866  53.792  1.00  0.00    -0.003 SA
BRANCH  13  14
HETATM   14  O1  UNL     1      29.400   2.430  54.482  1.00  0.00    -0.329 OA
HETATM   15  H1  UNL     1      30.322   2.785  54.583  1.00  0.00     0.227 HD
ENDBRANCH  13  14
ENDBRANCH  11  13
ENDBRANCH   6   7
ENDBRANCH   1   6
BRANCH   5  16
HETATM   16  C16 UNL     1      24.696   3.228  50.382  1.00  0.00     0.192 A 
HETATM   17  N3  UNL     1      25.856   3.193  49.863  1.00  0.00    -0.198 NA
HETATM   18  C17 UNL     1      26.353   4.274  49.286  1.00  0.00     0.171 A 
HETATM   19  C18 UNL     1      25.611   5.506  49.229  1.00  0.00     0.111 A 
HETATM   20  S2  UNL     1      24.036   4.956  50.127  1.00  0.00    -0.058 SA
BRANCH  18  21
HETATM   21  O2  UNL     1      27.509   4.664  48.631  1.00  0.00    -0.344 OA
HETATM   22  H16 UNL     1      27.533   5.347  47.863  1.00  0.00     0.219 HD
ENDBRANCH  18  21
ENDBRANCH   5  16
BRANCH   3  23
HETATM   23  C10 UNL     1      20.475   1.017  51.168  1.00  0.00    -0.010 A 
HETATM   24  C11 UNL     1      19.857   1.465  50.026  1.00  0.00     0.015 A 
HETATM   25  C12 UNL     1      18.586   1.048  49.787  1.00  0.00     0.024 A 
HETATM   26  C13 UNL     1      17.967   0.198  50.693  1.00  0.00     0.034 A 
HETATM   27 CL1  UNL     1      16.319  -0.373  50.434  1.00  0.00    -0.084 Cl
HETATM   28  C14 UNL     1      18.614  -0.235  51.831  1.00  0.00     0.024 A 
HETATM   29  C15 UNL     1      19.920   0.161  52.125  1.00  0.00     0.015 A 
ENDBRANCH   3  23
TORSDOF 7
ENDMDL
MODEL 8
REMARK VINA RESULT:      -8.2      4.355      7.096
REMARK  7 active torsions:
REMARK  status: ('A' for Active; 'I' for Inactive)
REMARK    1  A    between atoms: O1_1  and  S1_2 
REMARK    2  A    between atoms: S1_2  and  C1_3 
REMARK    3  A    between atoms: C5_7  and  C6_8 
REMARK    4  A    between atoms: C6_8  and  C7_9 
REMARK    5  A    between atoms: C9_11  and  C10_12 
REMARK    6  A    between atoms: N2_20  and  C16_21 
REMARK    7  A    between atoms: C17_23  and  O2_24 
ROOT
HETATM    1  C7  UNL     1      24.625   2.212  51.030  1.00  0.00     0.122 C 
HETATM    2  C8  UNL     1      24.685   3.731  50.977  1.00  0.00     0.089 C 
HETATM    3  C9  UNL     1      25.966   3.920  50.198  1.00  0.00     0.067 C 
HETATM    4  N1  UNL     1      26.700   2.862  50.432  1.00  0.00    -0.174 NA
HETATM    5  N2  UNL     1      26.054   1.962  51.298  1.00  0.00    -0.240 N 
ENDROOT
BRANCH   1   6
HETATM    6  C6  UNL     1      23.834   1.656  52.149  1.00  0.00     0.062 C 
BRANCH   6   7
HETATM    7  C5  UNL     1      22.381   1.534  51.827  1.00  0.00    -0.077 C 
HETATM    8  C4  UNL     1      21.956   0.835  50.588  1.00  0.00     0.060 C 
HETATM    9  C3  UNL     1      20.997   1.731  49.830  1.00  0.00    -0.025 C 
HETATM   10  C2  UNL     1      20.086   2.182  50.702  1.00  0.00    -0.009 C 
HETATM   11  C1  UNL     1      20.075   1.831  52.139  1.00  0.00     0.121 C 
HETATM   12  C19 UNL     1      21.461   2.062  52.655  1.00  0.00    -0.003 C 
BRANCH  11  13
HETATM   13  S1  UNL     1      19.631   0.117  52.454  1.00  0.00    -0.003 SA
BRANCH  13  14
HETATM   14  O1  UNL     1      19.881  -0.322  54.088  1.00  0.00    -0.329 OA
HETATM   15  H1  UNL     1      19.934  -1.304  54.230  1.00  0.00     0.227 HD
ENDBRANCH  13  14
ENDBRANCH  11  13
ENDBRANCH   6   7
ENDBRANCH   1   6
BRANCH   5  16
HETATM   16  C16 UNL     1      26.845   1.128  52.123  1.00  0.00     0.192 A 
HETATM   17  N3  UNL     1      26.960  -0.136  52.197  1.00  0.00    -0.198 NA
HETATM   18  C17 UNL     1      27.799  -0.671  53.066  1.00  0.00     0.171 A 
HETATM   19  C18 UNL     1      28.596   0.145  53.945  1.00  0.00     0.111 A 
HETATM   20  S2  UNL     1      28.008   1.857  53.389  1.00  0.00    -0.058 SA
BRANCH  18  21
HETATM   21  O2  UNL     1      28.221  -1.929  53.464  1.00  0.00    -0.344 OA
HETATM   22  H16 UNL     1      28.391  -2.710  52.818  1.00  0.00     0.219 HD
ENDBRANCH  18  21
ENDBRANCH   5  16
BRANCH   3  23
HETATM   23  C10 UNL     1      26.335   5.040  49.337  1.00  0.00    -0.010 A 
HETATM   24  C11 UNL     1      27.625   5.064  48.864  1.00  0.00     0.015 A 
HETATM   25  C12 UNL     1      27.985   6.096  48.057  1.00  0.00     0.024 A 
HETATM   26  C13 UNL     1      27.053   7.076  47.748  1.00  0.00     0.034 A 
HETATM   27 CL1  UNL     1      27.466   8.439  46.708  1.00  0.00    -0.084 Cl
HETATM   28  C14 UNL     1      25.765   7.024  48.238  1.00  0.00     0.024 A 
HETATM   29  C15 UNL     1      25.341   5.986  49.070  1.00  0.00     0.015 A 
ENDBRANCH   3  23
TORSDOF 7
ENDMDL
MODEL 9
REMARK VINA RESULT:      -7.9      1.875      2.367
REMARK  7 active torsions:
REMARK  status: ('A' for Active; 'I' for Inactive)
REMARK    1  A    between atoms: O1_1  and  S1_2 
REMARK    2  A    between atoms: S1_2  and  C1_3 
REMARK    3  A    between atoms: C5_7  and  C6_8 
REMARK    4  A    between atoms: C6_8  and  C7_9 
REMARK    5  A    between atoms: C9_11  and  C10_12 
REMARK    6  A    between atoms: N2_20  and  C16_21 
REMARK    7  A    between atoms: C17_23  and  O2_24 
ROOT
HETATM    1  C7  UNL     1      23.527   2.194  51.822  1.00  0.00     0.122 C 
HETATM    2  C8  UNL     1      22.421   1.521  51.024  1.00  0.00     0.089 C 
HETATM    3  C9  UNL     1      21.827   0.632  52.091  1.00  0.00     0.067 C 
HETATM    4  N1  UNL     1      22.789   0.382  52.942  1.00  0.00    -0.174 NA
HETATM    5  N2  UNL     1      23.990   1.008  52.566  1.00  0.00    -0.240 N 
ENDROOT
BRANCH   1   6
HETATM    6  C6  UNL     1      24.655   2.710  51.015  1.00  0.00     0.062 C 
BRANCH   6   7
HETATM    7  C5  UNL     1      24.412   4.089  50.496  1.00  0.00    -0.077 C 
HETATM    8  C4  UNL     1      23.796   5.112  51.378  1.00  0.00     0.060 C 
HETATM    9  C3  UNL     1      22.625   5.740  50.651  1.00  0.00    -0.025 C 
HETATM   10  C2  UNL     1      23.039   6.065  49.419  1.00  0.00    -0.009 C 
HETATM   11  C1  UNL     1      24.410   5.826  48.919  1.00  0.00     0.121 C 
HETATM   12  C19 UNL     1      24.745   4.401  49.230  1.00  0.00    -0.003 C 
BRANCH  11  13
HETATM   13  S1  UNL     1      25.647   6.879  49.689  1.00  0.00    -0.003 SA
BRANCH  13  14
HETATM   14  O1  UNL     1      27.233   6.280  49.463  1.00  0.00    -0.329 OA
HETATM   15  H1  UNL     1      27.334   5.325  49.715  1.00  0.00     0.227 HD
ENDBRANCH  13  14
ENDBRANCH  11  13
ENDBRANCH   6   7
ENDBRANCH   1   6
BRANCH   5  16
HETATM   16  C16 UNL     1      25.215   0.413  52.953  1.00  0.00     0.192 A 
HETATM   17  N3  UNL     1      25.744  -0.708  52.671  1.00  0.00    -0.198 NA
HETATM   18  C17 UNL     1      26.929  -1.020  53.166  1.00  0.00     0.171 A 
HETATM   19  C18 UNL     1      27.648  -0.117  54.026  1.00  0.00     0.111 A 
HETATM   20  S2  UNL     1      26.406   1.313  54.074  1.00  0.00    -0.058 SA
BRANCH  18  21
HETATM   21  O2  UNL     1      27.829  -2.072  53.123  1.00  0.00    -0.344 OA
HETATM   22  H16 UNL     1      28.000  -2.715  53.907  1.00  0.00     0.219 HD
ENDBRANCH  18  21
ENDBRANCH   5  16
BRANCH   3  23
HETATM   23  C10 UNL     1      20.453   0.144  52.189  1.00  0.00    -0.010 A 
HETATM   24  C11 UNL     1      19.618   0.419  51.134  1.00  0.00     0.015 A 
HETATM   25  C12 UNL     1      18.337  -0.031  51.205  1.00  0.00     0.024 A 
HETATM   26  C13 UNL     1      17.926  -0.739  52.325  1.00  0.00     0.034 A 
HETATM   27 CL1  UNL     1      16.277  -1.345  52.472  1.00  0.00    -0.084 Cl
HETATM   28  C14 UNL     1      18.789  -0.999  53.369  1.00  0.00     0.024 A 
HETATM   29  C15 UNL     1      20.115  -0.562  53.348  1.00  0.00     0.015 A 
ENDBRANCH   3  23
TORSDOF 7
ENDMDL
