MODEL 1
REMARK VINA RESULT:      -8.4      0.000      0.000
REMARK  5 active torsions:
REMARK  status: ('A' for Active; 'I' for Inactive)
REMARK    1  A    between atoms: O1_1  and  C1_2 
REMARK    2  A    between atoms: C4_5  and  C5_6 
REMARK    3  A    between atoms: C5_6  and  C6_7 
REMARK    4  A    between atoms: C6_7  and  O2_8 
REMARK    5  A    between atoms: O2_8  and  C7_9 
ROOT
HETATM    1  C7  UNL     1      24.106   2.403  52.340  1.00  0.00     0.070 A 
HETATM    2  C8  UNL     1      22.880   2.863  51.991  1.00  0.00     0.038 A 
HETATM    3  C9  UNL     1      21.668   2.282  52.282  1.00  0.00     0.016 A 
HETATM    4  C10 UNL     1      21.728   1.110  53.007  1.00  0.00    -0.010 A 
HETATM    5  C11 UNL     1      22.920   0.553  53.413  1.00  0.00     0.041 A 
HETATM    6  C12 UNL     1      24.110   1.208  53.075  1.00  0.00     0.066 A 
HETATM    7  N1  UNL     1      23.050  -0.650  54.160  1.00  0.00    -0.389 N 
HETATM    8  C13 UNL     1      22.017  -1.354  54.909  1.00  0.00     0.123 C 
HETATM    9  C14 UNL     1      20.847  -1.738  54.033  1.00  0.00     0.047 C 
HETATM   10  C15 UNL     1      20.011  -0.577  53.661  1.00  0.00    -0.024 C 
HETATM   11  C16 UNL     1      20.363   0.633  53.226  1.00  0.00     0.010 C 
HETATM   12  H11 UNL     1      24.047  -1.016  54.120  1.00  0.00     0.159 HD
ENDROOT
BRANCH   1  13
HETATM   13  O2  UNL     1      25.387   2.791  52.168  1.00  0.00    -0.351 OA
BRANCH  13  14
HETATM   14  C6  UNL     1      26.487   2.182  51.622  1.00  0.00     0.180 C 
BRANCH  14  15
HETATM   15  C5  UNL     1      27.570   2.001  52.653  1.00  0.00     0.065 C 
BRANCH  15  16
HETATM   16  C4  UNL     1      27.863   0.536  52.844  1.00  0.00    -0.056 A 
HETATM   17  C3  UNL     1      29.041   0.142  53.456  1.00  0.00     0.010 A 
HETATM   18  C2  UNL     1      29.338  -1.198  53.645  1.00  0.00     0.037 A 
HETATM   19  C1  UNL     1      28.457  -2.174  53.223  1.00  0.00     0.065 A 
HETATM   20  C18 UNL     1      27.277  -1.794  52.611  1.00  0.00     0.037 A 
HETATM   21  C17 UNL     1      26.978  -0.461  52.421  1.00  0.00     0.010 A 
BRANCH  19  22
HETATM   22  O1  UNL     1      28.694  -3.527  53.382  1.00  0.00    -0.361 OA
HETATM   23  H1  UNL     1      28.052  -4.254  53.093  1.00  0.00     0.217 HD
ENDBRANCH  19  22
ENDBRANCH  15  16
ENDBRANCH  14  15
ENDBRANCH  13  14
ENDBRANCH   1  13
TORSDOF 5
ENDMDL
MODEL 2
REMARK VINA RESULT:      -8.2      3.163      6.131
REMARK  5 active torsions:
REMARK  status: ('A' for Active; 'I' for Inactive)
REMARK    1  A    between atoms: O1_1  and  C1_2 
REMARK    2  A    between atoms: C4_5  and  C5_6 
REMARK    3  A    between atoms: C5_6  and  C6_7 
REMARK    4  A    between atoms: C6_7  and  O2_8 
REMARK    5  A    between atoms: O2_8  and  C7_9 
ROOT
HETATM    1  C7  UNL     1      24.369   2.095  53.071  1.00  0.00     0.070 A 
HETATM    2  C8  UNL     1      24.230   0.801  52.693  1.00  0.00     0.038 A 
HETATM    3  C9  UNL     1      25.196  -0.178  52.734  1.00  0.00     0.016 A 
HETATM    4  C10 UNL     1      26.427   0.218  53.215  1.00  0.00    -0.010 A 
HETATM    5  C11 UNL     1      26.678   1.509  53.626  1.00  0.00     0.041 A 
HETATM    6  C12 UNL     1      25.640   2.445  53.551  1.00  0.00     0.066 A 
HETATM    7  N1  UNL     1      27.921   1.981  54.129  1.00  0.00    -0.389 N 
HETATM    8  C13 UNL     1      29.049   1.193  54.611  1.00  0.00     0.123 C 
HETATM    9  C14 UNL     1      29.560   0.238  53.558  1.00  0.00     0.047 C 
HETATM   10  C15 UNL     1      28.649  -0.906  53.338  1.00  0.00    -0.024 C 
HETATM   11  C16 UNL     1      27.325  -0.934  53.190  1.00  0.00     0.010 C 
HETATM   12  H11 UNL     1      27.955   3.043  54.122  1.00  0.00     0.159 HD
ENDROOT
BRANCH   1  13
HETATM   13  O2  UNL     1      23.589   3.195  53.115  1.00  0.00    -0.351 OA
BRANCH  13  14
HETATM   14  C6  UNL     1      23.554   4.351  52.380  1.00  0.00     0.180 C 
BRANCH  14  15
HETATM   15  C5  UNL     1      23.430   4.051  50.909  1.00  0.00     0.065 C 
BRANCH  15  16
HETATM   16  C4  UNL     1      24.756   4.254  50.225  1.00  0.00    -0.056 A 
HETATM   17  C3  UNL     1      25.138   5.523  49.822  1.00  0.00     0.010 A 
HETATM   18  C2  UNL     1      26.352   5.741  49.191  1.00  0.00     0.037 A 
HETATM   19  C1  UNL     1      27.211   4.687  48.950  1.00  0.00     0.065 A 
HETATM   20  C18 UNL     1      26.842   3.416  49.347  1.00  0.00     0.037 A 
HETATM   21  C17 UNL     1      25.635   3.195  49.975  1.00  0.00     0.010 A 
BRANCH  19  22
HETATM   22  O1  UNL     1      28.435   4.838  48.324  1.00  0.00    -0.361 OA
HETATM   23  H1  UNL     1      28.942   4.083  47.879  1.00  0.00     0.217 HD
ENDBRANCH  19  22
ENDBRANCH  15  16
ENDBRANCH  14  15
ENDBRANCH  13  14
ENDBRANCH   1  13
TORSDOF 5
ENDMDL
MODEL 3
REMARK VINA RESULT:      -8.2      1.470      2.347
REMARK  5 active torsions:
REMARK  status: ('A' for Active; 'I' for Inactive)
REMARK    1  A    between atoms: O1_1  and  C1_2 
REMARK    2  A    between atoms: C4_5  and  C5_6 
REMARK    3  A    between atoms: C5_6  and  C6_7 
REMARK    4  A    between atoms: C6_7  and  O2_8 
REMARK    5  A    between atoms: O2_8  and  C7_9 
ROOT
HETATM    1  C7  UNL     1      23.441   0.710  53.102  1.00  0.00     0.070 A 
HETATM    2  C8  UNL     1      23.269  -0.307  53.980  1.00  0.00     0.038 A 
HETATM    3  C9  UNL     1      22.121  -1.037  54.180  1.00  0.00     0.016 A 
HETATM    4  C10 UNL     1      21.044  -0.683  53.395  1.00  0.00    -0.010 A 
HETATM    5  C11 UNL     1      21.109   0.336  52.469  1.00  0.00     0.041 A 
HETATM    6  C12 UNL     1      22.316   1.030  52.328  1.00  0.00     0.066 A 
HETATM    7  N1  UNL     1      20.038   0.750  51.631  1.00  0.00    -0.389 N 
HETATM    8  C13 UNL     1      18.806   0.030  51.331  1.00  0.00     0.123 C 
HETATM    9  C14 UNL     1      18.023  -0.292  52.582  1.00  0.00     0.047 C 
HETATM   10  C15 UNL     1      18.647  -1.370  53.380  1.00  0.00    -0.024 C 
HETATM   11  C16 UNL     1      19.918  -1.552  53.734  1.00  0.00     0.010 C 
HETATM   12  H11 UNL     1      20.234   1.705  51.209  1.00  0.00     0.159 HD
ENDROOT
BRANCH   1  13
HETATM   13  O2  UNL     1      24.442   1.543  52.748  1.00  0.00    -0.351 OA
BRANCH  13  14
HETATM   14  C6  UNL     1      25.592   1.949  53.374  1.00  0.00     0.180 C 
BRANCH  14  15
HETATM   15  C5  UNL     1      26.795   1.705  52.502  1.00  0.00     0.065 C 
BRANCH  15  16
HETATM   16  C4  UNL     1      27.325   0.314  52.728  1.00  0.00    -0.056 A 
HETATM   17  C3  UNL     1      28.538   0.133  53.373  1.00  0.00     0.010 A 
HETATM   18  C2  UNL     1      29.051  -1.134  53.595  1.00  0.00     0.037 A 
HETATM   19  C1  UNL     1      28.357  -2.251  53.174  1.00  0.00     0.065 A 
HETATM   20  C18 UNL     1      27.146  -2.085  52.528  1.00  0.00     0.037 A 
HETATM   21  C17 UNL     1      26.632  -0.825  52.305  1.00  0.00     0.010 A 
BRANCH  19  22
HETATM   22  O1  UNL     1      28.814  -3.542  53.364  1.00  0.00    -0.361 OA
HETATM   23  H1  UNL     1      28.694  -4.292  52.694  1.00  0.00     0.217 HD
ENDBRANCH  19  22
ENDBRANCH  15  16
ENDBRANCH  14  15
ENDBRANCH  13  14
ENDBRANCH   1  13
TORSDOF 5
ENDMDL
MODEL 4
REMARK VINA RESULT:      -8.0      4.042      6.509
REMARK  5 active torsions:
REMARK  status: ('A' for Active; 'I' for Inactive)
REMARK    1  A    between atoms: O1_1  and  C1_2 
REMARK    2  A    between atoms: C4_5  and  C5_6 
REMARK    3  A    between atoms: C5_6  and  C6_7 
REMARK    4  A    between atoms: C6_7  and  O2_8 
REMARK    5  A    between atoms: O2_8  and  C7_9 
ROOT
HETATM    1  C7  UNL     1      25.451   3.383  50.056  1.00  0.00     0.070 A 
HETATM    2  C8  UNL     1      24.432   4.176  49.643  1.00  0.00     0.038 A 
HETATM    3  C9  UNL     1      24.538   5.367  48.965  1.00  0.00     0.016 A 
HETATM    4  C10 UNL     1      25.823   5.782  48.684  1.00  0.00    -0.010 A 
HETATM    5  C11 UNL     1      26.931   5.054  49.057  1.00  0.00     0.041 A 
HETATM    6  C12 UNL     1      26.737   3.851  49.745  1.00  0.00     0.066 A 
HETATM    7  N1  UNL     1      28.279   5.425  48.799  1.00  0.00    -0.389 N 
HETATM    8  C13 UNL     1      28.768   6.421  47.854  1.00  0.00     0.123 C 
HETATM    9  C14 UNL     1      28.188   7.789  48.126  1.00  0.00     0.047 C 
HETATM   10  C15 UNL     1      26.765   7.890  47.741  1.00  0.00    -0.024 C 
HETATM   11  C16 UNL     1      25.752   7.054  47.967  1.00  0.00     0.010 C 
HETATM   12  H11 UNL     1      28.949   4.865  49.405  1.00  0.00     0.159 HD
ENDROOT
BRANCH   1  13
HETATM   13  O2  UNL     1      25.580   2.214  50.716  1.00  0.00    -0.351 OA
BRANCH  13  14
HETATM   14  C6  UNL     1      25.624   1.887  52.047  1.00  0.00     0.180 C 
BRANCH  14  15
HETATM   15  C5  UNL     1      27.045   1.840  52.544  1.00  0.00     0.065 C 
BRANCH  15  16
HETATM   16  C4  UNL     1      27.475   0.411  52.746  1.00  0.00    -0.056 A 
HETATM   17  C3  UNL     1      26.640  -0.623  52.356  1.00  0.00     0.010 A 
HETATM   18  C2  UNL     1      27.009  -1.948  52.531  1.00  0.00     0.037 A 
HETATM   19  C1  UNL     1      28.226  -2.263  53.101  1.00  0.00     0.065 A 
HETATM   20  C18 UNL     1      29.068  -1.241  53.495  1.00  0.00     0.037 A 
HETATM   21  C17 UNL     1      28.705   0.078  53.324  1.00  0.00     0.010 A 
BRANCH  19  22
HETATM   22  O1  UNL     1      28.651  -3.564  53.303  1.00  0.00    -0.361 OA
HETATM   23  H1  UNL     1      29.042  -4.152  52.577  1.00  0.00     0.217 HD
ENDBRANCH  19  22
ENDBRANCH  15  16
ENDBRANCH  14  15
ENDBRANCH  13  14
ENDBRANCH   1  13
TORSDOF 5
ENDMDL
MODEL 5
REMARK VINA RESULT:      -7.9      3.748      6.133
REMARK  5 active torsions:
REMARK  status: ('A' for Active; 'I' for Inactive)
REMARK    1  A    between atoms: O1_1  and  C1_2 
REMARK    2  A    between atoms: C4_5  and  C5_6 
REMARK    3  A    between atoms: C5_6  and  C6_7 
REMARK    4  A    between atoms: C6_7  and  O2_8 
REMARK    5  A    between atoms: O2_8  and  C7_9 
ROOT
HETATM    1  C7  UNL     1      25.759   3.276  50.489  1.00  0.00     0.070 A 
HETATM    2  C8  UNL     1      26.736   3.441  49.564  1.00  0.00     0.038 A 
HETATM    3  C9  UNL     1      27.014   4.585  48.854  1.00  0.00     0.016 A 
HETATM    4  C10 UNL     1      26.204   5.668  49.127  1.00  0.00    -0.010 A 
HETATM    5  C11 UNL     1      25.182   5.612  50.049  1.00  0.00     0.041 A 
HETATM    6  C12 UNL     1      24.965   4.408  50.729  1.00  0.00     0.066 A 
HETATM    7  N1  UNL     1      24.314   6.689  50.376  1.00  0.00    -0.389 N 
HETATM    8  C13 UNL     1      24.495   8.105  50.082  1.00  0.00     0.123 C 
HETATM    9  C14 UNL     1      24.649   8.359  48.601  1.00  0.00     0.047 C 
HETATM   10  C15 UNL     1      25.962   7.920  48.083  1.00  0.00    -0.024 C 
HETATM   11  C16 UNL     1      26.635   6.789  48.293  1.00  0.00     0.010 C 
HETATM   12  H11 UNL     1      23.455   6.340  50.895  1.00  0.00     0.159 HD
ENDROOT
BRANCH   1  13
HETATM   13  O2  UNL     1      25.315   2.279  51.282  1.00  0.00    -0.351 OA
BRANCH  13  14
HETATM   14  C6  UNL     1      25.552   1.944  52.590  1.00  0.00     0.180 C 
BRANCH  14  15
HETATM   15  C5  UNL     1      27.030   1.842  52.861  1.00  0.00     0.065 C 
BRANCH  15  16
HETATM   16  C4  UNL     1      27.446   0.396  52.925  1.00  0.00    -0.056 A 
HETATM   17  C3  UNL     1      26.590  -0.590  52.463  1.00  0.00     0.010 A 
HETATM   18  C2  UNL     1      26.945  -1.928  52.509  1.00  0.00     0.037 A 
HETATM   19  C1  UNL     1      28.170  -2.307  53.022  1.00  0.00     0.065 A 
HETATM   20  C18 UNL     1      29.034  -1.333  53.486  1.00  0.00     0.037 A 
HETATM   21  C17 UNL     1      28.684   0.000  53.442  1.00  0.00     0.010 A 
BRANCH  19  22
HETATM   22  O1  UNL     1      28.583  -3.624  53.096  1.00  0.00    -0.361 OA
HETATM   23  H1  UNL     1      28.037  -4.411  52.765  1.00  0.00     0.217 HD
ENDBRANCH  19  22
ENDBRANCH  15  16
ENDBRANCH  14  15
ENDBRANCH  13  14
ENDBRANCH   1  13
TORSDOF 5
ENDMDL
MODEL 6
REMARK VINA RESULT:      -7.7      2.965      5.394
REMARK  5 active torsions:
REMARK  status: ('A' for Active; 'I' for Inactive)
REMARK    1  A    between atoms: O1_1  and  C1_2 
REMARK    2  A    between atoms: C4_5  and  C5_6 
REMARK    3  A    between atoms: C5_6  and  C6_7 
REMARK    4  A    between atoms: C6_7  and  O2_8 
REMARK    5  A    between atoms: O2_8  and  C7_9 
ROOT
HETATM    1  C7  UNL     1      24.776   2.103  51.991  1.00  0.00     0.070 A 
HETATM    2  C8  UNL     1      25.964   1.916  51.367  1.00  0.00     0.038 A 
HETATM    3  C9  UNL     1      26.574   2.774  50.482  1.00  0.00     0.016 A 
HETATM    4  C10 UNL     1      25.890   3.942  50.215  1.00  0.00    -0.010 A 
HETATM    5  C11 UNL     1      24.674   4.233  50.794  1.00  0.00     0.041 A 
HETATM    6  C12 UNL     1      24.121   3.306  51.684  1.00  0.00     0.066 A 
HETATM    7  N1  UNL     1      23.919   5.416  50.561  1.00  0.00    -0.389 N 
HETATM    8  C13 UNL     1      24.373   6.663  49.959  1.00  0.00     0.123 C 
HETATM    9  C14 UNL     1      24.925   6.451  48.569  1.00  0.00     0.047 C 
HETATM   10  C15 UNL     1      26.246   5.788  48.577  1.00  0.00    -0.024 C 
HETATM   11  C16 UNL     1      26.673   4.729  49.264  1.00  0.00     0.010 C 
HETATM   12  H11 UNL     1      22.917   5.298  50.893  1.00  0.00     0.159 HD
ENDROOT
BRANCH   1  13
HETATM   13  O2  UNL     1      24.007   1.422  52.866  1.00  0.00    -0.351 OA
BRANCH  13  14
HETATM   14  C6  UNL     1      23.664   0.100  52.982  1.00  0.00     0.180 C 
BRANCH  14  15
HETATM   15  C5  UNL     1      24.310  -0.520  54.193  1.00  0.00     0.065 C 
BRANCH  15  16
HETATM   16  C4  UNL     1      25.807  -0.534  54.031  1.00  0.00    -0.056 A 
HETATM   17  C3  UNL     1      26.601   0.203  54.894  1.00  0.00     0.010 A 
HETATM   18  C2  UNL     1      27.981   0.209  54.769  1.00  0.00     0.037 A 
HETATM   19  C1  UNL     1      28.595  -0.524  53.774  1.00  0.00     0.065 A 
HETATM   20  C18 UNL     1      27.813  -1.263  52.906  1.00  0.00     0.037 A 
HETATM   21  C17 UNL     1      26.439  -1.273  53.026  1.00  0.00     0.010 A 
BRANCH  19  22
HETATM   22  O1  UNL     1      29.965  -0.559  53.596  1.00  0.00    -0.361 OA
HETATM   23  H1  UNL     1      30.420  -0.847  52.738  1.00  0.00     0.217 HD
ENDBRANCH  19  22
ENDBRANCH  15  16
ENDBRANCH  14  15
ENDBRANCH  13  14
ENDBRANCH   1  13
TORSDOF 5
ENDMDL
MODEL 7
REMARK VINA RESULT:      -7.6      3.992      6.871
REMARK  5 active torsions:
REMARK  status: ('A' for Active; 'I' for Inactive)
REMARK    1  A    between atoms: O1_1  and  C1_2 
REMARK    2  A    between atoms: C4_5  and  C5_6 
REMARK    3  A    between atoms: C5_6  and  C6_7 
REMARK    4  A    between atoms: C6_7  and  O2_8 
REMARK    5  A    between atoms: O2_8  and  C7_9 
ROOT
HETATM    1  C7  UNL     1      24.352   3.987  50.462  1.00  0.00     0.070 A 
HETATM    2  C8  UNL     1      25.347   3.187  50.009  1.00  0.00     0.038 A 
HETATM    3  C9  UNL     1      26.509   3.585  49.391  1.00  0.00     0.016 A 
HETATM    4  C10 UNL     1      26.660   4.947  49.226  1.00  0.00    -0.010 A 
HETATM    5  C11 UNL     1      25.711   5.851  49.650  1.00  0.00     0.041 A 
HETATM    6  C12 UNL     1      24.555   5.362  50.270  1.00  0.00     0.066 A 
HETATM    7  N1  UNL     1      25.806   7.263  49.511  1.00  0.00    -0.389 N 
HETATM    8  C13 UNL     1      26.992   8.055  49.211  1.00  0.00     0.123 C 
HETATM    9  C14 UNL     1      27.634   7.639  47.908  1.00  0.00     0.047 C 
HETATM   10  C15 UNL     1      28.331   6.339  48.008  1.00  0.00    -0.024 C 
HETATM   11  C16 UNL     1      27.937   5.192  48.559  1.00  0.00     0.010 C 
HETATM   12  H11 UNL     1      24.860   7.723  49.657  1.00  0.00     0.159 HD
ENDROOT
BRANCH   1  13
HETATM   13  O2  UNL     1      23.162   3.824  51.077  1.00  0.00    -0.351 OA
BRANCH  13  14
HETATM   14  C6  UNL     1      22.786   3.223  52.250  1.00  0.00     0.180 C 
BRANCH  14  15
HETATM   15  C5  UNL     1      22.864   1.723  52.136  1.00  0.00     0.065 C 
BRANCH  15  16
HETATM   16  C4  UNL     1      24.040   1.205  52.922  1.00  0.00    -0.056 A 
HETATM   17  C3  UNL     1      24.072  -0.121  53.322  1.00  0.00     0.010 A 
HETATM   18  C2  UNL     1      25.140  -0.625  54.046  1.00  0.00     0.037 A 
HETATM   19  C1  UNL     1      26.201   0.191  54.385  1.00  0.00     0.065 A 
HETATM   20  C18 UNL     1      26.181   1.516  53.992  1.00  0.00     0.037 A 
HETATM   21  C17 UNL     1      25.119   2.022  53.271  1.00  0.00     0.010 A 
BRANCH  19  22
HETATM   22  O1  UNL     1      27.295  -0.251  55.106  1.00  0.00    -0.361 OA
HETATM   23  H1  UNL     1      27.747  -1.146  54.960  1.00  0.00     0.217 HD
ENDBRANCH  19  22
ENDBRANCH  15  16
ENDBRANCH  14  15
ENDBRANCH  13  14
ENDBRANCH   1  13
TORSDOF 5
ENDMDL
MODEL 8
REMARK VINA RESULT:      -7.4      4.391      7.410
REMARK  5 active torsions:
REMARK  status: ('A' for Active; 'I' for Inactive)
REMARK    1  A    between atoms: O1_1  and  C1_2 
REMARK    2  A    between atoms: C4_5  and  C5_6 
REMARK    3  A    between atoms: C5_6  and  C6_7 
REMARK    4  A    between atoms: C6_7  and  O2_8 
REMARK    5  A    between atoms: O2_8  and  C7_9 
ROOT
HETATM    1  C7  UNL     1      24.795   3.957  49.866  1.00  0.00     0.070 A 
HETATM    2  C8  UNL     1      24.077   4.972  49.327  1.00  0.00     0.038 A 
HETATM    3  C9  UNL     1      24.573   6.066  48.657  1.00  0.00     0.016 A 
HETATM    4  C10 UNL     1      25.945   6.116  48.528  1.00  0.00    -0.010 A 
HETATM    5  C11 UNL     1      26.770   5.137  49.037  1.00  0.00     0.041 A 
HETATM    6  C12 UNL     1      26.186   4.056  49.708  1.00  0.00     0.066 A 
HETATM    7  N1  UNL     1      28.189   5.129  48.940  1.00  0.00    -0.389 N 
HETATM    8  C13 UNL     1      29.029   5.922  48.051  1.00  0.00     0.123 C 
HETATM    9  C14 UNL     1      28.807   7.405  48.240  1.00  0.00     0.047 C 
HETATM   10  C15 UNL     1      27.514   7.861  47.686  1.00  0.00    -0.024 C 
HETATM   11  C16 UNL     1      26.297   7.331  47.796  1.00  0.00     0.010 C 
HETATM   12  H11 UNL     1      28.613   4.438  49.626  1.00  0.00     0.159 HD
ENDROOT
BRANCH   1  13
HETATM   13  O2  UNL     1      24.533   2.822  50.547  1.00  0.00    -0.351 OA
BRANCH  13  14
HETATM   14  C6  UNL     1      23.832   2.557  51.696  1.00  0.00     0.180 C 
BRANCH  14  15
HETATM   15  C5  UNL     1      22.920   1.373  51.509  1.00  0.00     0.065 C 
BRANCH  15  16
HETATM   16  C4  UNL     1      22.977   0.480  52.720  1.00  0.00    -0.056 A 
HETATM   17  C3  UNL     1      21.804   0.085  53.342  1.00  0.00     0.010 A 
HETATM   18  C2  UNL     1      21.825  -0.735  54.459  1.00  0.00     0.037 A 
HETATM   19  C1  UNL     1      23.026  -1.178  54.976  1.00  0.00     0.065 A 
HETATM   20  C18 UNL     1      24.204  -0.792  54.364  1.00  0.00     0.037 A 
HETATM   21  C17 UNL     1      24.187   0.025  53.253  1.00  0.00     0.010 A 
BRANCH  19  22
HETATM   22  O1  UNL     1      23.114  -1.998  56.086  1.00  0.00    -0.361 OA
HETATM   23  H1  UNL     1      22.503  -1.931  56.891  1.00  0.00     0.217 HD
ENDBRANCH  19  22
ENDBRANCH  15  16
ENDBRANCH  14  15
ENDBRANCH  13  14
ENDBRANCH   1  13
TORSDOF 5
ENDMDL
MODEL 9
REMARK VINA RESULT:      -7.4      4.654      7.741
REMARK  5 active torsions:
REMARK  status: ('A' for Active; 'I' for Inactive)
REMARK    1  A    between atoms: O1_1  and  C1_2 
REMARK    2  A    between atoms: C4_5  and  C5_6 
REMARK    3  A    between atoms: C5_6  and  C6_7 
REMARK    4  A    between atoms: C6_7  and  O2_8 
REMARK    5  A    between atoms: O2_8  and  C7_9 
ROOT
HETATM    1  C7  UNL     1      25.504   4.010  49.889  1.00  0.00     0.070 A 
HETATM    2  C8  UNL     1      26.756   3.727  49.453  1.00  0.00     0.038 A 
HETATM    3  C9  UNL     1      27.610   4.579  48.793  1.00  0.00     0.016 A 
HETATM    4  C10 UNL     1      27.124   5.849  48.560  1.00  0.00    -0.010 A 
HETATM    5  C11 UNL     1      25.866   6.243  48.961  1.00  0.00     0.041 A 
HETATM    6  C12 UNL     1      25.059   5.314  49.627  1.00  0.00     0.066 A 
HETATM    7  N1  UNL     1      25.307   7.533  48.752  1.00  0.00    -0.389 N 
HETATM    8  C13 UNL     1      26.003   8.762  48.390  1.00  0.00     0.123 C 
HETATM    9  C14 UNL     1      26.767   8.617  47.095  1.00  0.00     0.047 C 
HETATM   10  C15 UNL     1      27.980   7.785  47.242  1.00  0.00    -0.024 C 
HETATM   11  C16 UNL     1      28.151   6.614  47.856  1.00  0.00     0.010 C 
HETATM   12  H11 UNL     1      24.255   7.519  48.896  1.00  0.00     0.159 HD
ENDROOT
BRANCH   1  13
HETATM   13  O2  UNL     1      24.517   3.354  50.536  1.00  0.00    -0.351 OA
BRANCH  13  14
HETATM   14  C6  UNL     1      24.497   2.238  51.331  1.00  0.00     0.180 C 
BRANCH  14  15
HETATM   15  C5  UNL     1      23.082   1.811  51.624  1.00  0.00     0.065 C 
BRANCH  15  16
HETATM   16  C4  UNL     1      23.065   0.815  52.753  1.00  0.00    -0.056 A 
HETATM   17  C3  UNL     1      21.870   0.498  53.376  1.00  0.00     0.010 A 
HETATM   18  C2  UNL     1      21.824  -0.415  54.418  1.00  0.00     0.037 A 
HETATM   19  C1  UNL     1      22.979  -1.031  54.856  1.00  0.00     0.065 A 
HETATM   20  C18 UNL     1      24.179  -0.724  54.243  1.00  0.00     0.037 A 
HETATM   21  C17 UNL     1      24.229   0.184  53.206  1.00  0.00     0.010 A 
BRANCH  19  22
HETATM   22  O1  UNL     1      23.000  -1.950  55.890  1.00  0.00    -0.361 OA
HETATM   23  H1  UNL     1      22.416  -2.777  55.926  1.00  0.00     0.217 HD
ENDBRANCH  19  22
ENDBRANCH  15  16
ENDBRANCH  14  15
ENDBRANCH  13  14
ENDBRANCH   1  13
TORSDOF 5
ENDMDL
