MODEL 1
REMARK VINA RESULT:      -8.4      0.000      0.000
REMARK  6 active torsions:
REMARK  status: ('A' for Active; 'I' for Inactive)
REMARK    1  A    between atoms: C2_2  and  N1_3 
REMARK    2  A    between atoms: N1_3  and  C4_5 
REMARK    3  A    between atoms: C4_5  and  C5_6 
REMARK    4  A    between atoms: C5_6  and  C6_7 
REMARK    5  A    between atoms: C6_7  and  C7_8 
REMARK    6  A    between atoms: N2_12  and  C11_13 
ROOT
HETATM    1  C7  UNL     1      25.911   3.154  50.795  1.00  0.00     0.026 C 
HETATM    2  C8  UNL     1      24.625   2.873  51.123  1.00  0.00     0.052 C 
HETATM    3  C9  UNL     1      23.361   3.434  50.507  1.00  0.00     0.243 A 
HETATM    4  C10 UNL     1      22.714   3.094  51.595  1.00  0.00     0.230 A 
HETATM    5  N2  UNL     1      22.653   2.520  52.817  1.00  0.00    -0.340 N 
HETATM    6  N3  UNL     1      22.254   4.429  51.191  1.00  0.00     0.011 N 
HETATM    7  C17 UNL     1      21.796   5.760  50.648  1.00  0.00     0.369 C 
HETATM    8  N4  UNL     1      23.067   6.420  50.332  1.00  0.00    -0.355 N 
HETATM    9  C18 UNL     1      23.437   7.631  50.425  1.00  0.00     0.089 A 
HETATM   10  C19 UNL     1      24.462   6.738  49.959  1.00  0.00     0.163 A 
HETATM   11  C20 UNL     1      25.034   5.678  49.431  1.00  0.00     0.137 C 
HETATM   12  C21 UNL     1      26.503   5.373  49.316  1.00  0.00     0.163 C 
HETATM   13  N5  UNL     1      26.738   4.083  50.073  1.00  0.00    -0.387 N 
HETATM   14  O1  UNL     1      24.255   4.752  48.883  1.00  0.00    -0.369 OA
HETATM   15  C22 UNL     1      23.189   3.903  49.090  1.00  0.00     0.221 C 
HETATM   16  H14 UNL     1      23.342   3.079  53.409  1.00  0.00     0.167 HD
HETATM   17  H18 UNL     1      22.204   4.720  52.233  1.00  0.00     0.292 HD
HETATM   18  H25 UNL     1      27.719   3.836  50.068  1.00  0.00     0.159 HD
ENDROOT
BRANCH   5  19
HETATM   19  C11 UNL     1      21.557   1.351  52.831  1.00  0.00     0.021 A 
HETATM   20  C12 UNL     1      20.510   2.071  52.197  1.00  0.00     0.029 A 
HETATM   21  C13 UNL     1      19.644   0.915  52.441  1.00  0.00     0.046 A 
HETATM   22  C14 UNL     1      20.061  -0.276  53.078  1.00  0.00     0.134 A 
HETATM   23  F1  UNL     1      19.009  -1.176  53.197  1.00  0.00    -0.205 F 
HETATM   24  C15 UNL     1      21.439  -0.362  53.527  1.00  0.00     0.061 A 
HETATM   25 CL1  UNL     1      21.479  -2.042  54.192  1.00  0.00    -0.085 Cl
HETATM   26  C16 UNL     1      22.495   0.734  53.385  1.00  0.00     0.098 A 
ENDBRANCH   5  19
BRANCH   1  27
HETATM   27  C6  UNL     1      26.778   2.125  51.328  1.00  0.00     0.026 C 
BRANCH  27  28
HETATM   28  C5  UNL     1      27.006   1.085  52.020  1.00  0.00    -0.005 C 
BRANCH  28  29
HETATM   29  C4  UNL     1      27.088  -0.188  52.695  1.00  0.00     0.143 C 
BRANCH  29  30
HETATM   30  N1  UNL     1      27.508  -0.149  54.020  1.00  0.00    -0.414 N 
HETATM   31  C3  UNL     1      26.458   0.216  54.934  1.00  0.00     0.143 C 
BRANCH  30  32
HETATM   32  C2  UNL     1      28.809  -0.080  54.511  1.00  0.00     0.112 C 
HETATM   33  C1  UNL     1      29.806  -0.896  53.681  1.00  0.00     0.026 C 
ENDBRANCH  30  32
ENDBRANCH  29  30
ENDBRANCH  28  29
ENDBRANCH  27  28
ENDBRANCH   1  27
TORSDOF 6
ENDMDL
MODEL 2
REMARK VINA RESULT:      -8.3      3.345      5.435
REMARK  6 active torsions:
REMARK  status: ('A' for Active; 'I' for Inactive)
REMARK    1  A    between atoms: C2_2  and  N1_3 
REMARK    2  A    between atoms: N1_3  and  C4_5 
REMARK    3  A    between atoms: C4_5  and  C5_6 
REMARK    4  A    between atoms: C5_6  and  C6_7 
REMARK    5  A    between atoms: C6_7  and  C7_8 
REMARK    6  A    between atoms: N2_12  and  C11_13 
ROOT
HETATM    1  C7  UNL     1      26.580   5.058  48.999  1.00  0.00     0.026 C 
HETATM    2  C8  UNL     1      26.315   4.034  49.849  1.00  0.00     0.052 C 
HETATM    3  C9  UNL     1      24.975   3.401  50.158  1.00  0.00     0.243 A 
HETATM    4  C10 UNL     1      25.481   2.946  51.278  1.00  0.00     0.230 A 
HETATM    5  N2  UNL     1      26.507   2.771  52.141  1.00  0.00    -0.340 N 
HETATM    6  N3  UNL     1      24.129   3.447  51.560  1.00  0.00     0.011 N 
HETATM    7  C17 UNL     1      22.705   3.918  51.726  1.00  0.00     0.369 C 
HETATM    8  N4  UNL     1      22.713   5.191  50.999  1.00  0.00    -0.355 N 
HETATM    9  C18 UNL     1      22.126   6.294  51.221  1.00  0.00     0.089 A 
HETATM   10  C19 UNL     1      22.981   6.307  50.066  1.00  0.00     0.163 A 
HETATM   11  C20 UNL     1      23.693   5.874  49.048  1.00  0.00     0.137 C 
HETATM   12  C21 UNL     1      24.561   6.671  48.113  1.00  0.00     0.163 C 
HETATM   13  N5  UNL     1      25.963   6.117  48.246  1.00  0.00    -0.387 N 
HETATM   14  O1  UNL     1      23.637   4.581  48.748  1.00  0.00    -0.369 OA
HETATM   15  C22 UNL     1      23.799   3.299  49.229  1.00  0.00     0.221 C 
HETATM   16  H14 UNL     1      26.791   3.760  52.420  1.00  0.00     0.167 HD
HETATM   17  H18 UNL     1      24.477   3.831  52.511  1.00  0.00     0.292 HD
HETATM   18  H25 UNL     1      26.612   6.636  47.668  1.00  0.00     0.159 HD
ENDROOT
BRANCH   5  19
HETATM   19  C11 UNL     1      26.766   1.209  52.391  1.00  0.00     0.021 A 
HETATM   20  C12 UNL     1      25.464   0.750  52.057  1.00  0.00     0.029 A 
HETATM   21  C13 UNL     1      25.891  -0.588  52.475  1.00  0.00     0.046 A 
HETATM   22  C14 UNL     1      27.184  -0.901  52.953  1.00  0.00     0.134 A 
HETATM   23  F1  UNL     1      27.277  -2.243  53.304  1.00  0.00    -0.205 F 
HETATM   24  C15 UNL     1      28.155   0.174  53.045  1.00  0.00     0.061 A 
HETATM   25 CL1  UNL     1      29.608  -0.727  53.631  1.00  0.00    -0.085 Cl
HETATM   26  C16 UNL     1      27.907   1.636  52.678  1.00  0.00     0.098 A 
ENDBRANCH   5  19
BRANCH   1  27
HETATM   27  C6  UNL     1      27.995   5.078  48.698  1.00  0.00     0.026 C 
BRANCH  27  28
HETATM   28  C5  UNL     1      29.042   5.615  48.221  1.00  0.00    -0.005 C 
BRANCH  28  29
HETATM   29  C4  UNL     1      30.345   6.085  47.816  1.00  0.00     0.143 C 
BRANCH  29  30
HETATM   30  N1  UNL     1      31.428   5.540  48.497  1.00  0.00    -0.414 N 
HETATM   31  C3  UNL     1      31.786   6.284  49.676  1.00  0.00     0.143 C 
BRANCH  30  32
HETATM   32  C2  UNL     1      32.372   4.630  48.030  1.00  0.00     0.112 C 
HETATM   33  C1  UNL     1      31.851   3.770  46.872  1.00  0.00     0.026 C 
ENDBRANCH  30  32
ENDBRANCH  29  30
ENDBRANCH  28  29
ENDBRANCH  27  28
ENDBRANCH   1  27
TORSDOF 6
ENDMDL
MODEL 3
REMARK VINA RESULT:      -8.3      3.570      6.068
REMARK  6 active torsions:
REMARK  status: ('A' for Active; 'I' for Inactive)
REMARK    1  A    between atoms: C2_2  and  N1_3 
REMARK    2  A    between atoms: N1_3  and  C4_5 
REMARK    3  A    between atoms: C4_5  and  C5_6 
REMARK    4  A    between atoms: C5_6  and  C6_7 
REMARK    5  A    between atoms: C6_7  and  C7_8 
REMARK    6  A    between atoms: N2_12  and  C11_13 
ROOT
HETATM    1  C7  UNL     1      23.148   0.074  53.083  1.00  0.00     0.026 C 
HETATM    2  C8  UNL     1      22.942   1.068  52.182  1.00  0.00     0.052 C 
HETATM    3  C9  UNL     1      21.708   1.928  52.008  1.00  0.00     0.243 A 
HETATM    4  C10 UNL     1      22.102   2.196  50.788  1.00  0.00     0.230 A 
HETATM    5  N2  UNL     1      22.992   2.108  49.774  1.00  0.00    -0.340 N 
HETATM    6  N3  UNL     1      20.655   1.950  50.754  1.00  0.00     0.011 N 
HETATM    7  C17 UNL     1      19.160   1.757  50.842  1.00  0.00     0.369 C 
HETATM    8  N4  UNL     1      19.053   0.560  51.683  1.00  0.00    -0.355 N 
HETATM    9  C18 UNL     1      18.247  -0.420  51.658  1.00  0.00     0.089 A 
HETATM   10  C19 UNL     1      19.259  -0.519  52.673  1.00  0.00     0.163 A 
HETATM   11  C20 UNL     1      20.192  -0.163  53.530  1.00  0.00     0.137 C 
HETATM   12  C21 UNL     1      21.038  -1.048  54.405  1.00  0.00     0.163 C 
HETATM   13  N5  UNL     1      22.478  -0.789  54.017  1.00  0.00    -0.387 N 
HETATM   14  O1  UNL     1      20.420   1.133  53.706  1.00  0.00    -0.369 OA
HETATM   15  C22 UNL     1      20.735   2.322  53.083  1.00  0.00     0.221 C 
HETATM   16  H14 UNL     1      23.043   1.065  49.555  1.00  0.00     0.167 HD
HETATM   17  H18 UNL     1      20.770   1.441  49.806  1.00  0.00     0.292 HD
HETATM   18  H25 UNL     1      23.105  -1.383  54.545  1.00  0.00     0.159 HD
ENDROOT
BRANCH   5  19
HETATM   19  C11 UNL     1      23.487   3.567  49.335  1.00  0.00     0.021 A 
HETATM   20  C12 UNL     1      22.227   4.073  48.921  1.00  0.00     0.029 A 
HETATM   21  C13 UNL     1      22.925   5.279  48.466  1.00  0.00     0.046 A 
HETATM   22  C14 UNL     1      24.318   5.487  48.583  1.00  0.00     0.134 A 
HETATM   23  F1  UNL     1      24.690   6.707  48.030  1.00  0.00    -0.205 F 
HETATM   24  C15 UNL     1      25.116   4.436  49.188  1.00  0.00     0.061 A 
HETATM   25 CL1  UNL     1      26.757   5.192  49.158  1.00  0.00    -0.085 Cl
HETATM   26  C16 UNL     1      24.587   3.101  49.710  1.00  0.00     0.098 A 
ENDBRANCH   5  19
BRANCH   1  27
HETATM   27  C6  UNL     1      24.566  -0.201  53.177  1.00  0.00     0.026 C 
BRANCH  27  28
HETATM   28  C5  UNL     1      25.777  -0.025  52.838  1.00  0.00    -0.005 C 
BRANCH  28  29
HETATM   29  C4  UNL     1      27.203   0.038  52.627  1.00  0.00     0.143 C 
BRANCH  29  30
HETATM   30  N1  UNL     1      27.938   0.681  53.618  1.00  0.00    -0.414 N 
HETATM   31  C3  UNL     1      27.970   2.111  53.457  1.00  0.00     0.143 C 
BRANCH  30  32
HETATM   32  C2  UNL     1      28.876   0.134  54.488  1.00  0.00     0.112 C 
HETATM   33  C1  UNL     1      29.791  -0.893  53.813  1.00  0.00     0.026 C 
ENDBRANCH  30  32
ENDBRANCH  29  30
ENDBRANCH  28  29
ENDBRANCH  27  28
ENDBRANCH   1  27
TORSDOF 6
ENDMDL
MODEL 4
REMARK VINA RESULT:      -7.8      2.543      5.466
REMARK  6 active torsions:
REMARK  status: ('A' for Active; 'I' for Inactive)
REMARK    1  A    between atoms: C2_2  and  N1_3 
REMARK    2  A    between atoms: N1_3  and  C4_5 
REMARK    3  A    between atoms: C4_5  and  C5_6 
REMARK    4  A    between atoms: C5_6  and  C6_7 
REMARK    5  A    between atoms: C6_7  and  C7_8 
REMARK    6  A    between atoms: N2_12  and  C11_13 
ROOT
HETATM    1  C7  UNL     1      21.274   3.816  51.430  1.00  0.00     0.026 C 
HETATM    2  C8  UNL     1      22.552   3.443  51.695  1.00  0.00     0.052 C 
HETATM    3  C9  UNL     1      23.796   4.307  51.692  1.00  0.00     0.243 A 
HETATM    4  C10 UNL     1      24.514   3.221  51.545  1.00  0.00     0.230 A 
HETATM    5  N2  UNL     1      24.645   1.879  51.450  1.00  0.00    -0.340 N 
HETATM    6  N3  UNL     1      25.065   4.255  50.658  1.00  0.00     0.011 N 
HETATM    7  C17 UNL     1      25.599   5.408  49.844  1.00  0.00     0.369 C 
HETATM    8  N4  UNL     1      24.376   5.959  49.250  1.00  0.00    -0.355 N 
HETATM    9  C18 UNL     1      24.146   6.467  48.110  1.00  0.00     0.089 A 
HETATM   10  C19 UNL     1      22.990   6.385  48.960  1.00  0.00     0.163 A 
HETATM   11  C20 UNL     1      22.259   6.290  50.050  1.00  0.00     0.137 C 
HETATM   12  C21 UNL     1      20.763   6.179  50.160  1.00  0.00     0.163 C 
HETATM   13  N5  UNL     1      20.477   4.872  50.867  1.00  0.00    -0.387 N 
HETATM   14  O1  UNL     1      22.877   6.334  51.225  1.00  0.00    -0.369 OA
HETATM   15  C22 UNL     1      23.865   5.774  52.006  1.00  0.00     0.221 C 
HETATM   16  H14 UNL     1      24.083   1.618  50.582  1.00  0.00     0.167 HD
HETATM   17  H18 UNL     1      25.254   3.500  49.906  1.00  0.00     0.292 HD
HETATM   18  H25 UNL     1      19.481   4.713  50.942  1.00  0.00     0.159 HD
ENDROOT
BRANCH   5  19
HETATM   19  C11 UNL     1      25.609   1.328  52.605  1.00  0.00     0.021 A 
HETATM   20  C12 UNL     1      26.806   1.947  52.157  1.00  0.00     0.029 A 
HETATM   21  C13 UNL     1      27.510   1.225  53.220  1.00  0.00     0.046 A 
HETATM   22  C14 UNL     1      26.887   0.353  54.142  1.00  0.00     0.134 A 
HETATM   23  F1  UNL     1      27.817  -0.211  55.006  1.00  0.00    -0.205 F 
HETATM   24  C15 UNL     1      25.453   0.152  54.028  1.00  0.00     0.061 A 
HETATM   25 CL1  UNL     1      25.151  -0.957  55.422  1.00  0.00    -0.085 Cl
HETATM   26  C16 UNL     1      24.541   0.795  52.983  1.00  0.00     0.098 A 
ENDBRANCH   5  19
BRANCH   1  27
HETATM   27  C6  UNL     1      20.367   2.806  51.932  1.00  0.00     0.026 C 
BRANCH  27  28
HETATM   28  C5  UNL     1      19.825   1.658  51.903  1.00  0.00    -0.005 C 
BRANCH  28  29
HETATM   29  C4  UNL     1      19.422   0.273  51.852  1.00  0.00     0.143 C 
BRANCH  29  30
HETATM   30  N1  UNL     1      19.538  -0.440  53.041  1.00  0.00    -0.414 N 
HETATM   31  C3  UNL     1      18.375  -1.234  53.337  1.00  0.00     0.143 C 
BRANCH  30  32
HETATM   32  C2  UNL     1      20.428  -0.230  54.090  1.00  0.00     0.112 C 
HETATM   33  C1  UNL     1      21.448  -1.363  54.244  1.00  0.00     0.026 C 
ENDBRANCH  30  32
ENDBRANCH  29  30
ENDBRANCH  28  29
ENDBRANCH  27  28
ENDBRANCH   1  27
TORSDOF 6
ENDMDL
MODEL 5
REMARK VINA RESULT:      -7.8      2.956      5.994
REMARK  6 active torsions:
REMARK  status: ('A' for Active; 'I' for Inactive)
REMARK    1  A    between atoms: C2_2  and  N1_3 
REMARK    2  A    between atoms: N1_3  and  C4_5 
REMARK    3  A    between atoms: C4_5  and  C5_6 
REMARK    4  A    between atoms: C5_6  and  C6_7 
REMARK    5  A    between atoms: C6_7  and  C7_8 
REMARK    6  A    between atoms: N2_12  and  C11_13 
ROOT
HETATM    1  C7  UNL     1      26.149   3.070  50.702  1.00  0.00     0.026 C 
HETATM    2  C8  UNL     1      24.809   2.887  50.597  1.00  0.00     0.052 C 
HETATM    3  C9  UNL     1      23.821   2.560  51.697  1.00  0.00     0.243 A 
HETATM    4  C10 UNL     1      22.998   2.108  50.784  1.00  0.00     0.230 A 
HETATM    5  N2  UNL     1      22.653   1.871  49.499  1.00  0.00    -0.340 N 
HETATM    6  N3  UNL     1      22.972   1.178  51.921  1.00  0.00     0.011 N 
HETATM    7  C17 UNL     1      22.961   0.330  53.169  1.00  0.00     0.369 C 
HETATM    8  N4  UNL     1      24.391   0.198  53.466  1.00  0.00    -0.355 N 
HETATM    9  C18 UNL     1      25.072  -0.766  53.931  1.00  0.00     0.089 A 
HETATM   10  C19 UNL     1      25.851   0.396  53.602  1.00  0.00     0.163 A 
HETATM   11  C20 UNL     1      26.155   1.649  53.345  1.00  0.00     0.137 C 
HETATM   12  C21 UNL     1      27.485   2.217  52.928  1.00  0.00     0.163 C 
HETATM   13  N5  UNL     1      27.271   2.872  51.580  1.00  0.00    -0.387 N 
HETATM   14  O1  UNL     1      25.210   2.569  53.499  1.00  0.00    -0.369 OA
HETATM   15  C22 UNL     1      23.934   2.952  53.143  1.00  0.00     0.221 C 
HETATM   16  H14 UNL     1      23.406   1.207  49.140  1.00  0.00     0.167 HD
HETATM   17  H18 UNL     1      22.898   0.347  51.231  1.00  0.00     0.292 HD
HETATM   18  H25 UNL     1      28.140   3.246  51.219  1.00  0.00     0.159 HD
ENDROOT
BRANCH   5  19
HETATM   19  C11 UNL     1      21.279   2.616  49.142  1.00  0.00     0.021 A 
HETATM   20  C12 UNL     1      21.838   3.864  48.763  1.00  0.00     0.029 A 
HETATM   21  C13 UNL     1      20.470   4.372  48.629  1.00  0.00     0.046 A 
HETATM   22  C14 UNL     1      19.307   3.603  48.862  1.00  0.00     0.134 A 
HETATM   23  F1  UNL     1      18.159   4.368  48.690  1.00  0.00    -0.205 F 
HETATM   24  C15 UNL     1      19.474   2.219  49.266  1.00  0.00     0.061 A 
HETATM   25 CL1  UNL     1      17.752   1.683  49.370  1.00  0.00    -0.085 Cl
HETATM   26  C16 UNL     1      20.809   1.505  49.478  1.00  0.00     0.098 A 
ENDBRANCH   5  19
BRANCH   1  27
HETATM   27  C6  UNL     1      26.635   3.751  49.522  1.00  0.00     0.026 C 
BRANCH  27  28
HETATM   28  C5  UNL     1      27.132   4.751  48.917  1.00  0.00    -0.005 C 
BRANCH  28  29
HETATM   29  C4  UNL     1      27.538   6.009  48.339  1.00  0.00     0.143 C 
BRANCH  29  30
HETATM   30  N1  UNL     1      26.694   7.089  48.573  1.00  0.00    -0.414 N 
HETATM   31  C3  UNL     1      26.327   7.788  47.369  1.00  0.00     0.143 C 
BRANCH  30  32
HETATM   32  C2  UNL     1      26.452   7.751  49.773  1.00  0.00     0.112 C 
HETATM   33  C1  UNL     1      25.126   7.344  50.424  1.00  0.00     0.026 C 
ENDBRANCH  30  32
ENDBRANCH  29  30
ENDBRANCH  28  29
ENDBRANCH  27  28
ENDBRANCH   1  27
TORSDOF 6
ENDMDL
MODEL 6
REMARK VINA RESULT:      -7.6      7.269     11.015
REMARK  6 active torsions:
REMARK  status: ('A' for Active; 'I' for Inactive)
REMARK    1  A    between atoms: C2_2  and  N1_3 
REMARK    2  A    between atoms: N1_3  and  C4_5 
REMARK    3  A    between atoms: C4_5  and  C5_6 
REMARK    4  A    between atoms: C5_6  and  C6_7 
REMARK    5  A    between atoms: C6_7  and  C7_8 
REMARK    6  A    between atoms: N2_12  and  C11_13 
ROOT
HETATM    1  C7  UNL     1      30.267   5.606  47.914  1.00  0.00     0.026 C 
HETATM    2  C8  UNL     1      30.393   6.949  48.066  1.00  0.00     0.052 C 
HETATM    3  C9  UNL     1      31.482   7.851  47.525  1.00  0.00     0.243 A 
HETATM    4  C10 UNL     1      31.165   8.734  48.440  1.00  0.00     0.230 A 
HETATM    5  N2  UNL     1      30.399   9.167  49.466  1.00  0.00    -0.340 N 
HETATM    6  N3  UNL     1      32.630   8.668  48.360  1.00  0.00     0.011 N 
HETATM    7  C17 UNL     1      34.121   8.581  48.144  1.00  0.00     0.369 C 
HETATM    8  N4  UNL     1      34.342   7.131  48.101  1.00  0.00    -0.355 N 
HETATM    9  C18 UNL     1      35.295   6.409  48.527  1.00  0.00     0.089 A 
HETATM   10  C19 UNL     1      34.222   5.668  47.923  1.00  0.00     0.163 A 
HETATM   11  C20 UNL     1      33.169   5.396  47.184  1.00  0.00     0.137 C 
HETATM   12  C21 UNL     1      32.400   4.106  47.100  1.00  0.00     0.163 C 
HETATM   13  N5  UNL     1      30.979   4.422  47.515  1.00  0.00    -0.387 N 
HETATM   14  O1  UNL     1      32.718   6.337  46.362  1.00  0.00    -0.369 OA
HETATM   15  C22 UNL     1      32.275   7.639  46.267  1.00  0.00     0.221 C 
HETATM   16  H14 UNL     1      30.538   8.435  50.229  1.00  0.00     0.167 HD
HETATM   17  H18 UNL     1      32.687   8.783  49.435  1.00  0.00     0.292 HD
HETATM   18  H25 UNL     1      30.409   3.585  47.518  1.00  0.00     0.159 HD
ENDROOT
BRANCH   5  19
HETATM   19  C11 UNL     1      29.717  10.571  49.101  1.00  0.00     0.021 A 
HETATM   20  C12 UNL     1      30.881  11.376  49.210  1.00  0.00     0.029 A 
HETATM   21  C13 UNL     1      30.025  12.544  48.987  1.00  0.00     0.046 A 
HETATM   22  C14 UNL     1      28.630  12.482  48.771  1.00  0.00     0.134 A 
HETATM   23  F1  UNL     1      28.088  13.754  48.627  1.00  0.00    -0.205 F 
HETATM   24  C15 UNL     1      27.997  11.175  48.776  1.00  0.00     0.061 A 
HETATM   25 CL1  UNL     1      26.285  11.623  48.408  1.00  0.00    -0.085 Cl
HETATM   26  C16 UNL     1      28.705   9.841  49.007  1.00  0.00     0.098 A 
ENDBRANCH   5  19
BRANCH   1  27
HETATM   27  C6  UNL     1      28.910   5.213  48.227  1.00  0.00     0.026 C 
BRANCH  27  28
HETATM   28  C5  UNL     1      27.695   5.462  48.500  1.00  0.00    -0.005 C 
BRANCH  28  29
HETATM   29  C4  UNL     1      26.287   5.766  48.586  1.00  0.00     0.143 C 
BRANCH  29  30
HETATM   30  N1  UNL     1      25.863   6.359  49.770  1.00  0.00    -0.414 N 
HETATM   31  C3  UNL     1      24.866   5.585  50.462  1.00  0.00     0.143 C 
BRANCH  30  32
HETATM   32  C2  UNL     1      26.008   7.684  50.172  1.00  0.00     0.112 C 
HETATM   33  C1  UNL     1      24.686   8.459  50.164  1.00  0.00     0.026 C 
ENDBRANCH  30  32
ENDBRANCH  29  30
ENDBRANCH  28  29
ENDBRANCH  27  28
ENDBRANCH   1  27
TORSDOF 6
ENDMDL
MODEL 7
REMARK VINA RESULT:      -7.6      1.718      2.126
REMARK  6 active torsions:
REMARK  status: ('A' for Active; 'I' for Inactive)
REMARK    1  A    between atoms: C2_2  and  N1_3 
REMARK    2  A    between atoms: N1_3  and  C4_5 
REMARK    3  A    between atoms: C4_5  and  C5_6 
REMARK    4  A    between atoms: C5_6  and  C6_7 
REMARK    5  A    between atoms: C6_7  and  C7_8 
REMARK    6  A    between atoms: N2_12  and  C11_13 
ROOT
HETATM    1  C7  UNL     1      24.839   2.914  51.727  1.00  0.00     0.026 C 
HETATM    2  C8  UNL     1      23.584   2.401  51.794  1.00  0.00     0.052 C 
HETATM    3  C9  UNL     1      22.568   2.273  50.680  1.00  0.00     0.243 A 
HETATM    4  C10 UNL     1      21.626   2.192  51.587  1.00  0.00     0.230 A 
HETATM    5  N2  UNL     1      21.207   2.135  52.871  1.00  0.00    -0.340 N 
HETATM    6  N3  UNL     1      21.144   3.064  50.509  1.00  0.00     0.011 N 
HETATM    7  C17 UNL     1      20.716   3.881  49.314  1.00  0.00     0.369 C 
HETATM    8  N4  UNL     1      21.893   4.725  49.080  1.00  0.00    -0.355 N 
HETATM    9  C18 UNL     1      22.005   5.931  48.699  1.00  0.00     0.089 A 
HETATM   10  C19 UNL     1      23.258   5.287  48.986  1.00  0.00     0.163 A 
HETATM   11  C20 UNL     1      24.144   4.334  49.178  1.00  0.00     0.137 C 
HETATM   12  C21 UNL     1      25.579   4.472  49.609  1.00  0.00     0.163 C 
HETATM   13  N5  UNL     1      25.716   3.704  50.905  1.00  0.00    -0.387 N 
HETATM   14  O1  UNL     1      23.781   3.080  48.934  1.00  0.00    -0.369 OA
HETATM   15  C22 UNL     1      22.863   2.092  49.218  1.00  0.00     0.221 C 
HETATM   16  H14 UNL     1      21.530   3.058  53.298  1.00  0.00     0.167 HD
HETATM   17  H18 UNL     1      20.666   3.698  51.245  1.00  0.00     0.292 HD
HETATM   18  H25 UNL     1      26.655   3.785  51.275  1.00  0.00     0.159 HD
ENDROOT
BRANCH   5  19
HETATM   19  C11 UNL     1      20.383   0.785  53.131  1.00  0.00     0.021 A 
HETATM   20  C12 UNL     1      21.308   0.173  54.018  1.00  0.00     0.029 A 
HETATM   21  C13 UNL     1      20.453  -1.017  53.997  1.00  0.00     0.046 A 
HETATM   22  C14 UNL     1      19.248  -1.122  53.266  1.00  0.00     0.134 A 
HETATM   23  F1  UNL     1      18.680  -2.382  53.415  1.00  0.00    -0.205 F 
HETATM   24  C15 UNL     1      18.828   0.022  52.477  1.00  0.00     0.061 A 
HETATM   25 CL1  UNL     1      17.258  -0.579  51.813  1.00  0.00    -0.085 Cl
HETATM   26  C16 UNL     1      19.581   1.345  52.351  1.00  0.00     0.098 A 
ENDBRANCH   5  19
BRANCH   1  27
HETATM   27  C6  UNL     1      25.597   2.482  52.882  1.00  0.00     0.026 C 
BRANCH  27  28
HETATM   28  C5  UNL     1      26.020   1.600  53.691  1.00  0.00    -0.005 C 
BRANCH  28  29
HETATM   29  C4  UNL     1      26.349   0.460  54.512  1.00  0.00     0.143 C 
BRANCH  29  30
HETATM   30  N1  UNL     1      27.556  -0.169  54.228  1.00  0.00    -0.414 N 
HETATM   31  C3  UNL     1      28.672   0.407  54.932  1.00  0.00     0.143 C 
BRANCH  30  32
HETATM   32  C2  UNL     1      27.864  -1.001  53.156  1.00  0.00     0.112 C 
HETATM   33  C1  UNL     1      29.269  -1.607  53.253  1.00  0.00     0.026 C 
ENDBRANCH  30  32
ENDBRANCH  29  30
ENDBRANCH  28  29
ENDBRANCH  27  28
ENDBRANCH   1  27
TORSDOF 6
ENDMDL
MODEL 8
REMARK VINA RESULT:      -7.3      3.133      6.115
REMARK  6 active torsions:
REMARK  status: ('A' for Active; 'I' for Inactive)
REMARK    1  A    between atoms: C2_2  and  N1_3 
REMARK    2  A    between atoms: N1_3  and  C4_5 
REMARK    3  A    between atoms: C4_5  and  C5_6 
REMARK    4  A    between atoms: C5_6  and  C6_7 
REMARK    5  A    between atoms: C6_7  and  C7_8 
REMARK    6  A    between atoms: N2_12  and  C11_13 
ROOT
HETATM    1  C7  UNL     1      22.072   4.072  49.291  1.00  0.00     0.026 C 
HETATM    2  C8  UNL     1      22.474   3.156  50.208  1.00  0.00     0.052 C 
HETATM    3  C9  UNL     1      22.038   1.712  50.339  1.00  0.00     0.243 A 
HETATM    4  C10 UNL     1      22.436   1.735  51.587  1.00  0.00     0.230 A 
HETATM    5  N2  UNL     1      23.011   2.347  52.646  1.00  0.00    -0.340 N 
HETATM    6  N3  UNL     1      21.152   1.024  51.533  1.00  0.00     0.011 N 
HETATM    7  C17 UNL     1      19.872   0.244  51.356  1.00  0.00     0.369 C 
HETATM    8  N4  UNL     1      19.094   1.122  50.475  1.00  0.00    -0.355 N 
HETATM    9  C18 UNL     1      17.853   1.385  50.426  1.00  0.00     0.089 A 
HETATM   10  C19 UNL     1      18.644   2.105  49.466  1.00  0.00     0.163 A 
HETATM   11  C20 UNL     1      19.646   2.418  48.674  1.00  0.00     0.137 C 
HETATM   12  C21 UNL     1      19.809   3.647  47.821  1.00  0.00     0.163 C 
HETATM   13  N5  UNL     1      21.069   4.339  48.296  1.00  0.00    -0.387 N 
HETATM   14  O1  UNL     1      20.643   1.550  48.549  1.00  0.00    -0.369 OA
HETATM   15  C22 UNL     1      21.590   0.810  49.224  1.00  0.00     0.221 C 
HETATM   16  H14 UNL     1      22.388   3.191  52.836  1.00  0.00     0.167 HD
HETATM   17  H18 UNL     1      20.866   1.483  52.470  1.00  0.00     0.292 HD
HETATM   18  H25 UNL     1      21.221   5.200  47.787  1.00  0.00     0.159 HD
ENDROOT
BRANCH   5  19
HETATM   19  C11 UNL     1      24.280   1.510  53.154  1.00  0.00     0.021 A 
HETATM   20  C12 UNL     1      23.603   0.290  53.417  1.00  0.00     0.029 A 
HETATM   21  C13 UNL     1      24.862  -0.224  53.965  1.00  0.00     0.046 A 
HETATM   22  C14 UNL     1      26.068   0.511  54.020  1.00  0.00     0.134 A 
HETATM   23  F1  UNL     1      27.078  -0.228  54.624  1.00  0.00    -0.205 F 
HETATM   24  C15 UNL     1      26.063   1.869  53.506  1.00  0.00     0.061 A 
HETATM   25 CL1  UNL     1      27.794   2.330  53.742  1.00  0.00    -0.085 Cl
HETATM   26  C16 UNL     1      24.856   2.595  52.912  1.00  0.00     0.098 A 
ENDBRANCH   5  19
BRANCH   1  27
HETATM   27  C6  UNL     1      23.012   5.172  49.268  1.00  0.00     0.026 C 
BRANCH  27  28
HETATM   28  C5  UNL     1      23.805   5.969  48.677  1.00  0.00    -0.005 C 
BRANCH  28  29
HETATM   29  C4  UNL     1      24.822   6.875  48.202  1.00  0.00     0.143 C 
BRANCH  29  30
HETATM   30  N1  UNL     1      25.943   7.014  49.014  1.00  0.00    -0.414 N 
HETATM   31  C3  UNL     1      25.747   7.946  50.093  1.00  0.00     0.143 C 
BRANCH  30  32
HETATM   32  C2  UNL     1      27.260   6.658  48.735  1.00  0.00     0.112 C 
HETATM   33  C1  UNL     1      27.446   5.147  48.556  1.00  0.00     0.026 C 
ENDBRANCH  30  32
ENDBRANCH  29  30
ENDBRANCH  28  29
ENDBRANCH  27  28
ENDBRANCH   1  27
TORSDOF 6
ENDMDL
MODEL 9
REMARK VINA RESULT:      -7.1      2.532      5.986
REMARK  6 active torsions:
REMARK  status: ('A' for Active; 'I' for Inactive)
REMARK    1  A    between atoms: C2_2  and  N1_3 
REMARK    2  A    between atoms: N1_3  and  C4_5 
REMARK    3  A    between atoms: C4_5  and  C5_6 
REMARK    4  A    between atoms: C5_6  and  C6_7 
REMARK    5  A    between atoms: C6_7  and  C7_8 
REMARK    6  A    between atoms: N2_12  and  C11_13 
ROOT
HETATM    1  C7  UNL     1      20.088   3.696  50.695  1.00  0.00     0.026 C 
HETATM    2  C8  UNL     1      21.249   3.177  51.168  1.00  0.00     0.052 C 
HETATM    3  C9  UNL     1      22.532   3.909  51.500  1.00  0.00     0.243 A 
HETATM    4  C10 UNL     1      23.175   2.773  51.388  1.00  0.00     0.230 A 
HETATM    5  N2  UNL     1      23.213   1.438  51.184  1.00  0.00    -0.340 N 
HETATM    6  N3  UNL     1      23.979   3.817  50.739  1.00  0.00     0.011 N 
HETATM    7  C17 UNL     1      24.761   4.975  50.169  1.00  0.00     0.369 C 
HETATM    8  N4  UNL     1      23.736   5.693  49.404  1.00  0.00    -0.355 N 
HETATM    9  C18 UNL     1      23.789   6.316  48.299  1.00  0.00     0.089 A 
HETATM   10  C19 UNL     1      22.479   6.279  48.890  1.00  0.00     0.163 A 
HETATM   11  C20 UNL     1      21.534   6.166  49.798  1.00  0.00     0.137 C 
HETATM   12  C21 UNL     1      20.043   6.197  49.597  1.00  0.00     0.163 C 
HETATM   13  N5  UNL     1      19.512   4.870  50.095  1.00  0.00    -0.387 N 
HETATM   14  O1  UNL     1      21.896   6.050  51.070  1.00  0.00    -0.369 OA
HETATM   15  C22 UNL     1      22.653   5.331  51.971  1.00  0.00     0.221 C 
HETATM   16  H14 UNL     1      22.824   1.307  50.200  1.00  0.00     0.167 HD
HETATM   17  H18 UNL     1      24.258   3.112  49.966  1.00  0.00     0.292 HD
HETATM   18  H25 UNL     1      18.512   4.806  49.955  1.00  0.00     0.159 HD
ENDROOT
BRANCH   5  19
HETATM   19  C11 UNL     1      23.870   0.698  52.445  1.00  0.00     0.021 A 
HETATM   20  C12 UNL     1      25.226   0.996  52.148  1.00  0.00     0.029 A 
HETATM   21  C13 UNL     1      25.601   0.151  53.285  1.00  0.00     0.046 A 
HETATM   22  C14 UNL     1      24.679  -0.519  54.121  1.00  0.00     0.134 A 
HETATM   23  F1  UNL     1      25.335  -1.271  55.089  1.00  0.00    -0.205 F 
HETATM   24  C15 UNL     1      23.264  -0.368  53.833  1.00  0.00     0.061 A 
HETATM   25 CL1  UNL     1      22.537  -1.335  55.176  1.00  0.00    -0.085 Cl
HETATM   26  C16 UNL     1      22.667   0.450  52.689  1.00  0.00     0.098 A 
ENDBRANCH   5  19
BRANCH   1  27
HETATM   27  C6  UNL     1      19.017   2.744  50.900  1.00  0.00     0.026 C 
BRANCH  27  28
HETATM   28  C5  UNL     1      18.566   1.569  51.065  1.00  0.00    -0.005 C 
BRANCH  28  29
HETATM   29  C4  UNL     1      18.132   0.193  51.043  1.00  0.00     0.143 C 
BRANCH  29  30
HETATM   30  N1  UNL     1      17.882  -0.387  52.282  1.00  0.00    -0.414 N 
HETATM   31  C3  UNL     1      19.076  -0.603  53.056  1.00  0.00     0.143 C 
BRANCH  30  32
HETATM   32  C2  UNL     1      16.741  -1.065  52.703  1.00  0.00     0.112 C 
HETATM   33  C1  UNL     1      15.494  -0.174  52.734  1.00  0.00     0.026 C 
ENDBRANCH  30  32
ENDBRANCH  29  30
ENDBRANCH  28  29
ENDBRANCH  27  28
ENDBRANCH   1  27
TORSDOF 6
ENDMDL
