MODEL 1
REMARK VINA RESULT:      -7.0      0.000      0.000
REMARK  3 active torsions:
REMARK  status: ('A' for Active; 'I' for Inactive)
REMARK    1  A    between atoms: N1_2  and  C2_3 
REMARK    2  A    between atoms: C2_3  and  C3_4 
REMARK    3  A    between atoms: N2_6  and  C4_7 
ROOT
HETATM    1  C4  UNL     1      24.665   0.199  53.819  1.00  0.00     0.126 C 
HETATM    2  C5  UNL     1      23.648  -0.679  53.877  1.00  0.00     0.069 C 
HETATM    3  C6  UNL     1      22.341  -0.945  53.237  1.00  0.00     0.114 C 
HETATM    4  N3  UNL     1      22.317   0.038  52.411  1.00  0.00    -0.297 NA
HETATM    5  C7  UNL     1      21.202   0.222  51.528  1.00  0.00     0.183 C 
HETATM    6  C8  UNL     1      21.607   1.109  50.376  1.00  0.00    -0.049 C 
HETATM    7  C9  UNL     1      20.514   1.368  49.426  1.00  0.00     0.046 C 
HETATM    8  C10 UNL     1      22.563   1.809  49.788  1.00  0.00     0.088 C 
HETATM    9  N4  UNL     1      23.008   2.643  48.738  1.00  0.00    -0.381 N 
HETATM   10  C11 UNL     1      23.615   3.799  49.363  1.00  0.00     0.268 C 
HETATM   11  N5  UNL     1      24.726   3.479  50.177  1.00  0.00    -0.285 NA
HETATM   12  C12 UNL     1      24.739   3.137  51.382  1.00  0.00     0.104 C 
HETATM   13  C13 UNL     1      24.544   2.751  52.805  1.00  0.00     0.167 C 
HETATM   14  N6  UNL     1      24.690   1.307  52.919  1.00  0.00    -0.370 N 
HETATM   15  H13 UNL     1      22.617   1.899  48.122  1.00  0.00     0.160 HD
HETATM   16  H19 UNL     1      24.900   0.725  52.060  1.00  0.00     0.161 HD
ENDROOT
BRANCH   1  17
HETATM   17  N2  UNL     1      25.938   0.471  54.431  1.00  0.00    -0.222 NA
HETATM   18  C3  UNL     1      26.995  -0.095  53.982  1.00  0.00     0.125 C 
HETATM   19 CL1  UNL     1      27.431  -1.223  52.716  1.00  0.00    -0.065 Cl
BRANCH  18  20
HETATM   20  C2  UNL     1      28.302   0.215  54.647  1.00  0.00     0.219 C 
BRANCH  20  21
HETATM   21  N1  UNL     1      28.435   1.640  54.634  1.00  0.00    -0.306 NA
HETATM   22  C1  UNL     1      28.665   2.340  53.588  1.00  0.00     0.143 C 
ENDBRANCH  20  21
ENDBRANCH  18  20
ENDBRANCH   1  17
TORSDOF 3
ENDMDL
MODEL 2
REMARK VINA RESULT:      -6.8      1.490      1.903
REMARK  3 active torsions:
REMARK  status: ('A' for Active; 'I' for Inactive)
REMARK    1  A    between atoms: N1_2  and  C2_3 
REMARK    2  A    between atoms: C2_3  and  C3_4 
REMARK    3  A    between atoms: N2_6  and  C4_7 
ROOT
HETATM    1  C4  UNL     1      24.856  -0.563  54.470  1.00  0.00     0.126 C 
HETATM    2  C5  UNL     1      23.947  -1.282  55.152  1.00  0.00     0.069 C 
HETATM    3  C6  UNL     1      22.488  -1.519  55.193  1.00  0.00     0.114 C 
HETATM    4  N3  UNL     1      22.129  -0.738  54.238  1.00  0.00    -0.297 NA
HETATM    5  C7  UNL     1      20.747  -0.613  53.877  1.00  0.00     0.183 C 
HETATM    6  C8  UNL     1      20.636  -0.046  52.483  1.00  0.00    -0.049 C 
HETATM    7  C9  UNL     1      19.246   0.134  52.035  1.00  0.00     0.046 C 
HETATM    8  C10 UNL     1      21.260   0.395  51.403  1.00  0.00     0.088 C 
HETATM    9  N4  UNL     1      21.227   0.929  50.095  1.00  0.00    -0.381 N 
HETATM   10  C11 UNL     1      22.064   2.109  50.114  1.00  0.00     0.268 C 
HETATM   11  N5  UNL     1      23.411   1.840  50.450  1.00  0.00    -0.285 NA
HETATM   12  C12 UNL     1      23.932   1.762  51.586  1.00  0.00     0.104 C 
HETATM   13  C13 UNL     1      24.358   1.712  53.010  1.00  0.00     0.167 C 
HETATM   14  N6  UNL     1      24.513   0.318  53.401  1.00  0.00    -0.370 N 
HETATM   15  H13 UNL     1      20.597   0.122  49.896  1.00  0.00     0.160 HD
HETATM   16  H19 UNL     1      24.325  -0.453  52.701  1.00  0.00     0.161 HD
ENDROOT
BRANCH   1  17
HETATM   17  N2  UNL     1      26.274  -0.320  54.418  1.00  0.00    -0.222 NA
HETATM   18  C3  UNL     1      26.991  -0.924  53.546  1.00  0.00     0.125 C 
HETATM   19 CL1  UNL     1      26.769  -2.080  52.252  1.00  0.00    -0.065 Cl
BRANCH  18  20
HETATM   20  C2  UNL     1      28.463  -0.645  53.525  1.00  0.00     0.219 C 
BRANCH  20  21
HETATM   21  N1  UNL     1      28.704   0.341  54.535  1.00  0.00    -0.306 NA
HETATM   22  C1  UNL     1      29.285   1.464  54.333  1.00  0.00     0.143 C 
ENDBRANCH  20  21
ENDBRANCH  18  20
ENDBRANCH   1  17
TORSDOF 3
ENDMDL
MODEL 3
REMARK VINA RESULT:      -6.8      1.829      4.090
REMARK  3 active torsions:
REMARK  status: ('A' for Active; 'I' for Inactive)
REMARK    1  A    between atoms: N1_2  and  C2_3 
REMARK    2  A    between atoms: C2_3  and  C3_4 
REMARK    3  A    between atoms: N2_6  and  C4_7 
ROOT
HETATM    1  C4  UNL     1      24.131   2.518  52.650  1.00  0.00     0.126 C 
HETATM    2  C5  UNL     1      23.431   3.204  51.729  1.00  0.00     0.069 C 
HETATM    3  C6  UNL     1      22.159   3.123  50.980  1.00  0.00     0.114 C 
HETATM    4  N3  UNL     1      21.710   2.021  51.462  1.00  0.00    -0.297 NA
HETATM    5  C7  UNL     1      20.449   1.493  51.029  1.00  0.00     0.183 C 
HETATM    6  C8  UNL     1      19.937   0.501  52.043  1.00  0.00    -0.049 C 
HETATM    7  C9  UNL     1      18.651  -0.107  51.668  1.00  0.00     0.046 C 
HETATM    8  C10 UNL     1      20.129  -0.118  53.197  1.00  0.00     0.088 C 
HETATM    9  N4  UNL     1      19.709  -1.035  54.186  1.00  0.00    -0.381 N 
HETATM   10  C11 UNL     1      20.818  -1.939  54.402  1.00  0.00     0.268 C 
HETATM   11  N5  UNL     1      21.989  -1.294  54.864  1.00  0.00    -0.285 NA
HETATM   12  C12 UNL     1      22.895  -0.747  54.195  1.00  0.00     0.104 C 
HETATM   13  C13 UNL     1      23.860  -0.156  53.230  1.00  0.00     0.167 C 
HETATM   14  N6  UNL     1      23.679   1.289  53.219  1.00  0.00    -0.370 N 
HETATM   15  H13 UNL     1      18.821  -0.489  54.164  1.00  0.00     0.160 HD
HETATM   16  H19 UNL     1      22.948   1.738  53.840  1.00  0.00     0.161 HD
ENDROOT
BRANCH   1  17
HETATM   17  N2  UNL     1      25.366   2.582  53.386  1.00  0.00    -0.222 NA
HETATM   18  C3  UNL     1      26.417   2.020  52.917  1.00  0.00     0.125 C 
HETATM   19 CL1  UNL     1      26.880   1.095  51.506  1.00  0.00    -0.065 Cl
BRANCH  18  20
HETATM   20  C2  UNL     1      27.683   2.110  53.715  1.00  0.00     0.219 C 
BRANCH  20  21
HETATM   21  N1  UNL     1      27.598   1.101  54.726  1.00  0.00    -0.306 NA
HETATM   22  C1  UNL     1      28.304   0.034  54.752  1.00  0.00     0.143 C 
ENDBRANCH  20  21
ENDBRANCH  18  20
ENDBRANCH   1  17
TORSDOF 3
ENDMDL
MODEL 4
REMARK VINA RESULT:      -6.4      2.983      5.993
REMARK  3 active torsions:
REMARK  status: ('A' for Active; 'I' for Inactive)
REMARK    1  A    between atoms: N1_2  and  C2_3 
REMARK    2  A    between atoms: C2_3  and  C3_4 
REMARK    3  A    between atoms: N2_6  and  C4_7 
ROOT
HETATM    1  C4  UNL     1      21.415   1.111  53.001  1.00  0.00     0.126 C 
HETATM    2  C5  UNL     1      21.715   0.062  53.788  1.00  0.00     0.069 C 
HETATM    3  C6  UNL     1      22.869  -0.787  54.154  1.00  0.00     0.114 C 
HETATM    4  N3  UNL     1      23.767  -0.234  53.423  1.00  0.00    -0.297 NA
HETATM    5  C7  UNL     1      25.116  -0.722  53.428  1.00  0.00     0.183 C 
HETATM    6  C8  UNL     1      26.044   0.342  52.895  1.00  0.00    -0.049 C 
HETATM    7  C9  UNL     1      27.452  -0.082  52.846  1.00  0.00     0.046 C 
HETATM    8  C10 UNL     1      26.180   1.568  52.416  1.00  0.00     0.088 C 
HETATM    9  N4  UNL     1      26.992   2.606  51.908  1.00  0.00    -0.381 N 
HETATM   10  C11 UNL     1      26.393   3.019  50.657  1.00  0.00     0.268 C 
HETATM   11  N5  UNL     1      25.076   3.514  50.800  1.00  0.00    -0.285 NA
HETATM   12  C12 UNL     1      23.998   2.876  50.814  1.00  0.00     0.104 C 
HETATM   13  C13 UNL     1      22.838   1.946  50.803  1.00  0.00     0.167 C 
HETATM   14  N6  UNL     1      22.374   1.764  52.171  1.00  0.00    -0.370 N 
HETATM   15  H13 UNL     1      27.555   2.445  52.770  1.00  0.00     0.160 HD
HETATM   16  H19 UNL     1      22.862   2.264  52.967  1.00  0.00     0.161 HD
ENDROOT
BRANCH   1  17
HETATM   17  N2  UNL     1      20.302   1.946  52.634  1.00  0.00    -0.222 NA
HETATM   18  C3  UNL     1      19.305   1.440  52.009  1.00  0.00     0.125 C 
HETATM   19 CL1  UNL     1      18.811  -0.120  51.391  1.00  0.00    -0.065 Cl
BRANCH  18  20
HETATM   20  C2  UNL     1      18.166   2.344  51.646  1.00  0.00     0.219 C 
BRANCH  20  21
HETATM   21  N1  UNL     1      18.695   3.674  51.622  1.00  0.00    -0.306 NA
HETATM   22  C1  UNL     1      18.637   4.462  50.615  1.00  0.00     0.143 C 
ENDBRANCH  20  21
ENDBRANCH  18  20
ENDBRANCH   1  17
TORSDOF 3
ENDMDL
MODEL 5
REMARK VINA RESULT:      -6.3      2.208      3.751
REMARK  3 active torsions:
REMARK  status: ('A' for Active; 'I' for Inactive)
REMARK    1  A    between atoms: N1_2  and  C2_3 
REMARK    2  A    between atoms: C2_3  and  C3_4 
REMARK    3  A    between atoms: N2_6  and  C4_7 
ROOT
HETATM    1  C4  UNL     1      26.074   1.827  51.812  1.00  0.00     0.126 C 
HETATM    2  C5  UNL     1      26.580   2.587  50.824  1.00  0.00     0.069 C 
HETATM    3  C6  UNL     1      26.128   3.492  49.745  1.00  0.00     0.114 C 
HETATM    4  N3  UNL     1      24.862   3.426  49.943  1.00  0.00    -0.297 NA
HETATM    5  C7  UNL     1      23.953   4.162  49.113  1.00  0.00     0.183 C 
HETATM    6  C8  UNL     1      22.624   4.304  49.813  1.00  0.00    -0.049 C 
HETATM    7  C9  UNL     1      21.622   5.033  49.022  1.00  0.00     0.046 C 
HETATM    8  C10 UNL     1      21.897   4.054  50.889  1.00  0.00     0.088 C 
HETATM    9  N4  UNL     1      20.680   4.149  51.600  1.00  0.00    -0.381 N 
HETATM   10  C11 UNL     1      20.336   2.803  52.005  1.00  0.00     0.268 C 
HETATM   11  N5  UNL     1      21.299   2.207  52.852  1.00  0.00    -0.285 NA
HETATM   12  C12 UNL     1      22.334   1.576  52.535  1.00  0.00     0.104 C 
HETATM   13  C13 UNL     1      23.505   0.862  51.959  1.00  0.00     0.167 C 
HETATM   14  N6  UNL     1      24.676   1.719  52.076  1.00  0.00    -0.370 N 
HETATM   15  H13 UNL     1      20.764   5.168  51.398  1.00  0.00     0.160 HD
HETATM   16  H19 UNL     1      24.590   2.677  52.519  1.00  0.00     0.161 HD
ENDROOT
BRANCH   1  17
HETATM   17  N2  UNL     1      26.497   0.944  52.867  1.00  0.00    -0.222 NA
HETATM   18  C3  UNL     1      27.523   1.242  53.574  1.00  0.00     0.125 C 
HETATM   19 CL1  UNL     1      28.705   2.528  53.676  1.00  0.00    -0.065 Cl
BRANCH  18  20
HETATM   20  C2  UNL     1      27.930   0.296  54.662  1.00  0.00     0.219 C 
BRANCH  20  21
HETATM   21  N1  UNL     1      28.439  -0.874  54.014  1.00  0.00    -0.306 NA
HETATM   22  C1  UNL     1      29.645  -1.015  53.608  1.00  0.00     0.143 C 
ENDBRANCH  20  21
ENDBRANCH  18  20
ENDBRANCH   1  17
TORSDOF 3
ENDMDL
MODEL 6
REMARK VINA RESULT:      -6.3      3.866      6.121
REMARK  3 active torsions:
REMARK  status: ('A' for Active; 'I' for Inactive)
REMARK    1  A    between atoms: N1_2  and  C2_3 
REMARK    2  A    between atoms: C2_3  and  C3_4 
REMARK    3  A    between atoms: N2_6  and  C4_7 
ROOT
HETATM    1  C4  UNL     1      23.839   5.416  51.299  1.00  0.00     0.126 C 
HETATM    2  C5  UNL     1      22.582   5.160  51.702  1.00  0.00     0.069 C 
HETATM    3  C6  UNL     1      21.754   4.035  52.188  1.00  0.00     0.114 C 
HETATM    4  N3  UNL     1      22.639   3.106  52.160  1.00  0.00    -0.297 NA
HETATM    5  C7  UNL     1      22.307   1.768  52.558  1.00  0.00     0.183 C 
HETATM    6  C8  UNL     1      23.568   1.008  52.889  1.00  0.00    -0.049 C 
HETATM    7  C9  UNL     1      23.321  -0.385  53.291  1.00  0.00     0.046 C 
HETATM    8  C10 UNL     1      24.887   1.022  52.991  1.00  0.00     0.088 C 
HETATM    9  N4  UNL     1      26.104   0.370  53.285  1.00  0.00    -0.381 N 
HETATM   10  C11 UNL     1      26.965   0.575  52.140  1.00  0.00     0.268 C 
HETATM   11  N5  UNL     1      27.243   1.937  51.881  1.00  0.00    -0.285 NA
HETATM   12  C12 UNL     1      26.576   2.756  51.207  1.00  0.00     0.104 C 
HETATM   13  C13 UNL     1      25.651   3.567  50.373  1.00  0.00     0.167 C 
HETATM   14  N6  UNL     1      24.862   4.421  51.249  1.00  0.00    -0.370 N 
HETATM   15  H13 UNL     1      25.634   0.124  54.182  1.00  0.00     0.160 HD
HETATM   16  H19 UNL     1      25.008   4.385  52.297  1.00  0.00     0.161 HD
ENDROOT
BRANCH   1  17
HETATM   17  N2  UNL     1      24.659   6.500  50.824  1.00  0.00    -0.222 NA
HETATM   18  C3  UNL     1      24.110   7.524  50.286  1.00  0.00     0.125 C 
HETATM   19 CL1  UNL     1      22.498   8.087  49.901  1.00  0.00    -0.065 Cl
BRANCH  18  20
HETATM   20  C2  UNL     1      24.998   8.631  49.805  1.00  0.00     0.219 C 
BRANCH  20  21
HETATM   21  N1  UNL     1      26.335   8.259  50.152  1.00  0.00    -0.306 NA
HETATM   22  C1  UNL     1      27.332   9.062  50.176  1.00  0.00     0.143 C 
ENDBRANCH  20  21
ENDBRANCH  18  20
ENDBRANCH   1  17
TORSDOF 3
ENDMDL
MODEL 7
REMARK VINA RESULT:      -6.2      2.727      5.913
REMARK  3 active torsions:
REMARK  status: ('A' for Active; 'I' for Inactive)
REMARK    1  A    between atoms: N1_2  and  C2_3 
REMARK    2  A    between atoms: C2_3  and  C3_4 
REMARK    3  A    between atoms: N2_6  and  C4_7 
ROOT
HETATM    1  C4  UNL     1      24.343   3.590  51.238  1.00  0.00     0.126 C 
HETATM    2  C5  UNL     1      23.143   3.047  51.510  1.00  0.00     0.069 C 
HETATM    3  C6  UNL     1      22.556   1.896  52.228  1.00  0.00     0.114 C 
HETATM    4  N3  UNL     1      23.637   1.357  52.664  1.00  0.00    -0.297 NA
HETATM    5  C7  UNL     1      23.590   0.159  53.451  1.00  0.00     0.183 C 
HETATM    6  C8  UNL     1      24.881   0.003  54.216  1.00  0.00    -0.049 C 
HETATM    7  C9  UNL     1      24.927  -1.215  55.040  1.00  0.00     0.046 C 
HETATM    8  C10 UNL     1      26.075   0.494  54.506  1.00  0.00     0.088 C 
HETATM    9  N4  UNL     1      27.306   0.409  55.192  1.00  0.00    -0.381 N 
HETATM   10  C11 UNL     1      28.342   0.559  54.194  1.00  0.00     0.268 C 
HETATM   11  N5  UNL     1      28.296   1.801  53.518  1.00  0.00    -0.285 NA
HETATM   12  C12 UNL     1      27.628   2.114  52.506  1.00  0.00     0.104 C 
HETATM   13  C13 UNL     1      26.763   2.288  51.309  1.00  0.00     0.167 C 
HETATM   14  N6  UNL     1      25.574   3.033  51.698  1.00  0.00    -0.370 N 
HETATM   15  H13 UNL     1      26.706   0.284  56.036  1.00  0.00     0.160 HD
HETATM   16  H19 UNL     1      25.451   3.350  52.701  1.00  0.00     0.161 HD
ENDROOT
BRANCH   1  17
HETATM   17  N2  UNL     1      24.930   4.705  50.543  1.00  0.00    -0.222 NA
HETATM   18  C3  UNL     1      24.465   5.062  49.404  1.00  0.00     0.125 C 
HETATM   19 CL1  UNL     1      23.200   4.568  48.301  1.00  0.00    -0.065 Cl
BRANCH  18  20
HETATM   20  C2  UNL     1      25.104   6.228  48.713  1.00  0.00     0.219 C 
BRANCH  20  21
HETATM   21  N1  UNL     1      26.501   5.930  48.623  1.00  0.00    -0.306 NA
HETATM   22  C1  UNL     1      27.417   6.796  48.398  1.00  0.00     0.143 C 
ENDBRANCH  20  21
ENDBRANCH  18  20
ENDBRANCH   1  17
TORSDOF 3
ENDMDL
MODEL 8
REMARK VINA RESULT:      -6.1      3.070      5.482
REMARK  3 active torsions:
REMARK  status: ('A' for Active; 'I' for Inactive)
REMARK    1  A    between atoms: N1_2  and  C2_3 
REMARK    2  A    between atoms: C2_3  and  C3_4 
REMARK    3  A    between atoms: N2_6  and  C4_7 
ROOT
HETATM    1  C4  UNL     1      25.551   3.786  50.706  1.00  0.00     0.126 C 
HETATM    2  C5  UNL     1      26.415   2.779  50.927  1.00  0.00     0.069 C 
HETATM    3  C6  UNL     1      26.476   1.466  51.604  1.00  0.00     0.114 C 
HETATM    4  N3  UNL     1      25.279   1.419  52.064  1.00  0.00    -0.297 NA
HETATM    5  C7  UNL     1      24.833   0.291  52.828  1.00  0.00     0.183 C 
HETATM    6  C8  UNL     1      23.325   0.247  52.839  1.00  0.00    -0.049 C 
HETATM    7  C9  UNL     1      22.779  -0.874  53.619  1.00  0.00     0.046 C 
HETATM    8  C10 UNL     1      22.189   0.794  52.439  1.00  0.00     0.088 C 
HETATM    9  N4  UNL     1      20.777   0.812  52.408  1.00  0.00    -0.381 N 
HETATM   10  C11 UNL     1      20.376   2.143  52.811  1.00  0.00     0.268 C 
HETATM   11  N5  UNL     1      20.852   3.159  51.950  1.00  0.00    -0.285 NA
HETATM   12  C12 UNL     1      21.953   3.756  51.981  1.00  0.00     0.104 C 
HETATM   13  C13 UNL     1      23.303   4.345  52.185  1.00  0.00     0.167 C 
HETATM   14  N6  UNL     1      24.210   3.785  51.193  1.00  0.00    -0.370 N 
HETATM   15  H13 UNL     1      20.876  -0.180  52.103  1.00  0.00     0.160 HD
HETATM   16  H19 UNL     1      23.854   3.079  50.488  1.00  0.00     0.161 HD
ENDROOT
BRANCH   1  17
HETATM   17  N2  UNL     1      25.475   5.066  50.053  1.00  0.00    -0.222 NA
HETATM   18  C3  UNL     1      26.384   5.410  49.219  1.00  0.00     0.125 C 
HETATM   19 CL1  UNL     1      27.855   4.743  48.546  1.00  0.00    -0.065 Cl
BRANCH  18  20
HETATM   20  C2  UNL     1      26.269   6.751  48.560  1.00  0.00     0.219 C 
BRANCH  20  21
HETATM   21  N1  UNL     1      26.383   7.726  49.601  1.00  0.00    -0.306 NA
HETATM   22  C1  UNL     1      26.002   8.945  49.503  1.00  0.00     0.143 C 
ENDBRANCH  20  21
ENDBRANCH  18  20
ENDBRANCH   1  17
TORSDOF 3
ENDMDL
MODEL 9
REMARK VINA RESULT:      -5.9      2.904      5.411
REMARK  3 active torsions:
REMARK  status: ('A' for Active; 'I' for Inactive)
REMARK    1  A    between atoms: N1_2  and  C2_3 
REMARK    2  A    between atoms: C2_3  and  C3_4 
REMARK    3  A    between atoms: N2_6  and  C4_7 
ROOT
HETATM    1  C4  UNL     1      22.565   3.873  51.711  1.00  0.00     0.126 C 
HETATM    2  C5  UNL     1      21.270   3.667  52.010  1.00  0.00     0.069 C 
HETATM    3  C6  UNL     1      20.384   2.611  52.544  1.00  0.00     0.114 C 
HETATM    4  N3  UNL     1      21.257   1.687  52.726  1.00  0.00    -0.297 NA
HETATM    5  C7  UNL     1      20.871   0.410  53.252  1.00  0.00     0.183 C 
HETATM    6  C8  UNL     1      22.082  -0.299  53.807  1.00  0.00    -0.049 C 
HETATM    7  C9  UNL     1      21.780  -1.631  54.353  1.00  0.00     0.046 C 
HETATM    8  C10 UNL     1      23.384  -0.269  54.043  1.00  0.00     0.088 C 
HETATM    9  N4  UNL     1      24.557  -0.876  54.542  1.00  0.00    -0.381 N 
HETATM   10  C11 UNL     1      25.534  -0.815  53.477  1.00  0.00     0.268 C 
HETATM   11  N5  UNL     1      25.852   0.504  53.079  1.00  0.00    -0.285 NA
HETATM   12  C12 UNL     1      25.268   1.229  52.241  1.00  0.00     0.104 C 
HETATM   13  C13 UNL     1      24.443   1.927  51.219  1.00  0.00     0.167 C 
HETATM   14  N6  UNL     1      23.576   2.882  51.894  1.00  0.00    -0.370 N 
HETATM   15  H13 UNL     1      23.993  -1.007  55.409  1.00  0.00     0.160 HD
HETATM   16  H19 UNL     1      23.612   2.980  52.948  1.00  0.00     0.161 HD
ENDROOT
BRANCH   1  17
HETATM   17  N2  UNL     1      23.440   4.890  51.191  1.00  0.00    -0.222 NA
HETATM   18  C3  UNL     1      23.545   5.055  49.926  1.00  0.00     0.125 C 
HETATM   19 CL1  UNL     1      22.886   4.357  48.463  1.00  0.00    -0.065 Cl
BRANCH  18  20
HETATM   20  C2  UNL     1      24.467   6.125  49.425  1.00  0.00     0.219 C 
BRANCH  20  21
HETATM   21  N1  UNL     1      25.792   5.716  49.779  1.00  0.00    -0.306 NA
HETATM   22  C1  UNL     1      26.578   5.055  49.014  1.00  0.00     0.143 C 
ENDBRANCH  20  21
ENDBRANCH  18  20
ENDBRANCH   1  17
TORSDOF 3
ENDMDL
