MODEL 1
REMARK VINA RESULT:      -8.9      0.000      0.000
REMARK  4 active torsions:
REMARK  status: ('A' for Active; 'I' for Inactive)
REMARK    1  A    between atoms: N1_1  and  C1_2 
REMARK    2  A    between atoms: C1_2  and  N2_4 
REMARK    3  A    between atoms: N2_4  and  N3_5 
REMARK    4  A    between atoms: C9_14  and  C10_15 
ROOT
HETATM    1  N3  UNL     1      25.980  -0.556  54.869  1.00  0.00    -0.177 NA
HETATM    2  C2  UNL     1      24.793  -0.445  54.402  1.00  0.00     0.060 A 
HETATM    3  C3  UNL     1      23.897  -1.309  55.261  1.00  0.00     0.029 A 
HETATM    4  C4  UNL     1      22.608  -1.587  55.259  1.00  0.00     0.003 A 
HETATM    5  C5  UNL     1      21.370  -1.270  54.509  1.00  0.00     0.015 A 
HETATM    6  C6  UNL     1      20.735  -0.636  53.520  1.00  0.00    -0.011 A 
HETATM    7 BR1  UNL     1      18.881  -0.772  53.177  1.00  0.00    -0.056 Br
HETATM    8  C7  UNL     1      21.481   0.264  52.576  1.00  0.00     0.017 A 
HETATM    9  C8  UNL     1      22.494   0.937  51.996  1.00  0.00     0.039 A 
HETATM   10  C9  UNL     1      23.953   0.921  52.422  1.00  0.00    -0.009 A 
HETATM   11  C16 UNL     1      24.965   0.488  53.257  1.00  0.00     0.100 A 
ENDROOT
BRANCH   1  12
HETATM   12  N2  UNL     1      27.168  -0.015  54.500  1.00  0.00    -0.253 N 
HETATM   13  H3  UNL     1      27.542   0.948  54.637  1.00  0.00     0.191 HD
BRANCH  12  14
HETATM   14  C1  UNL     1      28.111  -0.820  53.816  1.00  0.00     0.185 C 
HETATM   15  S1  UNL     1      29.705  -0.504  53.594  1.00  0.00    -0.040 SA
BRANCH  14  16
HETATM   16  N1  UNL     1      28.014  -2.073  53.147  1.00  0.00    -0.375 N 
HETATM   17  H1  UNL     1      27.840  -2.145  52.102  1.00  0.00     0.158 HD
HETATM   18  H2  UNL     1      28.040  -3.110  53.233  1.00  0.00     0.158 HD
ENDBRANCH  14  16
ENDBRANCH  12  14
ENDBRANCH   1  12
BRANCH  10  19
HETATM   19  C10 UNL     1      24.635   1.821  51.478  1.00  0.00    -0.052 A 
HETATM   20  C11 UNL     1      26.008   2.019  51.490  1.00  0.00     0.010 A 
HETATM   21  C12 UNL     1      26.719   2.856  50.626  1.00  0.00     0.043 A 
HETATM   22  C13 UNL     1      26.020   3.552  49.673  1.00  0.00     0.116 A 
HETATM   23  F1  UNL     1      26.657   4.373  48.814  1.00  0.00    -0.206 F 
HETATM   24  C14 UNL     1      24.658   3.432  49.571  1.00  0.00     0.043 A 
HETATM   25  C15 UNL     1      24.065   2.582  50.472  1.00  0.00     0.010 A 
ENDBRANCH  10  19
TORSDOF 4
ENDMDL
MODEL 2
REMARK VINA RESULT:      -8.6      3.666      5.266
REMARK  4 active torsions:
REMARK  status: ('A' for Active; 'I' for Inactive)
REMARK    1  A    between atoms: N1_1  and  C1_2 
REMARK    2  A    between atoms: C1_2  and  N2_4 
REMARK    3  A    between atoms: N2_4  and  N3_5 
REMARK    4  A    between atoms: C9_14  and  C10_15 
ROOT
HETATM    1  N3  UNL     1      25.091   3.371  50.773  1.00  0.00    -0.177 NA
HETATM    2  C2  UNL     1      24.516   2.432  51.425  1.00  0.00     0.060 A 
HETATM    3  C3  UNL     1      23.025   2.628  51.265  1.00  0.00     0.029 A 
HETATM    4  C4  UNL     1      21.959   1.988  51.704  1.00  0.00     0.003 A 
HETATM    5  C5  UNL     1      21.587   0.815  52.529  1.00  0.00     0.015 A 
HETATM    6  C6  UNL     1      21.923  -0.238  53.279  1.00  0.00    -0.011 A 
HETATM    7 BR1  UNL     1      20.685  -1.412  54.094  1.00  0.00    -0.056 Br
HETATM    8  C7  UNL     1      23.365  -0.574  53.535  1.00  0.00     0.017 A 
HETATM    9  C8  UNL     1      24.710  -0.506  53.505  1.00  0.00     0.039 A 
HETATM   10  C9  UNL     1      25.548   0.535  52.779  1.00  0.00    -0.009 A 
HETATM   11  C16 UNL     1      25.658   1.660  51.985  1.00  0.00     0.100 A 
ENDROOT
BRANCH   1  12
HETATM   12  N2  UNL     1      26.394   3.688  50.570  1.00  0.00    -0.253 N 
HETATM   13  H3  UNL     1      27.257   3.302  51.009  1.00  0.00     0.191 HD
BRANCH  12  14
HETATM   14  C1  UNL     1      26.723   4.691  49.627  1.00  0.00     0.185 C 
HETATM   15  S1  UNL     1      25.712   5.808  48.978  1.00  0.00    -0.040 SA
BRANCH  14  16
HETATM   16  N1  UNL     1      27.936   5.049  48.974  1.00  0.00    -0.375 N 
HETATM   17  H1  UNL     1      27.950   5.602  48.068  1.00  0.00     0.158 HD
HETATM   18  H2  UNL     1      28.976   5.006  48.986  1.00  0.00     0.158 HD
ENDBRANCH  14  16
ENDBRANCH  12  14
ENDBRANCH   1  12
BRANCH  10  19
HETATM   19  C10 UNL     1      26.944   0.157  53.051  1.00  0.00    -0.052 A 
HETATM   20  C11 UNL     1      27.903   1.074  53.457  1.00  0.00     0.010 A 
HETATM   21  C12 UNL     1      29.243   0.784  53.732  1.00  0.00     0.043 A 
HETATM   22  C13 UNL     1      29.669  -0.512  53.596  1.00  0.00     0.116 A 
HETATM   23  F1  UNL     1      30.951  -0.845  53.849  1.00  0.00    -0.206 F 
HETATM   24  C14 UNL     1      28.805  -1.500  53.200  1.00  0.00     0.043 A 
HETATM   25  C15 UNL     1      27.514  -1.101  52.957  1.00  0.00     0.010 A 
ENDBRANCH  10  19
TORSDOF 4
ENDMDL
MODEL 3
REMARK VINA RESULT:      -8.4      3.227      5.699
REMARK  4 active torsions:
REMARK  status: ('A' for Active; 'I' for Inactive)
REMARK    1  A    between atoms: N1_1  and  C1_2 
REMARK    2  A    between atoms: C1_2  and  N2_4 
REMARK    3  A    between atoms: N2_4  and  N3_5 
REMARK    4  A    between atoms: C9_14  and  C10_15 
ROOT
HETATM    1  N3  UNL     1      27.267   2.013  51.948  1.00  0.00    -0.177 NA
HETATM    2  C2  UNL     1      26.243   2.449  51.315  1.00  0.00     0.060 A 
HETATM    3  C3  UNL     1      26.735   3.504  50.348  1.00  0.00     0.029 A 
HETATM    4  C4  UNL     1      26.151   4.283  49.459  1.00  0.00     0.003 A 
HETATM    5  C5  UNL     1      24.810   4.584  48.906  1.00  0.00     0.015 A 
HETATM    6  C6  UNL     1      23.491   4.378  48.866  1.00  0.00    -0.011 A 
HETATM    7 BR1  UNL     1      22.297   5.296  47.724  1.00  0.00    -0.056 Br
HETATM    8  C7  UNL     1      22.842   3.362  49.762  1.00  0.00     0.017 A 
HETATM    9  C8  UNL     1      22.693   2.402  50.696  1.00  0.00     0.039 A 
HETATM   10  C9  UNL     1      23.796   1.773  51.532  1.00  0.00    -0.009 A 
HETATM   11  C16 UNL     1      25.125   1.660  51.895  1.00  0.00     0.100 A 
ENDROOT
BRANCH   1  12
HETATM   12  N2  UNL     1      27.419   1.078  52.918  1.00  0.00    -0.253 N 
HETATM   13  H3  UNL     1      26.764   0.341  53.253  1.00  0.00     0.191 HD
BRANCH  12  14
HETATM   14  C1  UNL     1      28.636   1.024  53.641  1.00  0.00     0.185 C 
HETATM   15  S1  UNL     1      29.613  -0.279  53.838  1.00  0.00    -0.040 SA
BRANCH  14  16
HETATM   16  N1  UNL     1      29.371   1.996  54.378  1.00  0.00    -0.375 N 
HETATM   17  H1  UNL     1      29.047   2.354  55.323  1.00  0.00     0.158 HD
HETATM   18  H2  UNL     1      30.213   2.608  54.414  1.00  0.00     0.158 HD
ENDBRANCH  14  16
ENDBRANCH  12  14
ENDBRANCH   1  12
BRANCH  10  19
HETATM   19  C10 UNL     1      23.113   0.782  52.380  1.00  0.00    -0.052 A 
HETATM   20  C11 UNL     1      23.768   0.066  53.372  1.00  0.00     0.010 A 
HETATM   21  C12 UNL     1      23.183  -0.886  54.212  1.00  0.00     0.043 A 
HETATM   22  C13 UNL     1      21.846  -1.152  54.061  1.00  0.00     0.116 A 
HETATM   23  F1  UNL     1      21.232  -2.061  54.845  1.00  0.00    -0.206 F 
HETATM   24  C14 UNL     1      21.101  -0.503  53.110  1.00  0.00     0.043 A 
HETATM   25  C15 UNL     1      21.780   0.412  52.343  1.00  0.00     0.010 A 
ENDBRANCH  10  19
TORSDOF 4
ENDMDL
MODEL 4
REMARK VINA RESULT:      -8.4      2.248      3.273
REMARK  4 active torsions:
REMARK  status: ('A' for Active; 'I' for Inactive)
REMARK    1  A    between atoms: N1_1  and  C1_2 
REMARK    2  A    between atoms: C1_2  and  N2_4 
REMARK    3  A    between atoms: N2_4  and  N3_5 
REMARK    4  A    between atoms: C9_14  and  C10_15 
ROOT
HETATM    1  N3  UNL     1      26.247   1.861  53.534  1.00  0.00    -0.177 NA
HETATM    2  C2  UNL     1      25.240   1.851  52.745  1.00  0.00     0.060 A 
HETATM    3  C3  UNL     1      24.226   0.893  53.330  1.00  0.00     0.029 A 
HETATM    4  C4  UNL     1      23.028   0.483  52.964  1.00  0.00     0.003 A 
HETATM    5  C5  UNL     1      22.032   0.675  51.884  1.00  0.00     0.015 A 
HETATM    6  C6  UNL     1      21.648   1.246  50.740  1.00  0.00    -0.011 A 
HETATM    7 BR1  UNL     1      19.995   0.921  49.882  1.00  0.00    -0.056 Br
HETATM    8  C7  UNL     1      22.539   2.225  50.028  1.00  0.00     0.017 A 
HETATM    9  C8  UNL     1      23.603   3.003  49.748  1.00  0.00     0.039 A 
HETATM   10  C9  UNL     1      24.871   3.136  50.575  1.00  0.00    -0.009 A 
HETATM   11  C16 UNL     1      25.639   2.805  51.675  1.00  0.00     0.100 A 
ENDROOT
BRANCH   1  12
HETATM   12  N2  UNL     1      27.430   2.524  53.510  1.00  0.00    -0.253 N 
HETATM   13  H3  UNL     1      27.649   3.501  53.219  1.00  0.00     0.191 HD
BRANCH  12  14
HETATM   14  C1  UNL     1      28.605   1.857  53.932  1.00  0.00     0.185 C 
HETATM   15  S1  UNL     1      28.939   0.257  53.793  1.00  0.00    -0.040 SA
BRANCH  14  16
HETATM   16  N1  UNL     1      29.800   2.303  54.565  1.00  0.00    -0.375 N 
HETATM   17  H1  UNL     1      30.124   3.313  54.518  1.00  0.00     0.158 HD
HETATM   18  H2  UNL     1      30.628   2.046  55.142  1.00  0.00     0.158 HD
ENDBRANCH  14  16
ENDBRANCH  12  14
ENDBRANCH   1  12
BRANCH  10  19
HETATM   19  C10 UNL     1      25.701   4.108  49.846  1.00  0.00    -0.052 A 
HETATM   20  C11 UNL     1      25.291   5.411  49.602  1.00  0.00     0.010 A 
HETATM   21  C12 UNL     1      26.026   6.384  48.919  1.00  0.00     0.043 A 
HETATM   22  C13 UNL     1      27.265   6.044  48.438  1.00  0.00     0.116 A 
HETATM   23  F1  UNL     1      28.015   6.944  47.772  1.00  0.00    -0.206 F 
HETATM   24  C14 UNL     1      27.770   4.782  48.621  1.00  0.00     0.043 A 
HETATM   25  C15 UNL     1      26.961   3.910  49.307  1.00  0.00     0.010 A 
ENDBRANCH  10  19
TORSDOF 4
ENDMDL
MODEL 5
REMARK VINA RESULT:      -8.1      4.140      6.273
REMARK  4 active torsions:
REMARK  status: ('A' for Active; 'I' for Inactive)
REMARK    1  A    between atoms: N1_1  and  C1_2 
REMARK    2  A    between atoms: C1_2  and  N2_4 
REMARK    3  A    between atoms: N2_4  and  N3_5 
REMARK    4  A    between atoms: C9_14  and  C10_15 
ROOT
HETATM    1  N3  UNL     1      22.557   1.383  52.819  1.00  0.00    -0.177 NA
HETATM    2  C2  UNL     1      23.382   2.083  52.135  1.00  0.00     0.060 A 
HETATM    3  C3  UNL     1      22.592   3.209  51.505  1.00  0.00     0.029 A 
HETATM    4  C4  UNL     1      22.898   4.217  50.712  1.00  0.00     0.003 A 
HETATM    5  C5  UNL     1      24.062   4.817  50.019  1.00  0.00     0.015 A 
HETATM    6  C6  UNL     1      25.363   4.827  49.720  1.00  0.00    -0.011 A 
HETATM    7 BR1  UNL     1      26.198   6.109  48.609  1.00  0.00    -0.056 Br
HETATM    8  C7  UNL     1      26.289   3.777  50.267  1.00  0.00     0.017 A 
HETATM    9  C8  UNL     1      26.727   2.698  50.944  1.00  0.00     0.039 A 
HETATM   10  C9  UNL     1      25.888   1.766  51.803  1.00  0.00    -0.009 A 
HETATM   11  C16 UNL     1      24.677   1.385  52.348  1.00  0.00     0.100 A 
ENDROOT
BRANCH   1  12
HETATM   12  N2  UNL     1      22.705   0.271  53.581  1.00  0.00    -0.253 N 
HETATM   13  H3  UNL     1      23.554  -0.295  53.791  1.00  0.00     0.191 HD
BRANCH  12  14
HETATM   14  C1  UNL     1      21.572  -0.275  54.234  1.00  0.00     0.185 C 
HETATM   15  S1  UNL     1      21.158  -1.858  54.339  1.00  0.00    -0.040 SA
BRANCH  14  16
HETATM   16  N1  UNL     1      20.498   0.309  54.964  1.00  0.00    -0.375 N 
HETATM   17  H1  UNL     1      20.628   0.715  55.936  1.00  0.00     0.158 HD
HETATM   18  H2  UNL     1      19.486   0.554  54.976  1.00  0.00     0.158 HD
ENDBRANCH  14  16
ENDBRANCH  12  14
ENDBRANCH   1  12
BRANCH  10  19
HETATM   19  C10 UNL     1      26.838   0.768  52.321  1.00  0.00    -0.052 A 
HETATM   20  C11 UNL     1      28.028   1.118  52.944  1.00  0.00     0.010 A 
HETATM   21  C12 UNL     1      28.972   0.225  53.458  1.00  0.00     0.043 A 
HETATM   22  C13 UNL     1      28.723  -1.119  53.350  1.00  0.00     0.116 A 
HETATM   23  F1  UNL     1      29.602  -2.023  53.830  1.00  0.00    -0.206 F 
HETATM   24  C14 UNL     1      27.578  -1.577  52.752  1.00  0.00     0.043 A 
HETATM   25  C15 UNL     1      26.722  -0.611  52.284  1.00  0.00     0.010 A 
ENDBRANCH  10  19
TORSDOF 4
ENDMDL
MODEL 6
REMARK VINA RESULT:      -8.1      3.676      5.036
REMARK  4 active torsions:
REMARK  status: ('A' for Active; 'I' for Inactive)
REMARK    1  A    between atoms: N1_1  and  C1_2 
REMARK    2  A    between atoms: C1_2  and  N2_4 
REMARK    3  A    between atoms: N2_4  and  N3_5 
REMARK    4  A    between atoms: C9_14  and  C10_15 
ROOT
HETATM    1  N3  UNL     1      23.655   3.832  51.623  1.00  0.00    -0.177 NA
HETATM    2  C2  UNL     1      23.073   2.776  52.054  1.00  0.00     0.060 A 
HETATM    3  C3  UNL     1      21.587   2.974  51.849  1.00  0.00     0.029 A 
HETATM    4  C4  UNL     1      20.518   2.244  52.099  1.00  0.00     0.003 A 
HETATM    5  C5  UNL     1      20.135   0.930  52.667  1.00  0.00     0.015 A 
HETATM    6  C6  UNL     1      20.461  -0.240  53.223  1.00  0.00    -0.011 A 
HETATM    7 BR1  UNL     1      19.215  -1.567  53.732  1.00  0.00    -0.056 Br
HETATM    8  C7  UNL     1      21.896  -0.593  53.494  1.00  0.00     0.017 A 
HETATM    9  C8  UNL     1      23.238  -0.497  53.552  1.00  0.00     0.039 A 
HETATM   10  C9  UNL     1      24.084   0.676  53.084  1.00  0.00    -0.009 A 
HETATM   11  C16 UNL     1      24.205   1.933  52.523  1.00  0.00     0.100 A 
ENDROOT
BRANCH   1  12
HETATM   12  N2  UNL     1      24.958   4.203  51.558  1.00  0.00    -0.253 N 
HETATM   13  H3  UNL     1      25.674   4.287  52.311  1.00  0.00     0.191 HD
BRANCH  12  14
HETATM   14  C1  UNL     1      25.517   4.546  50.303  1.00  0.00     0.185 C 
HETATM   15  S1  UNL     1      24.769   5.324  49.067  1.00  0.00    -0.040 SA
BRANCH  14  16
HETATM   16  N1  UNL     1      26.806   4.356  49.729  1.00  0.00    -0.375 N 
HETATM   17  H1  UNL     1      27.672   4.198  50.322  1.00  0.00     0.158 HD
HETATM   18  H2  UNL     1      27.369   4.292  48.856  1.00  0.00     0.158 HD
ENDBRANCH  14  16
ENDBRANCH  12  14
ENDBRANCH   1  12
BRANCH  10  19
HETATM   19  C10 UNL     1      25.474   0.277  53.359  1.00  0.00    -0.052 A 
HETATM   20  C11 UNL     1      26.135  -0.694  52.621  1.00  0.00     0.010 A 
HETATM   21  C12 UNL     1      27.451  -1.120  52.826  1.00  0.00     0.043 A 
HETATM   22  C13 UNL     1      28.170  -0.541  53.839  1.00  0.00     0.116 A 
HETATM   23  F1  UNL     1      29.443  -0.915  54.080  1.00  0.00    -0.206 F 
HETATM   24  C14 UNL     1      27.615   0.430  54.633  1.00  0.00     0.043 A 
HETATM   25  C15 UNL     1      26.317   0.769  54.339  1.00  0.00     0.010 A 
ENDBRANCH  10  19
TORSDOF 4
ENDMDL
MODEL 7
REMARK VINA RESULT:      -8.0      4.676      5.835
REMARK  4 active torsions:
REMARK  status: ('A' for Active; 'I' for Inactive)
REMARK    1  A    between atoms: N1_1  and  C1_2 
REMARK    2  A    between atoms: C1_2  and  N2_4 
REMARK    3  A    between atoms: N2_4  and  N3_5 
REMARK    4  A    between atoms: C9_14  and  C10_15 
ROOT
HETATM    1  N3  UNL     1      20.391  -0.806  53.705  1.00  0.00    -0.177 NA
HETATM    2  C2  UNL     1      21.642  -0.541  53.657  1.00  0.00     0.060 A 
HETATM    3  C3  UNL     1      22.273  -1.151  54.889  1.00  0.00     0.029 A 
HETATM    4  C4  UNL     1      23.501  -1.199  55.367  1.00  0.00     0.003 A 
HETATM    5  C5  UNL     1      24.874  -0.744  55.046  1.00  0.00     0.015 A 
HETATM    6  C6  UNL     1      25.735  -0.105  54.249  1.00  0.00    -0.011 A 
HETATM    7 BR1  UNL     1      27.589   0.054  54.583  1.00  0.00    -0.056 Br
HETATM    8  C7  UNL     1      25.269   0.556  52.983  1.00  0.00     0.017 A 
HETATM    9  C8  UNL     1      24.456   0.983  51.997  1.00  0.00     0.039 A 
HETATM   10  C9  UNL     1      22.956   0.753  51.898  1.00  0.00    -0.009 A 
HETATM   11  C16 UNL     1      21.776   0.233  52.394  1.00  0.00     0.100 A 
ENDROOT
BRANCH   1  12
HETATM   12  N2  UNL     1      19.355  -0.512  52.881  1.00  0.00    -0.253 N 
HETATM   13  H3  UNL     1      19.311   0.120  52.053  1.00  0.00     0.191 HD
BRANCH  12  14
HETATM   14  C1  UNL     1      18.097  -1.120  53.109  1.00  0.00     0.185 C 
HETATM   15  S1  UNL     1      16.671  -0.743  52.390  1.00  0.00    -0.040 SA
BRANCH  14  16
HETATM   16  N1  UNL     1      17.669  -2.177  53.962  1.00  0.00    -0.375 N 
HETATM   17  H1  UNL     1      16.814  -2.768  53.747  1.00  0.00     0.158 HD
HETATM   18  H2  UNL     1      17.844  -2.714  54.836  1.00  0.00     0.158 HD
ENDBRANCH  14  16
ENDBRANCH  12  14
ENDBRANCH   1  12
BRANCH  10  19
HETATM   19  C10 UNL     1      22.553   1.407  50.642  1.00  0.00    -0.052 A 
HETATM   20  C11 UNL     1      23.213   2.514  50.128  1.00  0.00     0.010 A 
HETATM   21  C12 UNL     1      22.886   3.182  48.944  1.00  0.00     0.043 A 
HETATM   22  C13 UNL     1      21.823   2.721  48.211  1.00  0.00     0.116 A 
HETATM   23  F1  UNL     1      21.465   3.329  47.061  1.00  0.00    -0.206 F 
HETATM   24  C14 UNL     1      21.098   1.634  48.626  1.00  0.00     0.043 A 
HETATM   25  C15 UNL     1      21.511   1.057  49.802  1.00  0.00     0.010 A 
ENDBRANCH  10  19
TORSDOF 4
ENDMDL
MODEL 8
REMARK VINA RESULT:      -7.8      5.008      7.220
REMARK  4 active torsions:
REMARK  status: ('A' for Active; 'I' for Inactive)
REMARK    1  A    between atoms: N1_1  and  C1_2 
REMARK    2  A    between atoms: C1_2  and  N2_4 
REMARK    3  A    between atoms: N2_4  and  N3_5 
REMARK    4  A    between atoms: C9_14  and  C10_15 
ROOT
HETATM    1  N3  UNL     1      23.495   3.423  50.555  1.00  0.00    -0.177 NA
HETATM    2  C2  UNL     1      24.215   2.576  51.190  1.00  0.00     0.060 A 
HETATM    3  C3  UNL     1      25.658   2.977  50.982  1.00  0.00     0.029 A 
HETATM    4  C4  UNL     1      26.816   2.489  51.381  1.00  0.00     0.003 A 
HETATM    5  C5  UNL     1      27.374   1.379  52.189  1.00  0.00     0.015 A 
HETATM    6  C6  UNL     1      27.212   0.290  52.945  1.00  0.00    -0.011 A 
HETATM    7 BR1  UNL     1      28.626  -0.703  53.711  1.00  0.00    -0.056 Br
HETATM    8  C7  UNL     1      25.840  -0.240  53.249  1.00  0.00     0.017 A 
HETATM    9  C8  UNL     1      24.497  -0.357  53.265  1.00  0.00     0.039 A 
HETATM   10  C9  UNL     1      23.500   0.559  52.573  1.00  0.00    -0.009 A 
HETATM   11  C16 UNL     1      23.209   1.657  51.787  1.00  0.00     0.100 A 
ENDROOT
BRANCH   1  12
HETATM   12  N2  UNL     1      22.154   3.553  50.393  1.00  0.00    -0.253 N 
HETATM   13  H3  UNL     1      21.448   2.870  50.046  1.00  0.00     0.191 HD
BRANCH  12  14
HETATM   14  C1  UNL     1      21.534   4.782  50.727  1.00  0.00     0.185 C 
HETATM   15  S1  UNL     1      20.126   5.374  50.128  1.00  0.00    -0.040 SA
BRANCH  14  16
HETATM   16  N1  UNL     1      21.884   5.835  51.619  1.00  0.00    -0.375 N 
HETATM   17  H1  UNL     1      22.645   5.728  52.351  1.00  0.00     0.158 HD
HETATM   18  H2  UNL     1      21.701   6.813  51.926  1.00  0.00     0.158 HD
ENDBRANCH  14  16
ENDBRANCH  12  14
ENDBRANCH   1  12
BRANCH  10  19
HETATM   19  C10 UNL     1      22.178   0.005  52.910  1.00  0.00    -0.052 A 
HETATM   20  C11 UNL     1      21.011   0.423  52.287  1.00  0.00     0.010 A 
HETATM   21  C12 UNL     1      19.726  -0.058  52.556  1.00  0.00     0.043 A 
HETATM   22  C13 UNL     1      19.583  -1.028  53.515  1.00  0.00     0.116 A 
HETATM   23  F1  UNL     1      18.366  -1.526  53.814  1.00  0.00    -0.206 F 
HETATM   24  C14 UNL     1      20.670  -1.514  54.194  1.00  0.00     0.043 A 
HETATM   25  C15 UNL     1      21.882  -0.969  53.847  1.00  0.00     0.010 A 
ENDBRANCH  10  19
TORSDOF 4
ENDMDL
MODEL 9
REMARK VINA RESULT:      -7.6      1.827      2.506
REMARK  4 active torsions:
REMARK  status: ('A' for Active; 'I' for Inactive)
REMARK    1  A    between atoms: N1_1  and  C1_2 
REMARK    2  A    between atoms: C1_2  and  N2_4 
REMARK    3  A    between atoms: N2_4  and  N3_5 
REMARK    4  A    between atoms: C9_14  and  C10_15 
ROOT
HETATM    1  N3  UNL     1      24.552   0.324  53.366  1.00  0.00    -0.177 NA
HETATM    2  C2  UNL     1      23.556   0.655  52.633  1.00  0.00     0.060 A 
HETATM    3  C3  UNL     1      22.371  -0.162  53.099  1.00  0.00     0.029 A 
HETATM    4  C4  UNL     1      21.110  -0.251  52.727  1.00  0.00     0.003 A 
HETATM    5  C5  UNL     1      20.164   0.321  51.740  1.00  0.00     0.015 A 
HETATM    6  C6  UNL     1      19.894   1.146  50.725  1.00  0.00    -0.011 A 
HETATM    7 BR1  UNL     1      18.201   1.316  49.903  1.00  0.00    -0.056 Br
HETATM    8  C7  UNL     1      20.962   2.029  50.144  1.00  0.00     0.017 A 
HETATM    9  C8  UNL     1      22.161   2.611  49.947  1.00  0.00     0.039 A 
HETATM   10  C9  UNL     1      23.439   2.339  50.725  1.00  0.00    -0.009 A 
HETATM   11  C16 UNL     1      24.133   1.676  51.718  1.00  0.00     0.100 A 
ENDROOT
BRANCH   1  12
HETATM   12  N2  UNL     1      25.846   0.727  53.396  1.00  0.00    -0.253 N 
HETATM   13  H3  UNL     1      26.364   1.381  52.771  1.00  0.00     0.191 HD
BRANCH  12  14
HETATM   14  C1  UNL     1      26.702   0.229  54.409  1.00  0.00     0.185 C 
HETATM   15  S1  UNL     1      28.336   0.352  54.473  1.00  0.00    -0.040 SA
BRANCH  14  16
HETATM   16  N1  UNL     1      26.462  -0.484  55.618  1.00  0.00    -0.375 N 
HETATM   17  H1  UNL     1      25.928  -0.058  56.431  1.00  0.00     0.158 HD
HETATM   18  H2  UNL     1      26.595  -1.372  56.146  1.00  0.00     0.158 HD
ENDBRANCH  14  16
ENDBRANCH  12  14
ENDBRANCH   1  12
BRANCH  10  19
HETATM   19  C10 UNL     1      24.446   3.232  50.128  1.00  0.00    -0.052 A 
HETATM   20  C11 UNL     1      25.801   2.934  50.119  1.00  0.00     0.010 A 
HETATM   21  C12 UNL     1      26.808   3.734  49.571  1.00  0.00     0.043 A 
HETATM   22  C13 UNL     1      26.449   4.921  48.985  1.00  0.00     0.116 A 
HETATM   23  F1  UNL     1      27.381   5.729  48.442  1.00  0.00    -0.206 F 
HETATM   24  C14 UNL     1      25.137   5.315  48.939  1.00  0.00     0.043 A 
HETATM   25  C15 UNL     1      24.234   4.451  49.508  1.00  0.00     0.010 A 
ENDBRANCH  10  19
TORSDOF 4
ENDMDL
