MODEL 1
REMARK VINA RESULT:      -7.9      0.000      0.000
REMARK  2 active torsions:
REMARK  status: ('A' for Active; 'I' for Inactive)
REMARK    1  A    between atoms: C3_5  and  N2_6 
REMARK    2  A    between atoms: C16_22  and  O2_23 
ROOT
HETATM    1  O1  UNL     1      22.317  -1.309  53.728  1.00  0.00    -0.266 OA
HETATM    2  C1  UNL     1      23.232  -0.495  53.512  1.00  0.00     0.268 C 
HETATM    3  N1  UNL     1      24.541  -0.437  54.181  1.00  0.00    -0.353 N 
HETATM    4  C2  UNL     1      25.576   0.461  54.473  1.00  0.00     0.163 C 
HETATM    5  C3  UNL     1      26.318   1.273  53.488  1.00  0.00     0.273 C 
HETATM    6  C8  UNL     1      25.449   2.105  52.658  1.00  0.00     0.004 C 
HETATM    7  C9  UNL     1      26.088   2.201  51.525  1.00  0.00     0.002 C 
HETATM    8  C10 UNL     1      26.001   3.262  50.485  1.00  0.00     0.148 C 
HETATM    9  N3  UNL     1      24.699   3.493  49.945  1.00  0.00    -0.376 N 
HETATM   10  C11 UNL     1      23.316   3.008  49.937  1.00  0.00     0.122 C 
HETATM   11 CL1  UNL     1      22.111   3.414  48.798  1.00  0.00    -0.063 Cl
HETATM   12  C12 UNL     1      22.778   2.107  50.808  1.00  0.00     0.057 C 
HETATM   13  C13 UNL     1      21.698   1.152  50.493  1.00  0.00     0.090 C 
HETATM   14  C14 UNL     1      22.039  -0.002  51.408  1.00  0.00     0.015 C 
HETATM   15  C15 UNL     1      22.757   0.436  52.423  1.00  0.00     0.102 C 
HETATM   16  N4  UNL     1      23.252   1.791  52.161  1.00  0.00    -0.309 N 
HETATM   17  C16 UNL     1      24.100   2.673  53.071  1.00  0.00     0.304 C 
HETATM   18  H1  UNL     1      24.636  -1.452  54.525  1.00  0.00     0.162 HD
HETATM   19  H16 UNL     1      24.660   4.312  49.287  1.00  0.00     0.160 HD
ENDROOT
BRANCH   5  20
HETATM   20  N2  UNL     1      27.440   0.675  52.824  1.00  0.00     0.099 NA
HETATM   21  C4  UNL     1      27.913  -0.533  53.460  1.00  0.00     0.273 C 
HETATM   22  C5  UNL     1      28.782  -0.192  54.615  1.00  0.00     0.032 C 
HETATM   23  C6  UNL     1      29.122   1.249  54.418  1.00  0.00     0.032 C 
HETATM   24  C7  UNL     1      28.669   1.496  53.010  1.00  0.00     0.273 C 
ENDBRANCH   5  20
BRANCH  17  25
HETATM   25  O2  UNL     1      23.927   3.976  52.742  1.00  0.00    -0.168 OA
HETATM   26  F1  UNL     1      23.929   4.802  53.782  1.00  0.00    -0.045 F 
ENDBRANCH  17  25
TORSDOF 2
ENDMDL
MODEL 2
REMARK VINA RESULT:      -7.6      2.470      4.088
REMARK  2 active torsions:
REMARK  status: ('A' for Active; 'I' for Inactive)
REMARK    1  A    between atoms: C3_5  and  N2_6 
REMARK    2  A    between atoms: C16_22  and  O2_23 
ROOT
HETATM    1  O1  UNL     1      19.988   2.516  49.572  1.00  0.00    -0.266 OA
HETATM    2  C1  UNL     1      20.864   2.273  50.421  1.00  0.00     0.268 C 
HETATM    3  N1  UNL     1      20.734   1.404  51.601  1.00  0.00    -0.353 N 
HETATM    4  C2  UNL     1      21.290   1.201  52.870  1.00  0.00     0.163 C 
HETATM    5  C3  UNL     1      22.720   0.966  53.159  1.00  0.00     0.273 C 
HETATM    6  C8  UNL     1      23.592   2.014  52.633  1.00  0.00     0.004 C 
HETATM    7  C9  UNL     1      24.710   1.396  52.372  1.00  0.00     0.002 C 
HETATM    8  C10 UNL     1      26.091   1.946  52.295  1.00  0.00     0.148 C 
HETATM    9  N3  UNL     1      26.282   3.008  51.359  1.00  0.00    -0.376 N 
HETATM   10  C11 UNL     1      25.635   3.778  50.293  1.00  0.00     0.122 C 
HETATM   11 CL1  UNL     1      26.420   4.776  49.150  1.00  0.00    -0.063 Cl
HETATM   12  C12 UNL     1      24.303   3.783  50.002  1.00  0.00     0.057 C 
HETATM   13  C13 UNL     1      23.720   3.982  48.661  1.00  0.00     0.090 C 
HETATM   14  C14 UNL     1      22.456   3.158  48.756  1.00  0.00     0.015 C 
HETATM   15  C15 UNL     1      22.103   3.035  50.020  1.00  0.00     0.102 C 
HETATM   16  N4  UNL     1      23.198   3.441  50.906  1.00  0.00    -0.309 N 
HETATM   17  C16 UNL     1      23.210   3.473  52.431  1.00  0.00     0.304 C 
HETATM   18  H1  UNL     1      19.926   0.764  51.291  1.00  0.00     0.162 HD
HETATM   19  H16 UNL     1      27.242   3.434  51.401  1.00  0.00     0.160 HD
ENDROOT
BRANCH   5  20
HETATM   20  N2  UNL     1      23.219  -0.375  53.065  1.00  0.00     0.099 NA
HETATM   21  C4  UNL     1      22.180  -1.380  53.058  1.00  0.00     0.273 C 
HETATM   22  C5  UNL     1      21.725  -1.650  54.445  1.00  0.00     0.032 C 
HETATM   23  C6  UNL     1      22.785  -1.056  55.312  1.00  0.00     0.032 C 
HETATM   24  C7  UNL     1      23.887  -0.785  54.331  1.00  0.00     0.273 C 
ENDBRANCH   5  20
BRANCH  17  25
HETATM   25  O2  UNL     1      24.144   4.352  52.867  1.00  0.00    -0.168 OA
HETATM   26  F1  UNL     1      23.783   5.035  53.947  1.00  0.00    -0.045 F 
ENDBRANCH  17  25
TORSDOF 2
ENDMDL
MODEL 3
REMARK VINA RESULT:      -7.6      2.577      4.315
REMARK  2 active torsions:
REMARK  status: ('A' for Active; 'I' for Inactive)
REMARK    1  A    between atoms: C3_5  and  N2_6 
REMARK    2  A    between atoms: C16_22  and  O2_23 
ROOT
HETATM    1  O1  UNL     1      25.056   5.725  50.353  1.00  0.00    -0.266 OA
HETATM    2  C1  UNL     1      24.799   4.582  50.769  1.00  0.00     0.268 C 
HETATM    3  N1  UNL     1      25.768   3.534  51.130  1.00  0.00    -0.353 N 
HETATM    4  C2  UNL     1      25.873   2.142  51.250  1.00  0.00     0.163 C 
HETATM    5  C3  UNL     1      25.003   1.279  52.075  1.00  0.00     0.273 C 
HETATM    6  C8  UNL     1      23.583   1.431  51.765  1.00  0.00     0.004 C 
HETATM    7  C9  UNL     1      22.983   1.183  52.896  1.00  0.00     0.002 C 
HETATM    8  C10 UNL     1      21.596   0.698  53.137  1.00  0.00     0.148 C 
HETATM    9  N3  UNL     1      20.555   1.505  52.585  1.00  0.00    -0.376 N 
HETATM   10  C11 UNL     1      20.273   2.768  51.896  1.00  0.00     0.122 C 
HETATM   11 CL1  UNL     1      18.744   3.513  51.742  1.00  0.00    -0.063 Cl
HETATM   12  C12 UNL     1      21.194   3.585  51.310  1.00  0.00     0.057 C 
HETATM   13  C13 UNL     1      21.089   5.053  51.199  1.00  0.00     0.090 C 
HETATM   14  C14 UNL     1      22.543   5.464  51.239  1.00  0.00     0.015 C 
HETATM   15  C15 UNL     1      23.298   4.457  50.846  1.00  0.00     0.102 C 
HETATM   16  N4  UNL     1      22.527   3.210  50.822  1.00  0.00    -0.309 N 
HETATM   17  C16 UNL     1      23.003   1.820  50.414  1.00  0.00     0.304 C 
HETATM   18  H1  UNL     1      26.638   4.130  51.344  1.00  0.00     0.162 HD
HETATM   19  H16 UNL     1      19.599   1.082  52.691  1.00  0.00     0.160 HD
ENDROOT
BRANCH   5  20
HETATM   20  N2  UNL     1      25.332   1.114  53.461  1.00  0.00     0.099 NA
HETATM   21  C4  UNL     1      26.688   1.495  53.784  1.00  0.00     0.273 C 
HETATM   22  C5  UNL     1      27.621   0.394  53.435  1.00  0.00     0.032 C 
HETATM   23  C6  UNL     1      26.744  -0.800  53.249  1.00  0.00     0.032 C 
HETATM   24  C7  UNL     1      25.437  -0.329  53.815  1.00  0.00     0.273 C 
ENDBRANCH   5  20
BRANCH  17  25
HETATM   25  O2  UNL     1      21.945   1.065  50.030  1.00  0.00    -0.168 OA
HETATM   26  F1  UNL     1      21.794   0.974  48.714  1.00  0.00    -0.045 F 
ENDBRANCH  17  25
TORSDOF 2
ENDMDL
MODEL 4
REMARK VINA RESULT:      -7.0      2.736      6.172
REMARK  2 active torsions:
REMARK  status: ('A' for Active; 'I' for Inactive)
REMARK    1  A    between atoms: C3_5  and  N2_6 
REMARK    2  A    between atoms: C16_22  and  O2_23 
ROOT
HETATM    1  O1  UNL     1      26.933   2.710  50.965  1.00  0.00    -0.266 OA
HETATM    2  C1  UNL     1      25.706   2.626  50.784  1.00  0.00     0.268 C 
HETATM    3  N1  UNL     1      24.928   3.247  49.699  1.00  0.00    -0.353 N 
HETATM    4  C2  UNL     1      23.629   3.674  49.398  1.00  0.00     0.163 C 
HETATM    5  C3  UNL     1      22.409   2.843  49.466  1.00  0.00     0.273 C 
HETATM    6  C8  UNL     1      22.207   2.226  50.775  1.00  0.00     0.004 C 
HETATM    7  C9  UNL     1      21.582   1.113  50.509  1.00  0.00     0.002 C 
HETATM    8  C10 UNL     1      20.685   0.308  51.382  1.00  0.00     0.148 C 
HETATM    9  N3  UNL     1      21.254  -0.129  52.617  1.00  0.00    -0.376 N 
HETATM   10  C11 UNL     1      22.493  -0.183  53.397  1.00  0.00     0.122 C 
HETATM   11 CL1  UNL     1      22.788  -1.176  54.756  1.00  0.00    -0.063 Cl
HETATM   12  C12 UNL     1      23.637   0.510  53.134  1.00  0.00     0.057 C 
HETATM   13  C13 UNL     1      25.006   0.051  53.439  1.00  0.00     0.090 C 
HETATM   14  C14 UNL     1      25.798   0.707  52.331  1.00  0.00     0.015 C 
HETATM   15  C15 UNL     1      25.146   1.762  51.886  1.00  0.00     0.102 C 
HETATM   16  N4  UNL     1      23.762   1.756  52.368  1.00  0.00    -0.309 N 
HETATM   17  C16 UNL     1      22.673   2.792  52.108  1.00  0.00     0.304 C 
HETATM   18  H1  UNL     1      25.693   3.379  48.953  1.00  0.00     0.162 HD
HETATM   19  H16 UNL     1      20.563  -0.610  53.247  1.00  0.00     0.160 HD
ENDROOT
BRANCH   5  20
HETATM   20  N2  UNL     1      22.076   2.035  48.330  1.00  0.00     0.099 NA
HETATM   21  C4  UNL     1      22.679   2.490  47.098  1.00  0.00     0.273 C 
HETATM   22  C5  UNL     1      21.889   3.610  46.529  1.00  0.00     0.032 C 
HETATM   23  C6  UNL     1      20.585   3.559  47.255  1.00  0.00     0.032 C 
HETATM   24  C7  UNL     1      20.651   2.226  47.939  1.00  0.00     0.273 C 
ENDBRANCH   5  20
BRANCH  17  25
HETATM   25  O2  UNL     1      21.738   2.734  53.088  1.00  0.00    -0.168 OA
HETATM   26  F1  UNL     1      20.613   3.380  52.802  1.00  0.00    -0.045 F 
ENDBRANCH  17  25
TORSDOF 2
ENDMDL
MODEL 5
REMARK VINA RESULT:      -6.9      3.253      5.379
REMARK  2 active torsions:
REMARK  status: ('A' for Active; 'I' for Inactive)
REMARK    1  A    between atoms: C3_5  and  N2_6 
REMARK    2  A    between atoms: C16_22  and  O2_23 
ROOT
HETATM    1  O1  UNL     1      27.483   6.124  48.312  1.00  0.00    -0.266 OA
HETATM    2  C1  UNL     1      26.713   5.408  48.976  1.00  0.00     0.268 C 
HETATM    3  N1  UNL     1      26.984   4.055  49.487  1.00  0.00    -0.353 N 
HETATM    4  C2  UNL     1      26.319   2.890  49.891  1.00  0.00     0.163 C 
HETATM    5  C3  UNL     1      25.275   2.810  50.933  1.00  0.00     0.273 C 
HETATM    6  C8  UNL     1      24.148   3.708  50.688  1.00  0.00     0.004 C 
HETATM    7  C9  UNL     1      23.717   4.010  51.881  1.00  0.00     0.002 C 
HETATM    8  C10 UNL     1      22.360   4.452  52.305  1.00  0.00     0.148 C 
HETATM    9  N3  UNL     1      21.864   5.627  51.662  1.00  0.00    -0.376 N 
HETATM   10  C11 UNL     1      22.215   6.712  50.741  1.00  0.00     0.122 C 
HETATM   11 CL1  UNL     1      21.356   8.173  50.529  1.00  0.00    -0.063 Cl
HETATM   12  C12 UNL     1      23.317   6.758  49.940  1.00  0.00     0.057 C 
HETATM   13  C13 UNL     1      24.025   7.986  49.528  1.00  0.00     0.090 C 
HETATM   14  C14 UNL     1      25.444   7.484  49.389  1.00  0.00     0.015 C 
HETATM   15  C15 UNL     1      25.434   6.184  49.171  1.00  0.00     0.102 C 
HETATM   16  N4  UNL     1      24.111   5.621  49.459  1.00  0.00    -0.309 N 
HETATM   17  C16 UNL     1      23.659   4.171  49.324  1.00  0.00     0.304 C 
HETATM   18  H1  UNL     1      28.060   4.063  49.516  1.00  0.00     0.162 HD
HETATM   19  H16 UNL     1      20.869   5.852  51.915  1.00  0.00     0.160 HD
ENDROOT
BRANCH   5  20
HETATM   20  N2  UNL     1      25.690   2.677  52.299  1.00  0.00     0.099 NA
HETATM   21  C4  UNL     1      27.011   2.112  52.451  1.00  0.00     0.273 C 
HETATM   22  C5  UNL     1      26.948   0.634  52.331  1.00  0.00     0.032 C 
HETATM   23  C6  UNL     1      25.499   0.305  52.483  1.00  0.00     0.032 C 
HETATM   24  C7  UNL     1      24.927   1.597  52.985  1.00  0.00     0.273 C 
ENDBRANCH   5  20
BRANCH  17  25
HETATM   25  O2  UNL     1      22.312   4.120  49.176  1.00  0.00    -0.168 OA
HETATM   26  F1  UNL     1      21.792   2.912  49.364  1.00  0.00    -0.045 F 
ENDBRANCH  17  25
TORSDOF 2
ENDMDL
MODEL 6
REMARK VINA RESULT:      -6.7      4.091      7.275
REMARK  2 active torsions:
REMARK  status: ('A' for Active; 'I' for Inactive)
REMARK    1  A    between atoms: C3_5  and  N2_6 
REMARK    2  A    between atoms: C16_22  and  O2_23 
ROOT
HETATM    1  O1  UNL     1      18.465  -1.862  53.707  1.00  0.00    -0.266 OA
HETATM    2  C1  UNL     1      18.690  -0.837  53.039  1.00  0.00     0.268 C 
HETATM    3  N1  UNL     1      17.706  -0.033  52.297  1.00  0.00    -0.353 N 
HETATM    4  C2  UNL     1      17.619   0.861  51.221  1.00  0.00     0.163 C 
HETATM    5  C3  UNL     1      18.389   2.113  51.075  1.00  0.00     0.273 C 
HETATM    6  C8  UNL     1      19.834   1.913  51.160  1.00  0.00     0.004 C 
HETATM    7  C9  UNL     1      20.280   3.030  51.664  1.00  0.00     0.002 C 
HETATM    8  C10 UNL     1      21.632   3.641  51.543  1.00  0.00     0.148 C 
HETATM    9  N3  UNL     1      22.720   2.827  51.987  1.00  0.00    -0.376 N 
HETATM   10  C11 UNL     1      23.063   1.566  52.649  1.00  0.00     0.122 C 
HETATM   11 CL1  UNL     1      24.580   1.158  53.319  1.00  0.00    -0.063 Cl
HETATM   12  C12 UNL     1      22.210   0.529  52.890  1.00  0.00     0.057 C 
HETATM   13  C13 UNL     1      22.295  -0.402  54.032  1.00  0.00     0.090 C 
HETATM   14  C14 UNL     1      20.840  -0.749  54.247  1.00  0.00     0.015 C 
HETATM   15  C15 UNL     1      20.169  -0.557  53.129  1.00  0.00     0.102 C 
HETATM   16  N4  UNL     1      20.966   0.221  52.175  1.00  0.00    -0.309 N 
HETATM   17  C16 UNL     1      20.583   0.651  50.762  1.00  0.00     0.304 C 
HETATM   18  H1  UNL     1      16.801  -0.289  52.819  1.00  0.00     0.162 HD
HETATM   19  H16 UNL     1      23.662   3.252  51.797  1.00  0.00     0.160 HD
ENDROOT
BRANCH   5  20
HETATM   20  N2  UNL     1      17.878   3.299  51.701  1.00  0.00     0.099 NA
HETATM   21  C4  UNL     1      16.456   3.255  51.950  1.00  0.00     0.273 C 
HETATM   22  C5  UNL     1      15.713   3.594  50.710  1.00  0.00     0.032 C 
HETATM   23  C6  UNL     1      16.735   4.212  49.815  1.00  0.00     0.032 C 
HETATM   24  C7  UNL     1      17.883   4.446  50.752  1.00  0.00     0.273 C 
ENDBRANCH   5  20
BRANCH  17  25
HETATM   25  O2  UNL     1      21.701   0.881  50.031  1.00  0.00    -0.168 OA
HETATM   26  F1  UNL     1      21.558   0.639  48.733  1.00  0.00    -0.045 F 
ENDBRANCH  17  25
TORSDOF 2
ENDMDL
MODEL 7
REMARK VINA RESULT:      -6.7     10.089     12.641
REMARK  2 active torsions:
REMARK  status: ('A' for Active; 'I' for Inactive)
REMARK    1  A    between atoms: C3_5  and  N2_6 
REMARK    2  A    between atoms: C16_22  and  O2_23 
ROOT
HETATM    1  O1  UNL     1      34.098   8.057  43.409  1.00  0.00    -0.266 OA
HETATM    2  C1  UNL     1      33.718   8.142  44.590  1.00  0.00     0.268 C 
HETATM    3  N1  UNL     1      33.193   9.339  45.266  1.00  0.00    -0.353 N 
HETATM    4  C2  UNL     1      33.044   9.890  46.545  1.00  0.00     0.163 C 
HETATM    5  C3  UNL     1      32.365   9.247  47.689  1.00  0.00     0.273 C 
HETATM    6  C8  UNL     1      32.907   7.928  48.010  1.00  0.00     0.004 C 
HETATM    7  C9  UNL     1      31.888   7.277  48.498  1.00  0.00     0.002 C 
HETATM    8  C10 UNL     1      31.874   6.118  49.433  1.00  0.00     0.148 C 
HETATM    9  N3  UNL     1      32.598   4.965  48.998  1.00  0.00    -0.376 N 
HETATM   10  C11 UNL     1      33.336   4.384  47.873  1.00  0.00     0.122 C 
HETATM   11 CL1  UNL     1      33.748   2.738  47.680  1.00  0.00    -0.063 Cl
HETATM   12  C12 UNL     1      33.770   5.053  46.767  1.00  0.00     0.057 C 
HETATM   13  C13 UNL     1      33.911   4.474  45.417  1.00  0.00     0.090 C 
HETATM   14  C14 UNL     1      33.636   5.676  44.543  1.00  0.00     0.015 C 
HETATM   15  C15 UNL     1      33.889   6.780  45.216  1.00  0.00     0.102 C 
HETATM   16  N4  UNL     1      34.028   6.493  46.647  1.00  0.00    -0.309 N 
HETATM   17  C16 UNL     1      34.338   7.472  47.776  1.00  0.00     0.304 C 
HETATM   18  H1  UNL     1      32.844   9.910  44.423  1.00  0.00     0.162 HD
HETATM   19  H16 UNL     1      32.647   4.206  49.723  1.00  0.00     0.160 HD
ENDROOT
BRANCH   5  20
HETATM   20  N2  UNL     1      30.942   9.388  47.799  1.00  0.00     0.099 NA
HETATM   21  C4  UNL     1      30.395  10.418  46.945  1.00  0.00     0.273 C 
HETATM   22  C5  UNL     1      30.572  11.749  47.577  1.00  0.00     0.032 C 
HETATM   23  C6  UNL     1      30.898  11.449  49.003  1.00  0.00     0.032 C 
HETATM   24  C7  UNL     1      30.566   9.990  49.108  1.00  0.00     0.273 C 
ENDBRANCH   5  20
BRANCH  17  25
HETATM   25  O2  UNL     1      34.884   6.809  48.824  1.00  0.00    -0.168 OA
HETATM   26  F1  UNL     1      36.212   6.793  48.823  1.00  0.00    -0.045 F 
ENDBRANCH  17  25
TORSDOF 2
ENDMDL
MODEL 8
REMARK VINA RESULT:      -6.6      9.674     11.946
REMARK  2 active torsions:
REMARK  status: ('A' for Active; 'I' for Inactive)
REMARK    1  A    between atoms: C3_5  and  N2_6 
REMARK    2  A    between atoms: C16_22  and  O2_23 
ROOT
HETATM    1  O1  UNL     1      34.902   9.374  44.445  1.00  0.00    -0.266 OA
HETATM    2  C1  UNL     1      34.204   8.581  45.102  1.00  0.00     0.268 C 
HETATM    3  N1  UNL     1      34.226   7.111  45.024  1.00  0.00    -0.353 N 
HETATM    4  C2  UNL     1      33.417   5.995  45.276  1.00  0.00     0.163 C 
HETATM    5  C3  UNL     1      32.767   5.673  46.563  1.00  0.00     0.273 C 
HETATM    6  C8  UNL     1      31.921   6.755  47.064  1.00  0.00     0.004 C 
HETATM    7  C9  UNL     1      31.981   6.629  48.361  1.00  0.00     0.002 C 
HETATM    8  C10 UNL     1      31.004   7.070  49.394  1.00  0.00     0.148 C 
HETATM    9  N3  UNL     1      30.686   8.463  49.390  1.00  0.00    -0.376 N 
HETATM   10  C11 UNL     1      31.028   9.754  48.787  1.00  0.00     0.122 C 
HETATM   11 CL1  UNL     1      30.595  11.294  49.387  1.00  0.00    -0.063 Cl
HETATM   12  C12 UNL     1      31.796   9.943  47.677  1.00  0.00     0.057 C 
HETATM   13  C13 UNL     1      32.659  11.113  47.421  1.00  0.00     0.090 C 
HETATM   14  C14 UNL     1      33.764  10.497  46.593  1.00  0.00     0.015 C 
HETATM   15  C15 UNL     1      33.321   9.402  46.008  1.00  0.00     0.102 C 
HETATM   16  N4  UNL     1      32.049   8.977  46.600  1.00  0.00    -0.309 N 
HETATM   17  C16 UNL     1      31.187   7.780  46.214  1.00  0.00     0.304 C 
HETATM   18  H1  UNL     1      35.215   6.945  44.633  1.00  0.00     0.162 HD
HETATM   19  H16 UNL     1      29.924   8.718  50.066  1.00  0.00     0.160 HD
ENDROOT
BRANCH   5  20
HETATM   20  N2  UNL     1      33.527   4.959  47.546  1.00  0.00     0.099 NA
HETATM   21  C4  UNL     1      34.740   4.371  47.026  1.00  0.00     0.273 C 
HETATM   22  C5  UNL     1      34.431   3.091  46.340  1.00  0.00     0.032 C 
HETATM   23  C6  UNL     1      33.053   2.742  46.796  1.00  0.00     0.032 C 
HETATM   24  C7  UNL     1      32.840   3.696  47.935  1.00  0.00     0.273 C 
ENDBRANCH   5  20
BRANCH  17  25
HETATM   25  O2  UNL     1      29.904   7.994  46.594  1.00  0.00    -0.168 OA
HETATM   26  F1  UNL     1      29.165   6.891  46.650  1.00  0.00    -0.045 F 
ENDBRANCH  17  25
TORSDOF 2
ENDMDL
MODEL 9
REMARK VINA RESULT:      -6.6      8.228     10.718
REMARK  2 active torsions:
REMARK  status: ('A' for Active; 'I' for Inactive)
REMARK    1  A    between atoms: C3_5  and  N2_6 
REMARK    2  A    between atoms: C16_22  and  O2_23 
ROOT
HETATM    1  O1  UNL     1      33.069  10.819  47.429  1.00  0.00    -0.266 OA
HETATM    2  C1  UNL     1      32.559   9.693  47.296  1.00  0.00     0.268 C 
HETATM    3  N1  UNL     1      33.191   8.500  46.709  1.00  0.00    -0.353 N 
HETATM    4  C2  UNL     1      32.863   7.289  46.086  1.00  0.00     0.163 C 
HETATM    5  C3  UNL     1      31.976   6.246  46.640  1.00  0.00     0.273 C 
HETATM    6  C8  UNL     1      30.650   6.749  46.995  1.00  0.00     0.004 C 
HETATM    7  C9  UNL     1      30.280   5.992  47.991  1.00  0.00     0.002 C 
HETATM    8  C10 UNL     1      28.906   5.662  48.459  1.00  0.00     0.148 C 
HETATM    9  N3  UNL     1      28.085   6.779  48.804  1.00  0.00    -0.376 N 
HETATM   10  C11 UNL     1      28.078   8.234  48.980  1.00  0.00     0.122 C 
HETATM   11 CL1  UNL     1      26.882   9.146  49.790  1.00  0.00    -0.063 Cl
HETATM   12  C12 UNL     1      29.053   9.096  48.574  1.00  0.00     0.057 C 
HETATM   13  C13 UNL     1      29.407  10.364  49.242  1.00  0.00     0.090 C 
HETATM   14  C14 UNL     1      30.884  10.465  48.934  1.00  0.00     0.015 C 
HETATM   15  C15 UNL     1      31.159   9.764  47.853  1.00  0.00     0.102 C 
HETATM   16  N4  UNL     1      30.042   8.879  47.511  1.00  0.00    -0.309 N 
HETATM   17  C16 UNL     1      29.933   7.916  46.334  1.00  0.00     0.304 C 
HETATM   18  H1  UNL     1      34.232   8.736  46.846  1.00  0.00     0.162 HD
HETATM   19  H16 UNL     1      27.096   6.513  49.036  1.00  0.00     0.160 HD
ENDROOT
BRANCH   5  20
HETATM   20  N2  UNL     1      32.543   5.277  47.531  1.00  0.00     0.099 NA
HETATM   21  C4  UNL     1      33.980   5.169  47.430  1.00  0.00     0.273 C 
HETATM   22  C5  UNL     1      34.345   4.312  46.274  1.00  0.00     0.032 C 
HETATM   23  C6  UNL     1      33.080   3.603  45.917  1.00  0.00     0.032 C 
HETATM   24  C7  UNL     1      32.204   3.893  47.100  1.00  0.00     0.273 C 
ENDBRANCH   5  20
BRANCH  17  25
HETATM   25  O2  UNL     1      28.629   7.674  46.055  1.00  0.00    -0.168 OA
HETATM   26  F1  UNL     1      28.011   8.677  45.442  1.00  0.00    -0.045 F 
ENDBRANCH  17  25
TORSDOF 2
ENDMDL
