MODEL 1
REMARK VINA RESULT:      -7.2      0.000      0.000
REMARK  2 active torsions:
REMARK  status: ('A' for Active; 'I' for Inactive)
REMARK    1  A    between atoms: O1_2  and  C2_3 
REMARK    2  A    between atoms: C10_13  and  C11_14 
ROOT
HETATM    1  C2  UNL     1      25.681   2.424  51.150  1.00  0.00     0.080 A 
HETATM    2  C3  UNL     1      26.903   2.194  51.745  1.00  0.00     0.070 A 
HETATM    3  C4  UNL     1      27.023   1.345  52.825  1.00  0.00     0.075 A 
HETATM    4  N1  UNL     1      28.213   1.106  53.425  1.00  0.00    -0.241 NA
HETATM    5  C5  UNL     1      28.273   0.271  54.473  1.00  0.00     0.233 A 
HETATM    6  N2  UNL     1      27.192  -0.369  54.989  1.00  0.00    -0.253 NA
HETATM    7  C6  UNL     1      25.988  -0.157  54.419  1.00  0.00     0.134 A 
HETATM    8  C7  UNL     1      25.928   0.702  53.342  1.00  0.00     0.044 A 
HETATM    9  C8  UNL     1      24.699   0.933  52.742  1.00  0.00     0.092 A 
HETATM   10  C9  UNL     1      24.548   1.780  51.656  1.00  0.00     0.021 A 
HETATM   11  C10 UNL     1      23.326   2.161  50.875  1.00  0.00     0.093 C 
HETATM   12  C13 UNL     1      22.338   1.052  51.004  1.00  0.00     0.019 C 
HETATM   13  C14 UNL     1      21.566   1.009  52.275  1.00  0.00     0.028 C 
HETATM   14  C15 UNL     1      22.288   0.574  53.490  1.00  0.00     0.175 C 
HETATM   15  O3  UNL     1      23.636   0.238  53.330  1.00  0.00    -0.349 OA
ENDROOT
BRANCH  11  16
HETATM   16  C11 UNL     1      22.803   3.482  51.311  1.00  0.00     0.131 C 
HETATM   17  C12 UNL     1      21.956   4.218  50.335  1.00  0.00     0.091 C 
HETATM   18  O2  UNL     1      23.054   3.950  52.422  1.00  0.00    -0.298 OA
ENDBRANCH  11  16
BRANCH   1  19
HETATM   19  O1  UNL     1      25.490   3.265  50.062  1.00  0.00    -0.355 OA
HETATM   20  C1  UNL     1      26.591   3.970  49.468  1.00  0.00     0.210 C 
ENDBRANCH   1  19
TORSDOF 2
ENDMDL
MODEL 2
REMARK VINA RESULT:      -7.2      2.759      5.679
REMARK  2 active torsions:
REMARK  status: ('A' for Active; 'I' for Inactive)
REMARK    1  A    between atoms: O1_2  and  C2_3 
REMARK    2  A    between atoms: C10_13  and  C11_14 
ROOT
HETATM    1  C2  UNL     1      24.180  -0.493  53.993  1.00  0.00     0.080 A 
HETATM    2  C3  UNL     1      22.811  -0.535  54.153  1.00  0.00     0.070 A 
HETATM    3  C4  UNL     1      21.975   0.211  53.350  1.00  0.00     0.075 A 
HETATM    4  N1  UNL     1      20.629   0.185  53.491  1.00  0.00    -0.241 NA
HETATM    5  C5  UNL     1      19.862   0.931  52.683  1.00  0.00     0.233 A 
HETATM    6  N2  UNL     1      20.355   1.733  51.705  1.00  0.00    -0.253 NA
HETATM    7  C6  UNL     1      21.692   1.787  51.533  1.00  0.00     0.134 A 
HETATM    8  C7  UNL     1      22.479   1.020  52.365  1.00  0.00     0.044 A 
HETATM    9  C8  UNL     1      23.856   1.061  52.204  1.00  0.00     0.092 A 
HETATM   10  C9  UNL     1      24.721   0.323  52.995  1.00  0.00     0.021 A 
HETATM   11  C10 UNL     1      26.218   0.229  52.984  1.00  0.00     0.093 C 
HETATM   12  C13 UNL     1      26.686   0.563  51.609  1.00  0.00     0.019 C 
HETATM   13  C14 UNL     1      26.731   2.011  51.267  1.00  0.00     0.028 C 
HETATM   14  C15 UNL     1      25.438   2.693  51.047  1.00  0.00     0.175 C 
HETATM   15  O3  UNL     1      24.287   1.910  51.177  1.00  0.00    -0.349 OA
ENDROOT
BRANCH  11  16
HETATM   16  C11 UNL     1      26.815   1.083  54.043  1.00  0.00     0.131 C 
HETATM   17  C12 UNL     1      28.115   0.632  54.608  1.00  0.00     0.091 C 
HETATM   18  O2  UNL     1      26.267   2.112  54.440  1.00  0.00    -0.298 OA
ENDBRANCH  11  16
BRANCH   1  19
HETATM   19  O1  UNL     1      25.078  -1.217  54.765  1.00  0.00    -0.355 OA
HETATM   20  C1  UNL     1      25.014  -1.186  56.200  1.00  0.00     0.210 C 
ENDBRANCH   1  19
TORSDOF 2
ENDMDL
MODEL 3
REMARK VINA RESULT:      -7.1      1.653      3.709
REMARK  2 active torsions:
REMARK  status: ('A' for Active; 'I' for Inactive)
REMARK    1  A    between atoms: O1_2  and  C2_3 
REMARK    2  A    between atoms: C10_13  and  C11_14 
ROOT
HETATM    1  C2  UNL     1      22.928  -0.060  53.257  1.00  0.00     0.080 A 
HETATM    2  C3  UNL     1      24.056  -0.645  53.793  1.00  0.00     0.070 A 
HETATM    3  C4  UNL     1      25.230   0.065  53.932  1.00  0.00     0.075 A 
HETATM    4  N1  UNL     1      26.349  -0.491  54.455  1.00  0.00    -0.241 NA
HETATM    5  C5  UNL     1      27.464   0.245  54.568  1.00  0.00     0.233 A 
HETATM    6  N2  UNL     1      27.553   1.544  54.184  1.00  0.00    -0.253 NA
HETATM    7  C6  UNL     1      26.460   2.133  53.657  1.00  0.00     0.134 A 
HETATM    8  C7  UNL     1      25.313   1.376  53.542  1.00  0.00     0.044 A 
HETATM    9  C8  UNL     1      24.178   1.963  53.003  1.00  0.00     0.092 A 
HETATM   10  C9  UNL     1      22.985   1.276  52.851  1.00  0.00     0.021 A 
HETATM   11  C10 UNL     1      21.663   1.721  52.299  1.00  0.00     0.093 C 
HETATM   12  C13 UNL     1      21.570   3.199  52.473  1.00  0.00     0.019 C 
HETATM   13  C14 UNL     1      22.312   4.023  51.481  1.00  0.00     0.028 C 
HETATM   14  C15 UNL     1      23.785   4.053  51.594  1.00  0.00     0.175 C 
HETATM   15  O3  UNL     1      24.349   3.302  52.631  1.00  0.00    -0.349 OA
ENDROOT
BRANCH  11  16
HETATM   16  C11 UNL     1      21.494   1.274  50.892  1.00  0.00     0.131 C 
HETATM   17  C12 UNL     1      20.107   0.958  50.456  1.00  0.00     0.091 C 
HETATM   18  O2  UNL     1      22.448   1.166  50.120  1.00  0.00    -0.298 OA
ENDBRANCH  11  16
BRANCH   1  19
HETATM   19  O1  UNL     1      21.716  -0.715  53.088  1.00  0.00    -0.355 OA
HETATM   20  C1  UNL     1      21.123  -1.464  54.161  1.00  0.00     0.210 C 
ENDBRANCH   1  19
TORSDOF 2
ENDMDL
MODEL 4
REMARK VINA RESULT:      -6.7      1.787      2.438
REMARK  2 active torsions:
REMARK  status: ('A' for Active; 'I' for Inactive)
REMARK    1  A    between atoms: O1_2  and  C2_3 
REMARK    2  A    between atoms: C10_13  and  C11_14 
ROOT
HETATM    1  C2  UNL     1      23.191   2.098  51.373  1.00  0.00     0.080 A 
HETATM    2  C3  UNL     1      24.486   1.994  51.835  1.00  0.00     0.070 A 
HETATM    3  C4  UNL     1      24.836   1.042  52.769  1.00  0.00     0.075 A 
HETATM    4  N1  UNL     1      26.101   0.923  53.237  1.00  0.00    -0.241 NA
HETATM    5  C5  UNL     1      26.387  -0.021  54.145  1.00  0.00     0.233 A 
HETATM    6  N2  UNL     1      25.471  -0.891  54.644  1.00  0.00    -0.253 NA
HETATM    7  C6  UNL     1      24.198  -0.804  54.203  1.00  0.00     0.134 A 
HETATM    8  C7  UNL     1      23.906   0.167  53.268  1.00  0.00     0.044 A 
HETATM    9  C8  UNL     1      22.604   0.272  52.802  1.00  0.00     0.092 A 
HETATM   10  C9  UNL     1      22.223   1.218  51.865  1.00  0.00     0.021 A 
HETATM   11  C10 UNL     1      20.887   1.495  51.240  1.00  0.00     0.093 C 
HETATM   12  C13 UNL     1      20.094   0.233  51.282  1.00  0.00     0.019 C 
HETATM   13  C14 UNL     1      19.464  -0.102  52.588  1.00  0.00     0.028 C 
HETATM   14  C15 UNL     1      20.358  -0.569  53.669  1.00  0.00     0.175 C 
HETATM   15  O3  UNL     1      21.719  -0.657  53.362  1.00  0.00    -0.349 OA
ENDROOT
BRANCH  11  16
HETATM   16  C11 UNL     1      20.216   2.644  51.901  1.00  0.00     0.131 C 
HETATM   17  C12 UNL     1      19.283   3.443  51.061  1.00  0.00     0.091 C 
HETATM   18  O2  UNL     1      20.416   2.928  53.083  1.00  0.00    -0.298 OA
ENDBRANCH  11  16
BRANCH   1  19
HETATM   19  O1  UNL     1      22.771   3.032  50.435  1.00  0.00    -0.355 OA
HETATM   20  C1  UNL     1      23.307   4.364  50.425  1.00  0.00     0.210 C 
ENDBRANCH   1  19
TORSDOF 2
ENDMDL
MODEL 5
REMARK VINA RESULT:      -6.4      2.665      4.815
REMARK  2 active torsions:
REMARK  status: ('A' for Active; 'I' for Inactive)
REMARK    1  A    between atoms: O1_2  and  C2_3 
REMARK    2  A    between atoms: C10_13  and  C11_14 
ROOT
HETATM    1  C2  UNL     1      25.422   2.327  51.134  1.00  0.00     0.080 A 
HETATM    2  C3  UNL     1      26.544   2.757  50.458  1.00  0.00     0.070 A 
HETATM    3  C4  UNL     1      26.545   3.946  49.759  1.00  0.00     0.075 A 
HETATM    4  N1  UNL     1      27.636   4.385  49.088  1.00  0.00    -0.241 NA
HETATM    5  C5  UNL     1      27.582   5.549  48.423  1.00  0.00     0.233 A 
HETATM    6  N2  UNL     1      26.478   6.340  48.375  1.00  0.00    -0.253 NA
HETATM    7  C6  UNL     1      25.371   5.935  49.031  1.00  0.00     0.134 A 
HETATM    8  C7  UNL     1      25.428   4.739  49.714  1.00  0.00     0.044 A 
HETATM    9  C8  UNL     1      24.300   4.306  50.395  1.00  0.00     0.092 A 
HETATM   10  C9  UNL     1      24.270   3.117  51.106  1.00  0.00     0.021 A 
HETATM   11  C10 UNL     1      23.167   2.478  51.897  1.00  0.00     0.093 C 
HETATM   12  C13 UNL     1      22.250   3.560  52.358  1.00  0.00     0.019 C 
HETATM   13  C14 UNL     1      21.287   4.074  51.347  1.00  0.00     0.028 C 
HETATM   14  C15 UNL     1      21.829   4.926  50.268  1.00  0.00     0.175 C 
HETATM   15  O3  UNL     1      23.206   5.173  50.298  1.00  0.00    -0.349 OA
ENDROOT
BRANCH  11  16
HETATM   16  C11 UNL     1      22.490   1.415  51.110  1.00  0.00     0.131 C 
HETATM   17  C12 UNL     1      21.834   0.329  51.884  1.00  0.00     0.091 C 
HETATM   18  O2  UNL     1      22.471   1.426  49.878  1.00  0.00    -0.298 OA
ENDBRANCH  11  16
BRANCH   1  19
HETATM   19  O1  UNL     1      25.353   1.144  51.857  1.00  0.00    -0.355 OA
HETATM   20  C1  UNL     1      26.498   0.286  51.985  1.00  0.00     0.210 C 
ENDBRANCH   1  19
TORSDOF 2
ENDMDL
MODEL 6
REMARK VINA RESULT:      -6.2      4.482      7.028
REMARK  2 active torsions:
REMARK  status: ('A' for Active; 'I' for Inactive)
REMARK    1  A    between atoms: O1_2  and  C2_3 
REMARK    2  A    between atoms: C10_13  and  C11_14 
ROOT
HETATM    1  C2  UNL     1      20.687  -0.067  53.103  1.00  0.00     0.080 A 
HETATM    2  C3  UNL     1      19.559  -0.719  53.553  1.00  0.00     0.070 A 
HETATM    3  C4  UNL     1      18.416  -0.783  52.782  1.00  0.00     0.075 A 
HETATM    4  N1  UNL     1      17.298  -1.417  53.206  1.00  0.00    -0.241 NA
HETATM    5  C5  UNL     1      16.214  -1.449  52.416  1.00  0.00     0.233 A 
HETATM    6  N2  UNL     1      16.158  -0.873  51.188  1.00  0.00    -0.253 NA
HETATM    7  C6  UNL     1      17.253  -0.231  50.731  1.00  0.00     0.134 A 
HETATM    8  C7  UNL     1      18.367  -0.199  51.543  1.00  0.00     0.044 A 
HETATM    9  C8  UNL     1      19.503   0.456  51.091  1.00  0.00     0.092 A 
HETATM   10  C9  UNL     1      20.664   0.537  51.842  1.00  0.00     0.021 A 
HETATM   11  C10 UNL     1      21.981   1.189  51.541  1.00  0.00     0.093 C 
HETATM   12  C13 UNL     1      22.134   1.245  50.059  1.00  0.00     0.019 C 
HETATM   13  C14 UNL     1      21.388   2.329  49.365  1.00  0.00     0.028 C 
HETATM   14  C15 UNL     1      19.921   2.178  49.258  1.00  0.00     0.175 C 
HETATM   15  O3  UNL     1      19.368   1.023  49.819  1.00  0.00    -0.349 OA
ENDROOT
BRANCH  11  16
HETATM   16  C11 UNL     1      22.084   2.515  52.203  1.00  0.00     0.131 C 
HETATM   17  C12 UNL     1      23.456   3.001  52.509  1.00  0.00     0.091 C 
HETATM   18  O2  UNL     1      21.090   3.184  52.487  1.00  0.00    -0.298 OA
ENDBRANCH  11  16
BRANCH   1  19
HETATM   19  O1  UNL     1      21.868   0.036  53.825  1.00  0.00    -0.355 OA
HETATM   20  C1  UNL     1      22.222  -0.949  54.809  1.00  0.00     0.210 C 
ENDBRANCH   1  19
TORSDOF 2
ENDMDL
MODEL 7
REMARK VINA RESULT:      -6.0      1.940      4.000
REMARK  2 active torsions:
REMARK  status: ('A' for Active; 'I' for Inactive)
REMARK    1  A    between atoms: O1_2  and  C2_3 
REMARK    2  A    between atoms: C10_13  and  C11_14 
ROOT
HETATM    1  C2  UNL     1      21.768   0.555  52.425  1.00  0.00     0.080 A 
HETATM    2  C3  UNL     1      22.688  -0.286  53.013  1.00  0.00     0.070 A 
HETATM    3  C4  UNL     1      23.939   0.168  53.379  1.00  0.00     0.075 A 
HETATM    4  N1  UNL     1      24.858  -0.642  53.956  1.00  0.00    -0.241 NA
HETATM    5  C5  UNL     1      26.059  -0.148  54.292  1.00  0.00     0.233 A 
HETATM    6  N2  UNL     1      26.428   1.142  54.087  1.00  0.00    -0.253 NA
HETATM    7  C6  UNL     1      25.540   1.980  53.513  1.00  0.00     0.134 A 
HETATM    8  C7  UNL     1      24.305   1.472  53.168  1.00  0.00     0.044 A 
HETATM    9  C8  UNL     1      23.378   2.317  52.578  1.00  0.00     0.092 A 
HETATM   10  C9  UNL     1      22.116   1.890  52.200  1.00  0.00     0.021 A 
HETATM   11  C10 UNL     1      20.983   2.633  51.556  1.00  0.00     0.093 C 
HETATM   12  C13 UNL     1      21.128   4.076  51.903  1.00  0.00     0.019 C 
HETATM   13  C14 UNL     1      22.135   4.839  51.117  1.00  0.00     0.028 C 
HETATM   14  C15 UNL     1      23.560   4.575  51.406  1.00  0.00     0.175 C 
HETATM   15  O3  UNL     1      23.832   3.629  52.400  1.00  0.00    -0.349 OA
ENDROOT
BRANCH  11  16
HETATM   16  C11 UNL     1      20.935   2.372  50.094  1.00  0.00     0.131 C 
HETATM   17  C12 UNL     1      22.158   1.786  49.483  1.00  0.00     0.091 C 
HETATM   18  O2  UNL     1      19.938   2.624  49.416  1.00  0.00    -0.298 OA
ENDBRANCH  11  16
BRANCH   1  19
HETATM   19  O1  UNL     1      20.494   0.164  52.034  1.00  0.00    -0.355 OA
HETATM   20  C1  UNL     1      19.549  -0.343  52.989  1.00  0.00     0.210 C 
ENDBRANCH   1  19
TORSDOF 2
ENDMDL
MODEL 8
REMARK VINA RESULT:      -5.9      7.746      9.868
REMARK  2 active torsions:
REMARK  status: ('A' for Active; 'I' for Inactive)
REMARK    1  A    between atoms: O1_2  and  C2_3 
REMARK    2  A    between atoms: C10_13  and  C11_14 
ROOT
HETATM    1  C2  UNL     1      32.816   7.663  47.044  1.00  0.00     0.080 A 
HETATM    2  C3  UNL     1      33.943   6.871  47.064  1.00  0.00     0.070 A 
HETATM    3  C4  UNL     1      33.859   5.514  47.301  1.00  0.00     0.075 A 
HETATM    4  N1  UNL     1      34.954   4.719  47.326  1.00  0.00    -0.241 NA
HETATM    5  C5  UNL     1      34.814   3.406  47.561  1.00  0.00     0.233 A 
HETATM    6  N2  UNL     1      33.618   2.802  47.782  1.00  0.00    -0.253 NA
HETATM    7  C6  UNL     1      32.504   3.562  47.766  1.00  0.00     0.134 A 
HETATM    8  C7  UNL     1      32.648   4.911  47.524  1.00  0.00     0.044 A 
HETATM    9  C8  UNL     1      31.514   5.710  47.502  1.00  0.00     0.092 A 
HETATM   10  C9  UNL     1      31.568   7.074  47.267  1.00  0.00     0.021 A 
HETATM   11  C10 UNL     1      30.476   8.100  47.204  1.00  0.00     0.093 C 
HETATM   12  C13 UNL     1      29.216   7.401  46.821  1.00  0.00     0.019 C 
HETATM   13  C14 UNL     1      28.520   6.663  47.910  1.00  0.00     0.028 C 
HETATM   14  C15 UNL     1      29.137   5.402  48.372  1.00  0.00     0.175 C 
HETATM   15  O3  UNL     1      30.322   5.016  47.738  1.00  0.00    -0.349 OA
ENDROOT
BRANCH  11  16
HETATM   16  C11 UNL     1      30.377   8.854  48.480  1.00  0.00     0.131 C 
HETATM   17  C12 UNL     1      29.659  10.156  48.430  1.00  0.00     0.091 C 
HETATM   18  O2  UNL     1      30.863   8.431  49.529  1.00  0.00    -0.298 OA
ENDBRANCH  11  16
BRANCH   1  19
HETATM   19  O1  UNL     1      32.829   9.032  46.812  1.00  0.00    -0.355 OA
HETATM   20  C1  UNL     1      34.014   9.811  47.042  1.00  0.00     0.210 C 
ENDBRANCH   1  19
TORSDOF 2
ENDMDL
MODEL 9
REMARK VINA RESULT:      -5.8      5.550      8.752
REMARK  2 active torsions:
REMARK  status: ('A' for Active; 'I' for Inactive)
REMARK    1  A    between atoms: O1_2  and  C2_3 
REMARK    2  A    between atoms: C10_13  and  C11_14 
ROOT
HETATM    1  C2  UNL     1      29.591   6.714  47.755  1.00  0.00     0.080 A 
HETATM    2  C3  UNL     1      29.160   5.480  48.191  1.00  0.00     0.070 A 
HETATM    3  C4  UNL     1      27.852   5.277  48.582  1.00  0.00     0.075 A 
HETATM    4  N1  UNL     1      27.409   4.073  49.015  1.00  0.00    -0.241 NA
HETATM    5  C5  UNL     1      26.128   3.931  49.384  1.00  0.00     0.233 A 
HETATM    6  N2  UNL     1      25.218   4.939  49.354  1.00  0.00    -0.253 NA
HETATM    7  C6  UNL     1      25.622   6.155  48.930  1.00  0.00     0.134 A 
HETATM    8  C7  UNL     1      26.940   6.299  48.550  1.00  0.00     0.044 A 
HETATM    9  C8  UNL     1      27.374   7.541  48.111  1.00  0.00     0.092 A 
HETATM   10  C9  UNL     1      28.680   7.774  47.711  1.00  0.00     0.021 A 
HETATM   11  C10 UNL     1      29.342   9.024  47.211  1.00  0.00     0.093 C 
HETATM   12  C13 UNL     1      28.289   9.885  46.602  1.00  0.00     0.019 C 
HETATM   13  C14 UNL     1      27.446  10.659  47.553  1.00  0.00     0.028 C 
HETATM   14  C15 UNL     1      26.445   9.905  48.337  1.00  0.00     0.175 C 
HETATM   15  O3  UNL     1      26.381   8.526  48.108  1.00  0.00    -0.349 OA
ENDROOT
BRANCH  11  16
HETATM   16  C11 UNL     1      30.108   9.692  48.295  1.00  0.00     0.131 C 
HETATM   17  C12 UNL     1      31.192  10.619  47.870  1.00  0.00     0.091 C 
HETATM   18  O2  UNL     1      29.866   9.494  49.486  1.00  0.00    -0.298 OA
ENDBRANCH  11  16
BRANCH   1  19
HETATM   19  O1  UNL     1      30.890   6.987  47.347  1.00  0.00    -0.355 OA
HETATM   20  C1  UNL     1      32.017   6.506  48.095  1.00  0.00     0.210 C 
ENDBRANCH   1  19
TORSDOF 2
ENDMDL
