MODEL 1
REMARK VINA RESULT:      -9.9      0.000      0.000
REMARK  0 active torsions:
REMARK  status: ('A' for Active; 'I' for Inactive)
ROOT
HETATM    1  C1  UNL     1      24.624  -1.176  54.895  1.00  0.00     0.051 C 
HETATM    2  C2  UNL     1      25.314  -0.366  53.869  1.00  0.00    -0.029 A 
HETATM    3  C3  UNL     1      26.668  -0.326  53.707  1.00  0.00     0.012 A 
HETATM    4  C4  UNL     1      27.302   0.430  52.746  1.00  0.00     0.032 A 
HETATM    5  C5  UNL     1      26.459   1.163  51.938  1.00  0.00     0.060 A 
HETATM    6  C6  UNL     1      25.059   1.112  52.119  1.00  0.00     0.069 A 
HETATM    7  C7  UNL     1      24.426   0.342  53.096  1.00  0.00     0.077 A 
HETATM    8  O1  UNL     1      23.084   0.500  53.023  1.00  0.00    -0.343 OA
HETATM    9  C8  UNL     1      22.058   0.243  53.901  1.00  0.00     0.255 C 
HETATM   10  C9  UNL     1      20.790   0.671  53.183  1.00  0.00     0.166 C 
HETATM   11  O2  UNL     1      19.781   0.486  53.877  1.00  0.00    -0.294 OA
HETATM   12  C10 UNL     1      20.690   1.252  51.811  1.00  0.00     0.057 C 
HETATM   13  C11 UNL     1      19.265   1.653  51.605  1.00  0.00     0.032 C 
HETATM   14  C12 UNL     1      21.055   0.221  50.783  1.00  0.00    -0.003 C 
HETATM   15  C13 UNL     1      21.540   0.954  49.780  1.00  0.00     0.028 C 
HETATM   16  C14 UNL     1      21.915   2.271  50.305  1.00  0.00     0.045 C 
HETATM   17  C15 UNL     1      21.657   2.325  51.601  1.00  0.00     0.025 C 
HETATM   18  N1  UNL     1      22.449   3.164  49.353  1.00  0.00    -0.301 N 
HETATM   19  N2  UNL     1      23.497   3.837  48.775  1.00  0.00    -0.298 N 
HETATM   20  C16 UNL     1      24.315   4.975  48.959  1.00  0.00     0.076 A 
HETATM   21  C17 UNL     1      23.654   6.062  48.363  1.00  0.00     0.052 A 
HETATM   22  C18 UNL     1      24.156   7.373  48.352  1.00  0.00     0.013 A 
HETATM   23 BR1  UNL     1      23.219   8.826  47.527  1.00  0.00    -0.051 Br
HETATM   24  C19 UNL     1      25.355   7.622  48.955  1.00  0.00     0.021 A 
HETATM   25  C20 UNL     1      25.992   6.545  49.534  1.00  0.00     0.033 A 
HETATM   26  C21 UNL     1      25.519   5.254  49.554  1.00  0.00     0.061 A 
HETATM   27  N3  UNL     1      26.426   4.398  50.208  1.00  0.00    -0.349 N 
HETATM   28  C22 UNL     1      26.316   3.248  51.011  1.00  0.00     0.208 C 
HETATM   29  N4  UNL     1      26.856   2.044  50.846  1.00  0.00    -0.244 NA
HETATM   30  H15 UNL     1      21.721   3.583  48.698  1.00  0.00     0.187 HD
HETATM   31  H16 UNL     1      23.942   3.544  47.882  1.00  0.00     0.187 HD
HETATM   32  H20 UNL     1      27.458   4.499  50.197  1.00  0.00     0.167 HD
ENDROOT
TORSDOF 0
ENDMDL
MODEL 2
REMARK VINA RESULT:      -9.6      3.202      6.337
REMARK  0 active torsions:
REMARK  status: ('A' for Active; 'I' for Inactive)
ROOT
HETATM    1  C1  UNL     1      26.591  -0.384  54.047  1.00  0.00     0.051 C 
HETATM    2  C2  UNL     1      25.127  -0.446  54.243  1.00  0.00    -0.029 A 
HETATM    3  C3  UNL     1      24.511  -1.236  55.169  1.00  0.00     0.012 A 
HETATM    4  C4  UNL     1      23.146  -1.287  55.346  1.00  0.00     0.032 A 
HETATM    5  C5  UNL     1      22.424  -0.466  54.506  1.00  0.00     0.060 A 
HETATM    6  C6  UNL     1      23.077   0.347  53.552  1.00  0.00     0.069 A 
HETATM    7  C7  UNL     1      24.461   0.390  53.381  1.00  0.00     0.077 A 
HETATM    8  O1  UNL     1      24.786   1.258  52.394  1.00  0.00    -0.343 OA
HETATM    9  C8  UNL     1      25.918   1.436  51.635  1.00  0.00     0.255 C 
HETATM   10  C9  UNL     1      25.601   2.586  50.694  1.00  0.00     0.166 C 
HETATM   11  O2  UNL     1      26.554   2.851  49.950  1.00  0.00    -0.294 OA
HETATM   12  C10 UNL     1      24.321   3.352  50.616  1.00  0.00     0.057 C 
HETATM   13  C11 UNL     1      24.430   4.274  49.445  1.00  0.00     0.032 C 
HETATM   14  C12 UNL     1      24.130   4.172  51.859  1.00  0.00    -0.003 C 
HETATM   15  C13 UNL     1      22.804   4.256  51.964  1.00  0.00     0.028 C 
HETATM   16  C14 UNL     1      22.204   3.184  51.162  1.00  0.00     0.045 C 
HETATM   17  C15 UNL     1      23.158   2.471  50.586  1.00  0.00     0.025 C 
HETATM   18  N1  UNL     1      20.795   3.143  51.176  1.00  0.00    -0.301 N 
HETATM   19  N2  UNL     1      19.600   2.599  51.579  1.00  0.00    -0.298 N 
HETATM   20  C16 UNL     1      18.722   1.529  51.293  1.00  0.00     0.076 A 
HETATM   21  C17 UNL     1      17.859   1.962  50.273  1.00  0.00     0.052 A 
HETATM   22  C18 UNL     1      16.849   1.165  49.712  1.00  0.00     0.013 A 
HETATM   23 BR1  UNL     1      15.694   1.797  48.320  1.00  0.00    -0.051 Br
HETATM   24  C19 UNL     1      16.684  -0.108  50.174  1.00  0.00     0.021 A 
HETATM   25  C20 UNL     1      17.537  -0.518  51.176  1.00  0.00     0.033 A 
HETATM   26  C21 UNL     1      18.532   0.246  51.740  1.00  0.00     0.061 A 
HETATM   27  N3  UNL     1      19.202  -0.470  52.751  1.00  0.00    -0.349 N 
HETATM   28  C22 UNL     1      20.520  -0.514  53.240  1.00  0.00     0.208 C 
HETATM   29  N4  UNL     1      20.973  -0.319  54.475  1.00  0.00    -0.244 NA
HETATM   30  H15 UNL     1      20.336   3.902  50.586  1.00  0.00     0.187 HD
HETATM   31  H16 UNL     1      19.010   3.009  52.331  1.00  0.00     0.187 HD
HETATM   32  H20 UNL     1      18.766  -1.172  53.376  1.00  0.00     0.167 HD
ENDROOT
TORSDOF 0
ENDMDL
MODEL 3
REMARK VINA RESULT:      -9.2      6.898     10.021
REMARK  0 active torsions:
REMARK  status: ('A' for Active; 'I' for Inactive)
ROOT
HETATM    1  C1  UNL     1      25.512  13.338  47.871  1.00  0.00     0.051 C 
HETATM    2  C2  UNL     1      26.838  12.754  48.170  1.00  0.00    -0.029 A 
HETATM    3  C3  UNL     1      27.963  13.487  48.405  1.00  0.00     0.012 A 
HETATM    4  C4  UNL     1      29.193  12.934  48.684  1.00  0.00     0.032 A 
HETATM    5  C5  UNL     1      29.214  11.555  48.712  1.00  0.00     0.060 A 
HETATM    6  C6  UNL     1      28.039  10.810  48.466  1.00  0.00     0.069 A 
HETATM    7  C7  UNL     1      26.797  11.381  48.183  1.00  0.00     0.077 A 
HETATM    8  O1  UNL     1      25.868  10.415  47.994  1.00  0.00    -0.343 OA
HETATM    9  C8  UNL     1      24.627  10.408  47.404  1.00  0.00     0.255 C 
HETATM   10  C9  UNL     1      24.126   8.979  47.523  1.00  0.00     0.166 C 
HETATM   11  O2  UNL     1      23.001   8.840  47.026  1.00  0.00    -0.294 OA
HETATM   12  C10 UNL     1      24.844   7.828  48.148  1.00  0.00     0.057 C 
HETATM   13  C11 UNL     1      24.026   6.605  47.888  1.00  0.00     0.032 C 
HETATM   14  C12 UNL     1      24.955   8.028  49.631  1.00  0.00    -0.003 C 
HETATM   15  C13 UNL     1      26.072   7.371  49.942  1.00  0.00     0.028 C 
HETATM   16  C14 UNL     1      26.864   7.194  48.720  1.00  0.00     0.045 C 
HETATM   17  C15 UNL     1      26.229   7.737  47.694  1.00  0.00     0.025 C 
HETATM   18  N1  UNL     1      28.085   6.510  48.891  1.00  0.00    -0.301 N 
HETATM   19  N2  UNL     1      29.454   6.476  48.986  1.00  0.00    -0.298 N 
HETATM   20  C16 UNL     1      30.617   6.481  48.181  1.00  0.00     0.076 A 
HETATM   21  C17 UNL     1      30.887   5.146  47.836  1.00  0.00     0.052 A 
HETATM   22  C18 UNL     1      31.965   4.749  47.029  1.00  0.00     0.013 A 
HETATM   23 BR1  UNL     1      32.297   2.916  46.584  1.00  0.00    -0.051 Br
HETATM   24  C19 UNL     1      32.807   5.706  46.542  1.00  0.00     0.021 A 
HETATM   25  C20 UNL     1      32.529   7.011  46.890  1.00  0.00     0.033 A 
HETATM   26  C21 UNL     1      31.481   7.420  47.679  1.00  0.00     0.061 A 
HETATM   27  N3  UNL     1      31.500   8.818  47.854  1.00  0.00    -0.349 N 
HETATM   28  C22 UNL     1      30.527   9.821  48.007  1.00  0.00     0.208 C 
HETATM   29  N4  UNL     1      30.373  10.712  48.982  1.00  0.00    -0.244 NA
HETATM   30  H15 UNL     1      27.975   5.459  49.026  1.00  0.00     0.187 HD
HETATM   31  H16 UNL     1      29.964   6.407  49.889  1.00  0.00     0.187 HD
HETATM   32  H20 UNL     1      32.355   9.402  47.903  1.00  0.00     0.167 HD
ENDROOT
TORSDOF 0
ENDMDL
MODEL 4
REMARK VINA RESULT:      -8.9      4.951      8.034
REMARK  0 active torsions:
REMARK  status: ('A' for Active; 'I' for Inactive)
ROOT
HETATM    1  C1  UNL     1      25.005   1.518  51.510  1.00  0.00     0.051 C 
HETATM    2  C2  UNL     1      24.017   0.887  52.411  1.00  0.00    -0.029 A 
HETATM    3  C3  UNL     1      24.333   0.279  53.590  1.00  0.00     0.012 A 
HETATM    4  C4  UNL     1      23.405  -0.305  54.424  1.00  0.00     0.032 A 
HETATM    5  C5  UNL     1      22.102  -0.234  53.978  1.00  0.00     0.060 A 
HETATM    6  C6  UNL     1      21.791   0.398  52.753  1.00  0.00     0.069 A 
HETATM    7  C7  UNL     1      22.739   0.987  51.916  1.00  0.00     0.077 A 
HETATM    8  O1  UNL     1      22.139   1.508  50.820  1.00  0.00    -0.343 OA
HETATM    9  C8  UNL     1      22.608   1.895  49.587  1.00  0.00     0.255 C 
HETATM   10  C9  UNL     1      21.390   2.382  48.822  1.00  0.00     0.166 C 
HETATM   11  O2  UNL     1      21.683   2.766  47.682  1.00  0.00    -0.294 OA
HETATM   12  C10 UNL     1      19.981   2.424  49.315  1.00  0.00     0.057 C 
HETATM   13  C11 UNL     1      19.122   2.831  48.162  1.00  0.00     0.032 C 
HETATM   14  C12 UNL     1      19.842   3.447  50.405  1.00  0.00    -0.003 C 
HETATM   15  C13 UNL     1      18.842   2.966  51.145  1.00  0.00     0.028 C 
HETATM   16  C14 UNL     1      18.692   1.537  50.851  1.00  0.00     0.045 C 
HETATM   17  C15 UNL     1      19.587   1.170  49.949  1.00  0.00     0.025 C 
HETATM   18  N1  UNL     1      17.665   0.884  51.565  1.00  0.00    -0.301 N 
HETATM   19  N2  UNL     1      17.220   0.046  52.556  1.00  0.00    -0.298 N 
HETATM   20  C16 UNL     1      17.050  -1.328  52.847  1.00  0.00     0.076 A 
HETATM   21  C17 UNL     1      15.790  -1.703  52.351  1.00  0.00     0.052 A 
HETATM   22  C18 UNL     1      15.268  -3.002  52.443  1.00  0.00     0.013 A 
HETATM   23 BR1  UNL     1      13.543  -3.470  51.753  1.00  0.00    -0.051 Br
HETATM   24  C19 UNL     1      16.019  -3.970  53.045  1.00  0.00     0.021 A 
HETATM   25  C20 UNL     1      17.252  -3.586  53.527  1.00  0.00     0.033 A 
HETATM   26  C21 UNL     1      17.781  -2.320  53.449  1.00  0.00     0.061 A 
HETATM   27  N3  UNL     1      19.050  -2.267  54.058  1.00  0.00    -0.349 N 
HETATM   28  C22 UNL     1      20.239  -1.552  53.833  1.00  0.00     0.208 C 
HETATM   29  N4  UNL     1      20.925  -0.764  54.655  1.00  0.00    -0.244 NA
HETATM   30  H15 UNL     1      16.685   1.107  51.210  1.00  0.00     0.187 HD
HETATM   31  H16 UNL     1      16.829   0.383  53.458  1.00  0.00     0.187 HD
HETATM   32  H20 UNL     1      19.341  -2.826  54.881  1.00  0.00     0.167 HD
ENDROOT
TORSDOF 0
ENDMDL
MODEL 5
REMARK VINA RESULT:      -8.8      6.421     10.585
REMARK  0 active torsions:
REMARK  status: ('A' for Active; 'I' for Inactive)
ROOT
HETATM    1  C1  UNL     1      33.673   7.516  45.160  1.00  0.00     0.051 C 
HETATM    2  C2  UNL     1      32.752   6.787  46.058  1.00  0.00    -0.029 A 
HETATM    3  C3  UNL     1      32.841   5.452  46.326  1.00  0.00     0.012 A 
HETATM    4  C4  UNL     1      31.980   4.781  47.166  1.00  0.00     0.032 A 
HETATM    5  C5  UNL     1      30.998   5.566  47.734  1.00  0.00     0.060 A 
HETATM    6  C6  UNL     1      30.920   6.946  47.447  1.00  0.00     0.069 A 
HETATM    7  C7  UNL     1      31.798   7.617  46.593  1.00  0.00     0.077 A 
HETATM    8  O1  UNL     1      31.469   8.928  46.517  1.00  0.00    -0.343 OA
HETATM    9  C8  UNL     1      31.781   9.924  45.622  1.00  0.00     0.255 C 
HETATM   10  C9  UNL     1      31.065  11.164  46.127  1.00  0.00     0.166 C 
HETATM   11  O2  UNL     1      31.271  12.145  45.400  1.00  0.00    -0.294 OA
HETATM   12  C10 UNL     1      30.200  11.267  47.340  1.00  0.00     0.057 C 
HETATM   13  C11 UNL     1      29.599  12.635  47.338  1.00  0.00     0.032 C 
HETATM   14  C12 UNL     1      31.027  11.107  48.583  1.00  0.00    -0.003 C 
HETATM   15  C13 UNL     1      30.163  10.588  49.455  1.00  0.00     0.028 C 
HETATM   16  C14 UNL     1      29.040  10.010  48.711  1.00  0.00     0.045 C 
HETATM   17  C15 UNL     1      29.229  10.180  47.413  1.00  0.00     0.025 C 
HETATM   18  N1  UNL     1      28.036   9.418  49.506  1.00  0.00    -0.301 N 
HETATM   19  N2  UNL     1      27.386   8.327  50.027  1.00  0.00    -0.298 N 
HETATM   20  C16 UNL     1      26.417   7.354  49.688  1.00  0.00     0.076 A 
HETATM   21  C17 UNL     1      25.159   7.898  49.994  1.00  0.00     0.052 A 
HETATM   22  C18 UNL     1      23.944   7.227  49.785  1.00  0.00     0.013 A 
HETATM   23 BR1  UNL     1      22.249   8.008  50.217  1.00  0.00    -0.051 Br
HETATM   24  C19 UNL     1      23.972   5.971  49.251  1.00  0.00     0.021 A 
HETATM   25  C20 UNL     1      25.214   5.450  48.958  1.00  0.00     0.033 A 
HETATM   26  C21 UNL     1      26.415   6.090  49.156  1.00  0.00     0.061 A 
HETATM   27  N3  UNL     1      27.492   5.268  48.769  1.00  0.00    -0.349 N 
HETATM   28  C22 UNL     1      28.763   5.483  48.207  1.00  0.00     0.208 C 
HETATM   29  N4  UNL     1      29.960   5.120  48.657  1.00  0.00    -0.244 NA
HETATM   30  H15 UNL     1      27.406  10.122  49.999  1.00  0.00     0.187 HD
HETATM   31  H16 UNL     1      27.536   7.980  50.995  1.00  0.00     0.187 HD
HETATM   32  H20 UNL     1      27.514   4.235  48.849  1.00  0.00     0.167 HD
ENDROOT
TORSDOF 0
ENDMDL
MODEL 6
REMARK VINA RESULT:      -8.8      1.823      2.339
REMARK  0 active torsions:
REMARK  status: ('A' for Active; 'I' for Inactive)
ROOT
HETATM    1  C1  UNL     1      25.502  -0.305  53.378  1.00  0.00     0.051 C 
HETATM    2  C2  UNL     1      25.601   0.849  52.458  1.00  0.00    -0.029 A 
HETATM    3  C3  UNL     1      26.777   1.421  52.071  1.00  0.00     0.012 A 
HETATM    4  C4  UNL     1      26.860   2.495  51.212  1.00  0.00     0.032 A 
HETATM    5  C5  UNL     1      25.647   2.966  50.757  1.00  0.00     0.060 A 
HETATM    6  C6  UNL     1      24.437   2.363  51.169  1.00  0.00     0.069 A 
HETATM    7  C7  UNL     1      24.364   1.275  52.040  1.00  0.00     0.077 A 
HETATM    8  O1  UNL     1      23.073   0.924  52.246  1.00  0.00    -0.343 OA
HETATM    9  C8  UNL     1      22.447   0.171  53.211  1.00  0.00     0.255 C 
HETATM   10  C9  UNL     1      20.972   0.189  52.848  1.00  0.00     0.166 C 
HETATM   11  O2  UNL     1      20.291  -0.464  53.649  1.00  0.00    -0.294 OA
HETATM   12  C10 UNL     1      20.344   0.887  51.686  1.00  0.00     0.057 C 
HETATM   13  C11 UNL     1      18.864   0.745  51.835  1.00  0.00     0.032 C 
HETATM   14  C12 UNL     1      20.764   0.235  50.401  1.00  0.00    -0.003 C 
HETATM   15  C13 UNL     1      20.709   1.237  49.523  1.00  0.00     0.028 C 
HETATM   16  C14 UNL     1      20.739   2.505  50.261  1.00  0.00     0.045 C 
HETATM   17  C15 UNL     1      20.811   2.264  51.559  1.00  0.00     0.025 C 
HETATM   18  N1  UNL     1      20.688   3.665  49.460  1.00  0.00    -0.301 N 
HETATM   19  N2  UNL     1      21.270   4.761  48.873  1.00  0.00    -0.298 N 
HETATM   20  C16 UNL     1      21.678   6.083  49.165  1.00  0.00     0.076 A 
HETATM   21  C17 UNL     1      20.565   6.915  48.962  1.00  0.00     0.052 A 
HETATM   22  C18 UNL     1      20.579   8.304  49.162  1.00  0.00     0.013 A 
HETATM   23 BR1  UNL     1      19.035   9.401  48.873  1.00  0.00    -0.051 Br
HETATM   24  C19 UNL     1      21.735   8.895  49.582  1.00  0.00     0.021 A 
HETATM   25  C20 UNL     1      22.819   8.066  49.775  1.00  0.00     0.033 A 
HETATM   26  C21 UNL     1      22.827   6.704  49.583  1.00  0.00     0.061 A 
HETATM   27  N3  UNL     1      24.102   6.167  49.850  1.00  0.00    -0.349 N 
HETATM   28  C22 UNL     1      24.587   4.956  50.374  1.00  0.00     0.208 C 
HETATM   29  N4  UNL     1      25.439   4.084  49.844  1.00  0.00    -0.244 NA
HETATM   30  H15 UNL     1      19.722   3.869  49.058  1.00  0.00     0.187 HD
HETATM   31  H16 UNL     1      21.549   4.793  47.872  1.00  0.00     0.187 HD
HETATM   32  H20 UNL     1      25.002   6.651  49.678  1.00  0.00     0.167 HD
ENDROOT
TORSDOF 0
ENDMDL
MODEL 7
REMARK VINA RESULT:      -8.7      1.991      2.575
REMARK  0 active torsions:
REMARK  status: ('A' for Active; 'I' for Inactive)
ROOT
HETATM    1  C1  UNL     1      21.941   0.320  53.665  1.00  0.00     0.051 C 
HETATM    2  C2  UNL     1      23.030   0.901  52.850  1.00  0.00    -0.029 A 
HETATM    3  C3  UNL     1      24.330   0.493  52.906  1.00  0.00     0.012 A 
HETATM    4  C4  UNL     1      25.338   1.038  52.142  1.00  0.00     0.032 A 
HETATM    5  C5  UNL     1      24.936   2.049  51.294  1.00  0.00     0.060 A 
HETATM    6  C6  UNL     1      23.586   2.461  51.247  1.00  0.00     0.069 A 
HETATM    7  C7  UNL     1      22.572   1.901  52.027  1.00  0.00     0.077 A 
HETATM    8  O1  UNL     1      21.389   2.503  51.762  1.00  0.00    -0.343 OA
HETATM    9  C8  UNL     1      20.194   2.562  52.438  1.00  0.00     0.255 C 
HETATM   10  C9  UNL     1      19.283   3.423  51.580  1.00  0.00     0.166 C 
HETATM   11  O2  UNL     1      18.160   3.553  52.084  1.00  0.00    -0.294 OA
HETATM   12  C10 UNL     1      19.627   4.069  50.278  1.00  0.00     0.057 C 
HETATM   13  C11 UNL     1      18.469   4.933  49.895  1.00  0.00     0.032 C 
HETATM   14  C12 UNL     1      19.822   3.026  49.216  1.00  0.00    -0.003 C 
HETATM   15  C13 UNL     1      20.692   3.601  48.385  1.00  0.00     0.028 C 
HETATM   16  C14 UNL     1      21.367   4.691  49.098  1.00  0.00     0.045 C 
HETATM   17  C15 UNL     1      20.908   4.766  50.336  1.00  0.00     0.025 C 
HETATM   18  N1  UNL     1      22.324   5.398  48.341  1.00  0.00    -0.301 N 
HETATM   19  N2  UNL     1      23.619   5.709  48.007  1.00  0.00    -0.298 N 
HETATM   20  C16 UNL     1      24.711   6.497  48.436  1.00  0.00     0.076 A 
HETATM   21  C17 UNL     1      24.554   7.770  47.863  1.00  0.00     0.052 A 
HETATM   22  C18 UNL     1      25.444   8.836  48.068  1.00  0.00     0.013 A 
HETATM   23 BR1  UNL     1      25.190  10.556  47.265  1.00  0.00    -0.051 Br
HETATM   24  C19 UNL     1      26.528   8.640  48.873  1.00  0.00     0.021 A 
HETATM   25  C20 UNL     1      26.669   7.386  49.428  1.00  0.00     0.033 A 
HETATM   26  C21 UNL     1      25.811   6.329  49.238  1.00  0.00     0.061 A 
HETATM   27  N3  UNL     1      26.260   5.187  49.931  1.00  0.00    -0.349 N 
HETATM   28  C22 UNL     1      25.643   4.104  50.581  1.00  0.00     0.208 C 
HETATM   29  N4  UNL     1      25.787   2.798  50.376  1.00  0.00    -0.244 NA
HETATM   30  H15 UNL     1      21.901   6.067  47.628  1.00  0.00     0.187 HD
HETATM   31  H16 UNL     1      24.101   5.326  47.169  1.00  0.00     0.187 HD
HETATM   32  H20 UNL     1      27.254   4.938  50.092  1.00  0.00     0.167 HD
ENDROOT
TORSDOF 0
ENDMDL
MODEL 8
REMARK VINA RESULT:      -8.6      3.972      7.356
REMARK  0 active torsions:
REMARK  status: ('A' for Active; 'I' for Inactive)
ROOT
HETATM    1  C1  UNL     1      23.587   8.726  45.295  1.00  0.00     0.051 C 
HETATM    2  C2  UNL     1      24.507   8.127  46.286  1.00  0.00    -0.029 A 
HETATM    3  C3  UNL     1      25.864   8.260  46.250  1.00  0.00     0.012 A 
HETATM    4  C4  UNL     1      26.713   7.700  47.179  1.00  0.00     0.032 A 
HETATM    5  C5  UNL     1      26.087   6.978  48.173  1.00  0.00     0.060 A 
HETATM    6  C6  UNL     1      24.680   6.849  48.196  1.00  0.00     0.069 A 
HETATM    7  C7  UNL     1      23.829   7.421  47.249  1.00  0.00     0.077 A 
HETATM    8  O1  UNL     1      22.540   7.122  47.535  1.00  0.00    -0.343 OA
HETATM    9  C8  UNL     1      21.382   7.154  46.796  1.00  0.00     0.255 C 
HETATM   10  C9  UNL     1      20.286   6.675  47.732  1.00  0.00     0.166 C 
HETATM   11  O2  UNL     1      19.179   6.661  47.180  1.00  0.00    -0.294 OA
HETATM   12  C10 UNL     1      20.447   6.254  49.156  1.00  0.00     0.057 C 
HETATM   13  C11 UNL     1      19.126   5.723  49.610  1.00  0.00     0.032 C 
HETATM   14  C12 UNL     1      20.810   7.435  50.009  1.00  0.00    -0.003 C 
HETATM   15  C13 UNL     1      21.516   6.886  50.999  1.00  0.00     0.028 C 
HETATM   16  C14 UNL     1      21.983   5.567  50.561  1.00  0.00     0.045 C 
HETATM   17  C15 UNL     1      21.563   5.330  49.330  1.00  0.00     0.025 C 
HETATM   18  N1  UNL     1      22.750   4.859  51.510  1.00  0.00    -0.301 N 
HETATM   19  N2  UNL     1      23.943   4.383  51.994  1.00  0.00    -0.298 N 
HETATM   20  C16 UNL     1      24.869   3.331  51.808  1.00  0.00     0.076 A 
HETATM   21  C17 UNL     1      24.439   2.255  52.602  1.00  0.00     0.052 A 
HETATM   22  C18 UNL     1      25.102   1.020  52.673  1.00  0.00     0.013 A 
HETATM   23 BR1  UNL     1      24.480  -0.421  53.772  1.00  0.00    -0.051 Br
HETATM   24  C19 UNL     1      26.232   0.838  51.929  1.00  0.00     0.021 A 
HETATM   25  C20 UNL     1      26.642   1.903  51.156  1.00  0.00     0.033 A 
HETATM   26  C21 UNL     1      26.009   3.120  51.074  1.00  0.00     0.061 A 
HETATM   27  N3  UNL     1      26.702   3.990  50.209  1.00  0.00    -0.349 N 
HETATM   28  C22 UNL     1      26.339   5.016  49.319  1.00  0.00     0.208 C 
HETATM   29  N4  UNL     1      26.736   6.284  49.279  1.00  0.00    -0.244 NA
HETATM   30  H15 UNL     1      22.176   4.443  52.305  1.00  0.00     0.187 HD
HETATM   31  H16 UNL     1      24.462   4.829  52.777  1.00  0.00     0.187 HD
HETATM   32  H20 UNL     1      27.731   4.008  50.079  1.00  0.00     0.167 HD
ENDROOT
TORSDOF 0
ENDMDL
MODEL 9
REMARK VINA RESULT:      -8.6      4.178      9.007
REMARK  0 active torsions:
REMARK  status: ('A' for Active; 'I' for Inactive)
ROOT
HETATM    1  C1  UNL     1      22.550  10.334  46.662  1.00  0.00     0.051 C 
HETATM    2  C2  UNL     1      22.515   8.866  46.843  1.00  0.00    -0.029 A 
HETATM    3  C3  UNL     1      21.474   8.072  46.460  1.00  0.00     0.012 A 
HETATM    4  C4  UNL     1      21.451   6.705  46.630  1.00  0.00     0.032 A 
HETATM    5  C5  UNL     1      22.577   6.179  47.228  1.00  0.00     0.060 A 
HETATM    6  C6  UNL     1      23.646   7.015  47.619  1.00  0.00     0.069 A 
HETATM    7  C7  UNL     1      23.659   8.399  47.442  1.00  0.00     0.077 A 
HETATM    8  O1  UNL     1      24.814   8.922  47.917  1.00  0.00    -0.343 OA
HETATM    9  C8  UNL     1      25.193  10.196  48.270  1.00  0.00     0.255 C 
HETATM   10  C9  UNL     1      26.632  10.077  48.739  1.00  0.00     0.166 C 
HETATM   11  O2  UNL     1      27.097  11.171  49.086  1.00  0.00    -0.294 OA
HETATM   12  C10 UNL     1      27.454   8.831  48.802  1.00  0.00     0.057 C 
HETATM   13  C11 UNL     1      28.743   9.187  49.469  1.00  0.00     0.032 C 
HETATM   14  C12 UNL     1      27.749   8.332  47.418  1.00  0.00    -0.003 C 
HETATM   15  C13 UNL     1      27.873   7.016  47.592  1.00  0.00     0.028 C 
HETATM   16  C14 UNL     1      27.230   6.651  48.858  1.00  0.00     0.045 C 
HETATM   17  C15 UNL     1      26.730   7.732  49.433  1.00  0.00     0.025 C 
HETATM   18  N1  UNL     1      27.281   5.279  49.181  1.00  0.00    -0.301 N 
HETATM   19  N2  UNL     1      26.706   4.038  49.301  1.00  0.00    -0.298 N 
HETATM   20  C16 UNL     1      25.886   3.280  50.168  1.00  0.00     0.076 A 
HETATM   21  C17 UNL     1      26.732   2.670  51.109  1.00  0.00     0.052 A 
HETATM   22  C18 UNL     1      26.278   1.840  52.147  1.00  0.00     0.013 A 
HETATM   23 BR1  UNL     1      27.468   1.028  53.409  1.00  0.00    -0.051 Br
HETATM   24  C19 UNL     1      24.939   1.607  52.263  1.00  0.00     0.021 A 
HETATM   25  C20 UNL     1      24.122   2.212  51.331  1.00  0.00     0.033 A 
HETATM   26  C21 UNL     1      24.546   3.025  50.307  1.00  0.00     0.061 A 
HETATM   27  N3  UNL     1      23.456   3.459  49.527  1.00  0.00    -0.349 N 
HETATM   28  C22 UNL     1      23.141   4.626  48.809  1.00  0.00     0.208 C 
HETATM   29  N4  UNL     1      22.820   4.772  47.527  1.00  0.00    -0.244 NA
HETATM   30  H15 UNL     1      28.237   4.951  49.520  1.00  0.00     0.187 HD
HETATM   31  H16 UNL     1      26.836   3.278  48.604  1.00  0.00     0.187 HD
HETATM   32  H20 UNL     1      22.599   2.907  49.338  1.00  0.00     0.167 HD
ENDROOT
TORSDOF 0
ENDMDL
