MODEL 1
REMARK VINA RESULT:      -8.6      0.000      0.000
REMARK  5 active torsions:
REMARK  status: ('A' for Active; 'I' for Inactive)
REMARK    1  A    between atoms: C4_4  and  O1_5 
REMARK    2  A    between atoms: C6_7  and  O2_8 
REMARK    3  A    between atoms: C11_15  and  N3_16 
REMARK    4  A    between atoms: N3_16  and  C12_17 
REMARK    5  A    between atoms: C21_28  and  O3_29 
ROOT
HETATM    1  N3  UNL     1      26.360   2.782  49.711  1.00  0.00    -0.338 N 
HETATM    2  H14 UNL     1      26.742   2.088  49.001  1.00  0.00     0.167 HD
ENDROOT
BRANCH   1   3
HETATM    3  C11 UNL     1      25.659   2.194  50.802  1.00  0.00     0.135 C 
HETATM    4  C2  UNL     1      26.520   1.510  51.677  1.00  0.00    -0.013 C 
HETATM    5  C1  UNL     1      27.270   2.554  52.423  1.00  0.00     0.052 C 
HETATM    6  C3  UNL     1      26.804   0.196  51.951  1.00  0.00     0.050 C 
HETATM    7  C4  UNL     1      26.393  -0.846  52.709  1.00  0.00     0.102 C 
HETATM    8  C6  UNL     1      25.187  -0.707  53.370  1.00  0.00     0.102 C 
HETATM    9  C8  UNL     1      23.877  -0.303  53.250  1.00  0.00     0.059 C 
HETATM   10  C9  UNL     1      23.606   1.022  53.482  1.00  0.00     0.121 C 
HETATM   11  N1  UNL     1      23.870   2.230  52.949  1.00  0.00    -0.254 NA
HETATM   12  C10 UNL     1      23.493   2.494  51.687  1.00  0.00     0.234 C 
HETATM   13  N2  UNL     1      24.358   2.489  50.631  1.00  0.00    -0.224 NA
BRANCH   7  14
HETATM   14  O1  UNL     1      27.034  -2.011  52.891  1.00  0.00    -0.353 OA
HETATM   15  C5  UNL     1      28.408  -2.165  53.049  1.00  0.00     0.210 C 
ENDBRANCH   7  14
BRANCH   8  16
HETATM   16  O2  UNL     1      25.236  -1.116  54.685  1.00  0.00    -0.353 OA
HETATM   17  C7  UNL     1      25.907  -0.469  55.728  1.00  0.00     0.210 C 
ENDBRANCH   8  16
ENDBRANCH   1   3
BRANCH   1  18
HETATM   18  C12 UNL     1      26.612   4.167  49.431  1.00  0.00     0.069 A 
HETATM   19  C13 UNL     1      27.590   4.570  48.623  1.00  0.00     0.044 A 
HETATM   20  C14 UNL     1      27.547   6.022  48.579  1.00  0.00    -0.021 A 
HETATM   21  C15 UNL     1      28.454   6.658  47.823  1.00  0.00    -0.004 C 
HETATM   22  C20 UNL     1      26.437   6.385  49.453  1.00  0.00     0.037 A 
HETATM   23  C16 UNL     1      28.702   8.105  47.551  1.00  0.00     0.106 C 
HETATM   24  S1  UNL     1      29.082   9.031  49.057  1.00  0.00    -0.138 SA
HETATM   25  C17 UNL     1      27.626   9.568  49.908  1.00  0.00     0.047 C 
HETATM   26  C18 UNL     1      26.457   8.993  50.158  1.00  0.00     0.039 C 
HETATM   27  C19 UNL     1      25.862   7.670  49.845  1.00  0.00     0.062 C 
HETATM   28  N4  UNL     1      24.593   7.672  49.933  1.00  0.00    -0.299 NA
HETATM   29  H21 UNL     1      23.880   6.988  49.798  1.00  0.00     0.187 HD
HETATM   30  C21 UNL     1      25.864   5.316  49.974  1.00  0.00     0.105 A 
BRANCH  30  31
HETATM   31  O3  UNL     1      24.789   5.310  50.847  1.00  0.00    -0.357 OA
HETATM   32  H22 UNL     1      24.634   4.501  51.424  1.00  0.00     0.217 HD
ENDBRANCH  30  31
ENDBRANCH   1  18
TORSDOF 5
ENDMDL
MODEL 2
REMARK VINA RESULT:      -8.5      4.539      8.067
REMARK  5 active torsions:
REMARK  status: ('A' for Active; 'I' for Inactive)
REMARK    1  A    between atoms: C4_4  and  O1_5 
REMARK    2  A    between atoms: C6_7  and  O2_8 
REMARK    3  A    between atoms: C11_15  and  N3_16 
REMARK    4  A    between atoms: N3_16  and  C12_17 
REMARK    5  A    between atoms: C21_28  and  O3_29 
ROOT
HETATM    1  N3  UNL     1      27.677   7.814  48.309  1.00  0.00    -0.338 N 
HETATM    2  H14 UNL     1      27.233   8.547  47.678  1.00  0.00     0.167 HD
ENDROOT
BRANCH   1   3
HETATM    3  C11 UNL     1      29.097   7.876  48.388  1.00  0.00     0.135 C 
HETATM    4  C2  UNL     1      29.716   6.961  47.520  1.00  0.00    -0.013 C 
HETATM    5  C1  UNL     1      29.537   7.504  46.147  1.00  0.00     0.052 C 
HETATM    6  C3  UNL     1      30.376   5.766  47.658  1.00  0.00     0.050 C 
HETATM    7  C4  UNL     1      31.602   5.249  47.899  1.00  0.00     0.102 C 
HETATM    8  C6  UNL     1      32.585   6.128  48.313  1.00  0.00     0.102 C 
HETATM    9  C8  UNL     1      32.879   7.172  49.161  1.00  0.00     0.059 C 
HETATM   10  C9  UNL     1      32.611   8.440  48.711  1.00  0.00     0.121 C 
HETATM   11  N1  UNL     1      31.556   9.206  48.377  1.00  0.00    -0.254 NA
HETATM   12  C10 UNL     1      30.602   9.454  49.290  1.00  0.00     0.234 C 
HETATM   13  N2  UNL     1      29.393   8.819  49.301  1.00  0.00    -0.224 NA
BRANCH   7  14
HETATM   14  O1  UNL     1      31.972   3.965  47.781  1.00  0.00    -0.353 OA
HETATM   15  C5  UNL     1      31.963   3.224  46.603  1.00  0.00     0.210 C 
ENDBRANCH   7  14
BRANCH   8  16
HETATM   16  O2  UNL     1      33.785   5.952  47.657  1.00  0.00    -0.353 OA
HETATM   17  C7  UNL     1      35.016   5.655  48.250  1.00  0.00     0.210 C 
ENDBRANCH   8  16
ENDBRANCH   1   3
BRANCH   1  18
HETATM   18  C12 UNL     1      26.768   6.904  48.947  1.00  0.00     0.069 A 
HETATM   19  C13 UNL     1      26.742   5.603  48.669  1.00  0.00     0.044 A 
HETATM   20  C14 UNL     1      25.707   5.003  49.495  1.00  0.00    -0.021 A 
HETATM   21  C15 UNL     1      25.493   3.684  49.379  1.00  0.00    -0.004 C 
HETATM   22  C20 UNL     1      25.158   6.114  50.264  1.00  0.00     0.037 A 
HETATM   23  C16 UNL     1      24.534   2.757  50.051  1.00  0.00     0.106 C 
HETATM   24  S1  UNL     1      22.812   3.218  49.754  1.00  0.00    -0.138 SA
HETATM   25  C17 UNL     1      22.232   4.443  50.893  1.00  0.00     0.047 C 
HETATM   26  C18 UNL     1      22.783   5.532  51.411  1.00  0.00     0.039 C 
HETATM   27  C19 UNL     1      24.101   6.198  51.269  1.00  0.00     0.062 C 
HETATM   28  N4  UNL     1      24.352   6.996  52.228  1.00  0.00    -0.299 NA
HETATM   29  H21 UNL     1      25.114   7.595  52.460  1.00  0.00     0.187 HD
HETATM   30  C21 UNL     1      25.760   7.251  49.965  1.00  0.00     0.105 A 
BRANCH  30  31
HETATM   31  O3  UNL     1      25.475   8.492  50.510  1.00  0.00    -0.357 OA
HETATM   32  H22 UNL     1      26.218   9.017  50.939  1.00  0.00     0.217 HD
ENDBRANCH  30  31
ENDBRANCH   1  18
TORSDOF 5
ENDMDL
MODEL 3
REMARK VINA RESULT:      -8.3      5.654      8.509
REMARK  5 active torsions:
REMARK  status: ('A' for Active; 'I' for Inactive)
REMARK    1  A    between atoms: C4_4  and  O1_5 
REMARK    2  A    between atoms: C6_7  and  O2_8 
REMARK    3  A    between atoms: C11_15  and  N3_16 
REMARK    4  A    between atoms: N3_16  and  C12_17 
REMARK    5  A    between atoms: C21_28  and  O3_29 
ROOT
HETATM    1  N3  UNL     1      30.729   8.074  47.398  1.00  0.00    -0.338 N 
HETATM    2  H14 UNL     1      30.737   8.853  46.672  1.00  0.00     0.167 HD
ENDROOT
BRANCH   1   3
HETATM    3  C11 UNL     1      31.988   7.442  47.605  1.00  0.00     0.135 C 
HETATM    4  C2  UNL     1      32.128   6.276  46.833  1.00  0.00    -0.013 C 
HETATM    5  C1  UNL     1      32.326   6.728  45.431  1.00  0.00     0.052 C 
HETATM    6  C3  UNL     1      32.104   4.926  47.076  1.00  0.00     0.050 C 
HETATM    7  C4  UNL     1      32.899   3.898  47.449  1.00  0.00     0.102 C 
HETATM    8  C6  UNL     1      34.159   4.215  47.920  1.00  0.00     0.102 C 
HETATM    9  C8  UNL     1      34.875   5.044  48.751  1.00  0.00     0.059 C 
HETATM   10  C9  UNL     1      35.295   6.242  48.232  1.00  0.00     0.121 C 
HETATM   11  N1  UNL     1      34.777   7.397  47.773  1.00  0.00    -0.254 NA
HETATM   12  C10 UNL     1      34.015   8.149  48.584  1.00  0.00     0.234 C 
HETATM   13  N2  UNL     1      32.652   8.188  48.507  1.00  0.00    -0.224 NA
BRANCH   7  14
HETATM   14  O1  UNL     1      32.594   2.591  47.414  1.00  0.00    -0.353 OA
HETATM   15  C5  UNL     1      31.731   1.984  46.506  1.00  0.00     0.210 C 
ENDBRANCH   7  14
BRANCH   8  16
HETATM   16  O2  UNL     1      35.155   3.425  47.385  1.00  0.00    -0.353 OA
HETATM   17  C7  UNL     1      35.443   3.264  46.026  1.00  0.00     0.210 C 
ENDBRANCH   8  16
ENDBRANCH   1   3
BRANCH   1  18
HETATM   18  C12 UNL     1      29.462   7.805  48.015  1.00  0.00     0.069 A 
HETATM   19  C13 UNL     1      28.831   6.642  47.881  1.00  0.00     0.044 A 
HETATM   20  C14 UNL     1      27.590   6.730  48.634  1.00  0.00    -0.021 A 
HETATM   21  C15 UNL     1      26.777   5.664  48.637  1.00  0.00    -0.004 C 
HETATM   22  C20 UNL     1      27.599   8.073  49.202  1.00  0.00     0.037 A 
HETATM   23  C16 UNL     1      25.455   5.409  49.285  1.00  0.00     0.106 C 
HETATM   24  S1  UNL     1      24.184   6.568  48.729  1.00  0.00    -0.138 SA
HETATM   25  C17 UNL     1      24.200   8.082  49.647  1.00  0.00     0.047 C 
HETATM   26  C18 UNL     1      25.176   8.853  50.106  1.00  0.00     0.039 C 
HETATM   27  C19 UNL     1      26.658   8.796  50.054  1.00  0.00     0.062 C 
HETATM   28  N4  UNL     1      27.206   9.522  50.944  1.00  0.00    -0.299 NA
HETATM   29  H21 UNL     1      28.148   9.724  51.201  1.00  0.00     0.187 HD
HETATM   30  C21 UNL     1      28.688   8.736  48.857  1.00  0.00     0.105 A 
BRANCH  30  31
HETATM   31  O3  UNL     1      29.004  10.033  49.223  1.00  0.00    -0.357 OA
HETATM   32  H22 UNL     1      29.720  10.185  49.912  1.00  0.00     0.217 HD
ENDBRANCH  30  31
ENDBRANCH   1  18
TORSDOF 5
ENDMDL
MODEL 4
REMARK VINA RESULT:      -8.3      2.237      3.051
REMARK  5 active torsions:
REMARK  status: ('A' for Active; 'I' for Inactive)
REMARK    1  A    between atoms: C4_4  and  O1_5 
REMARK    2  A    between atoms: C6_7  and  O2_8 
REMARK    3  A    between atoms: C11_15  and  N3_16 
REMARK    4  A    between atoms: N3_16  and  C12_17 
REMARK    5  A    between atoms: C21_28  and  O3_29 
ROOT
HETATM    1  N3  UNL     1      25.278   3.028  50.484  1.00  0.00    -0.338 N 
HETATM    2  H14 UNL     1      25.979   2.257  50.698  1.00  0.00     0.167 HD
ENDROOT
BRANCH   1   3
HETATM    3  C11 UNL     1      23.918   2.680  50.723  1.00  0.00     0.135 C 
HETATM    4  C2  UNL     1      23.728   2.143  52.008  1.00  0.00    -0.013 C 
HETATM    5  C1  UNL     1      23.843   3.283  52.956  1.00  0.00     0.052 C 
HETATM    6  C3  UNL     1      23.496   0.895  52.528  1.00  0.00     0.050 C 
HETATM    7  C4  UNL     1      22.498   0.030  52.814  1.00  0.00     0.102 C 
HETATM    8  C6  UNL     1      21.242   0.332  52.322  1.00  0.00     0.102 C 
HETATM    9  C8  UNL     1      20.537   0.752  51.217  1.00  0.00     0.059 C 
HETATM   10  C9  UNL     1      20.405   2.105  51.034  1.00  0.00     0.121 C 
HETATM   11  N1  UNL     1      21.169   3.181  50.768  1.00  0.00    -0.254 NA
HETATM   12  C10 UNL     1      21.893   3.216  49.638  1.00  0.00     0.234 C 
HETATM   13  N2  UNL     1      23.238   2.983  49.603  1.00  0.00    -0.224 NA
BRANCH   7  14
HETATM   14  O1  UNL     1      22.593  -1.102  53.530  1.00  0.00    -0.353 OA
HETATM   15  C5  UNL     1      22.976  -1.187  54.865  1.00  0.00     0.210 C 
ENDBRANCH   7  14
BRANCH   8  16
HETATM   16  O2  UNL     1      20.239   0.176  53.254  1.00  0.00    -0.353 OA
HETATM   17  C7  UNL     1      19.149  -0.694  53.159  1.00  0.00     0.210 C 
ENDBRANCH   8  16
ENDBRANCH   1   3
BRANCH   1  18
HETATM   18  C12 UNL     1      25.830   4.258  49.990  1.00  0.00     0.069 A 
HETATM   19  C13 UNL     1      26.851   4.294  49.138  1.00  0.00     0.044 A 
HETATM   20  C14 UNL     1      27.138   5.692  48.862  1.00  0.00    -0.021 A 
HETATM   21  C15 UNL     1      28.145   5.977  48.024  1.00  0.00    -0.004 C 
HETATM   22  C20 UNL     1      26.163   6.432  49.656  1.00  0.00     0.037 A 
HETATM   23  C16 UNL     1      28.707   7.269  47.528  1.00  0.00     0.106 C 
HETATM   24  S1  UNL     1      29.328   8.308  48.870  1.00  0.00    -0.138 SA
HETATM   25  C17 UNL     1      28.055   9.291  49.610  1.00  0.00     0.047 C 
HETATM   26  C18 UNL     1      26.794   9.043  49.937  1.00  0.00     0.039 C 
HETATM   27  C19 UNL     1      25.906   7.860  49.833  1.00  0.00     0.062 C 
HETATM   28  N4  UNL     1      24.673   8.165  49.907  1.00  0.00    -0.299 NA
HETATM   29  H21 UNL     1      23.820   7.650  49.876  1.00  0.00     0.187 HD
HETATM   30  C21 UNL     1      25.377   5.617  50.335  1.00  0.00     0.105 A 
BRANCH  30  31
HETATM   31  O3  UNL     1      24.352   5.994  51.187  1.00  0.00    -0.357 OA
HETATM   32  H22 UNL     1      23.445   6.190  50.801  1.00  0.00     0.217 HD
ENDBRANCH  30  31
ENDBRANCH   1  18
TORSDOF 5
ENDMDL
MODEL 5
REMARK VINA RESULT:      -8.3      4.514      7.907
REMARK  5 active torsions:
REMARK  status: ('A' for Active; 'I' for Inactive)
REMARK    1  A    between atoms: C4_4  and  O1_5 
REMARK    2  A    between atoms: C6_7  and  O2_8 
REMARK    3  A    between atoms: C11_15  and  N3_16 
REMARK    4  A    between atoms: N3_16  and  C12_17 
REMARK    5  A    between atoms: C21_28  and  O3_29 
ROOT
HETATM    1  N3  UNL     1      22.321   1.633  52.575  1.00  0.00    -0.338 N 
HETATM    2  H14 UNL     1      21.787   1.540  53.491  1.00  0.00     0.167 HD
ENDROOT
BRANCH   1   3
HETATM    3  C11 UNL     1      21.527   2.030  51.462  1.00  0.00     0.135 C 
HETATM    4  C2  UNL     1      20.727   3.148  51.753  1.00  0.00    -0.013 C 
HETATM    5  C1  UNL     1      21.648   4.314  51.806  1.00  0.00     0.052 C 
HETATM    6  C3  UNL     1      19.395   3.369  51.996  1.00  0.00     0.050 C 
HETATM    7  C4  UNL     1      18.224   3.610  51.365  1.00  0.00     0.102 C 
HETATM    8  C6  UNL     1      18.206   3.458  49.991  1.00  0.00     0.102 C 
HETATM    9  C8  UNL     1      18.582   2.651  48.943  1.00  0.00     0.059 C 
HETATM   10  C9  UNL     1      19.836   2.846  48.421  1.00  0.00     0.121 C 
HETATM   11  N1  UNL     1      21.126   2.722  48.783  1.00  0.00    -0.254 NA
HETATM   12  C10 UNL     1      21.597   1.521  49.158  1.00  0.00     0.234 C 
HETATM   13  N2  UNL     1      21.806   1.173  50.462  1.00  0.00    -0.224 NA
BRANCH   7  14
HETATM   14  O1  UNL     1      17.066   3.983  51.932  1.00  0.00    -0.353 OA
HETATM   15  C5  UNL     1      15.933   3.184  52.061  1.00  0.00     0.210 C 
ENDBRANCH   7  14
BRANCH   8  16
HETATM   16  O2  UNL     1      17.573   4.493  49.337  1.00  0.00    -0.353 OA
HETATM   17  C7  UNL     1      16.451   4.385  48.509  1.00  0.00     0.210 C 
ENDBRANCH   8  16
ENDBRANCH   1   3
BRANCH   1  18
HETATM   18  C12 UNL     1      23.723   1.334  52.633  1.00  0.00     0.069 A 
HETATM   19  C13 UNL     1      24.187   0.123  52.930  1.00  0.00     0.044 A 
HETATM   20  C14 UNL     1      25.638   0.193  52.898  1.00  0.00    -0.021 A 
HETATM   21  C15 UNL     1      26.330  -0.922  53.175  1.00  0.00    -0.004 C 
HETATM   22  C20 UNL     1      25.933   1.579  52.551  1.00  0.00     0.037 A 
HETATM   23  C16 UNL     1      27.795  -1.208  53.236  1.00  0.00     0.106 C 
HETATM   24  S1  UNL     1      28.642  -0.193  54.468  1.00  0.00    -0.138 SA
HETATM   25  C17 UNL     1      29.106   1.394  53.835  1.00  0.00     0.047 C 
HETATM   26  C18 UNL     1      28.497   2.268  53.045  1.00  0.00     0.039 C 
HETATM   27  C19 UNL     1      27.184   2.308  52.356  1.00  0.00     0.062 C 
HETATM   28  N4  UNL     1      27.159   3.146  51.399  1.00  0.00    -0.299 NA
HETATM   29  H21 UNL     1      26.472   3.434  50.737  1.00  0.00     0.187 HD
HETATM   30  C21 UNL     1      24.826   2.281  52.389  1.00  0.00     0.105 A 
BRANCH  30  31
HETATM   31  O3  UNL     1      24.754   3.624  52.061  1.00  0.00    -0.357 OA
HETATM   32  H22 UNL     1      25.564   4.076  51.674  1.00  0.00     0.217 HD
ENDBRANCH  30  31
ENDBRANCH   1  18
TORSDOF 5
ENDMDL
MODEL 6
REMARK VINA RESULT:      -8.2      3.770      7.403
REMARK  5 active torsions:
REMARK  status: ('A' for Active; 'I' for Inactive)
REMARK    1  A    between atoms: C4_4  and  O1_5 
REMARK    2  A    between atoms: C6_7  and  O2_8 
REMARK    3  A    between atoms: C11_15  and  N3_16 
REMARK    4  A    between atoms: N3_16  and  C12_17 
REMARK    5  A    between atoms: C21_28  and  O3_29 
ROOT
HETATM    1  N3  UNL     1      22.166   1.556  52.832  1.00  0.00    -0.338 N 
HETATM    2  H14 UNL     1      21.632   1.153  53.660  1.00  0.00     0.167 HD
ENDROOT
BRANCH   1   3
HETATM    3  C11 UNL     1      21.370   2.299  51.915  1.00  0.00     0.135 C 
HETATM    4  C2  UNL     1      21.878   2.243  50.606  1.00  0.00    -0.013 C 
HETATM    5  C1  UNL     1      21.586   0.874  50.106  1.00  0.00     0.052 C 
HETATM    6  C3  UNL     1      22.545   3.104  49.772  1.00  0.00     0.050 C 
HETATM    7  C4  UNL     1      22.334   4.086  48.867  1.00  0.00     0.102 C 
HETATM    8  C6  UNL     1      21.049   4.589  48.771  1.00  0.00     0.102 C 
HETATM    9  C8  UNL     1      19.960   5.036  49.482  1.00  0.00     0.059 C 
HETATM   10  C9  UNL     1      19.044   4.096  49.883  1.00  0.00     0.121 C 
HETATM   11  N1  UNL     1      18.959   3.037  50.709  1.00  0.00    -0.254 NA
HETATM   12  C10 UNL     1      19.191   3.200  52.022  1.00  0.00     0.234 C 
HETATM   13  N2  UNL     1      20.361   2.836  52.626  1.00  0.00    -0.224 NA
BRANCH   7  14
HETATM   14  O1  UNL     1      23.243   4.632  48.044  1.00  0.00    -0.353 OA
HETATM   15  C5  UNL     1      23.989   5.777  48.306  1.00  0.00     0.210 C 
ENDBRANCH   7  14
BRANCH   8  16
HETATM   16  O2  UNL     1      20.613   4.726  47.471  1.00  0.00    -0.353 OA
HETATM   17  C7  UNL     1      20.355   3.687  46.571  1.00  0.00     0.210 C 
ENDBRANCH   8  16
ENDBRANCH   1   3
BRANCH   1  18
HETATM   18  C12 UNL     1      23.572   1.267  52.792  1.00  0.00     0.069 A 
HETATM   19  C13 UNL     1      24.056   0.039  52.952  1.00  0.00     0.044 A 
HETATM   20  C14 UNL     1      25.504   0.126  52.854  1.00  0.00    -0.021 A 
HETATM   21  C15 UNL     1      26.216  -1.002  52.992  1.00  0.00    -0.004 C 
HETATM   22  C20 UNL     1      25.773   1.541  52.622  1.00  0.00     0.037 A 
HETATM   23  C16 UNL     1      27.683  -1.278  52.953  1.00  0.00     0.106 C 
HETATM   24  S1  UNL     1      28.586  -0.371  54.229  1.00  0.00    -0.138 SA
HETATM   25  C17 UNL     1      29.008   1.272  53.723  1.00  0.00     0.047 C 
HETATM   26  C18 UNL     1      28.355   2.209  53.049  1.00  0.00     0.039 C 
HETATM   27  C19 UNL     1      27.008   2.298  52.434  1.00  0.00     0.062 C 
HETATM   28  N4  UNL     1      26.930   3.221  51.561  1.00  0.00    -0.299 NA
HETATM   29  H21 UNL     1      26.208   3.561  50.963  1.00  0.00     0.187 HD
HETATM   30  C21 UNL     1      24.656   2.243  52.582  1.00  0.00     0.105 A 
BRANCH  30  31
HETATM   31  O3  UNL     1      24.559   3.611  52.384  1.00  0.00    -0.357 OA
HETATM   32  H22 UNL     1      23.647   4.034  52.342  1.00  0.00     0.217 HD
ENDBRANCH  30  31
ENDBRANCH   1  18
TORSDOF 5
ENDMDL
MODEL 7
REMARK VINA RESULT:      -8.2      2.393      3.277
REMARK  5 active torsions:
REMARK  status: ('A' for Active; 'I' for Inactive)
REMARK    1  A    between atoms: C4_4  and  O1_5 
REMARK    2  A    between atoms: C6_7  and  O2_8 
REMARK    3  A    between atoms: C11_15  and  N3_16 
REMARK    4  A    between atoms: N3_16  and  C12_17 
REMARK    5  A    between atoms: C21_28  and  O3_29 
ROOT
HETATM    1  N3  UNL     1      25.296   3.253  50.036  1.00  0.00    -0.338 N 
HETATM    2  H14 UNL     1      26.179   2.674  50.170  1.00  0.00     0.167 HD
ENDROOT
BRANCH   1   3
HETATM    3  C11 UNL     1      24.103   2.638  50.509  1.00  0.00     0.135 C 
HETATM    4  C2  UNL     1      24.177   2.319  51.875  1.00  0.00    -0.013 C 
HETATM    5  C1  UNL     1      24.078   3.608  52.610  1.00  0.00     0.052 C 
HETATM    6  C3  UNL     1      24.328   1.170  52.610  1.00  0.00     0.050 C 
HETATM    7  C4  UNL     1      23.620   0.158  53.160  1.00  0.00     0.102 C 
HETATM    8  C6  UNL     1      22.289   0.053  52.802  1.00  0.00     0.102 C 
HETATM    9  C8  UNL     1      21.401   0.078  51.751  1.00  0.00     0.059 C 
HETATM   10  C9  UNL     1      20.904   1.302  51.380  1.00  0.00     0.121 C 
HETATM   11  N1  UNL     1      21.334   2.462  50.848  1.00  0.00    -0.254 NA
HETATM   12  C10 UNL     1      21.917   2.461  49.638  1.00  0.00     0.234 C 
HETATM   13  N2  UNL     1      23.267   2.556  49.458  1.00  0.00    -0.224 NA
BRANCH   7  14
HETATM   14  O1  UNL     1      24.072  -0.766  54.023  1.00  0.00    -0.353 OA
HETATM   15  C5  UNL     1      25.278  -0.706  54.716  1.00  0.00     0.210 C 
ENDBRANCH   7  14
BRANCH   8  16
HETATM   16  O2  UNL     1      21.451  -0.165  53.874  1.00  0.00    -0.353 OA
HETATM   17  C7  UNL     1      20.636  -1.283  54.073  1.00  0.00     0.210 C 
ENDBRANCH   8  16
ENDBRANCH   1   3
BRANCH   1  18
HETATM   18  C12 UNL     1      25.475   4.528  49.401  1.00  0.00     0.069 A 
HETATM   19  C13 UNL     1      24.452   5.276  48.994  1.00  0.00     0.044 A 
HETATM   20  C14 UNL     1      25.005   6.484  48.403  1.00  0.00    -0.021 A 
HETATM   21  C15 UNL     1      24.152   7.393  47.911  1.00  0.00    -0.004 C 
HETATM   22  C20 UNL     1      26.450   6.325  48.525  1.00  0.00     0.037 A 
HETATM   23  C16 UNL     1      24.362   8.715  47.247  1.00  0.00     0.106 C 
HETATM   24  S1  UNL     1      25.326   8.572  45.725  1.00  0.00    -0.138 SA
HETATM   25  C17 UNL     1      27.071   8.587  46.024  1.00  0.00     0.047 C 
HETATM   26  C18 UNL     1      27.835   8.032  46.955  1.00  0.00     0.039 C 
HETATM   27  C19 UNL     1      27.577   7.170  48.134  1.00  0.00     0.062 C 
HETATM   28  N4  UNL     1      28.536   7.184  48.970  1.00  0.00    -0.299 NA
HETATM   29  H21 UNL     1      28.708   6.742  49.847  1.00  0.00     0.187 HD
HETATM   30  C21 UNL     1      26.762   5.183  49.108  1.00  0.00     0.105 A 
BRANCH  30  31
HETATM   31  O3  UNL     1      28.042   4.724  49.371  1.00  0.00    -0.357 OA
HETATM   32  H22 UNL     1      28.664   4.548  48.601  1.00  0.00     0.217 HD
ENDBRANCH  30  31
ENDBRANCH   1  18
TORSDOF 5
ENDMDL
MODEL 8
REMARK VINA RESULT:      -7.9      7.164      9.969
REMARK  5 active torsions:
REMARK  status: ('A' for Active; 'I' for Inactive)
REMARK    1  A    between atoms: C4_4  and  O1_5 
REMARK    2  A    between atoms: C6_7  and  O2_8 
REMARK    3  A    between atoms: C11_15  and  N3_16 
REMARK    4  A    between atoms: N3_16  and  C12_17 
REMARK    5  A    between atoms: C21_28  and  O3_29 
ROOT
HETATM    1  N3  UNL     1      18.286   2.270  50.514  1.00  0.00    -0.338 N 
HETATM    2  H14 UNL     1      18.154   2.163  49.464  1.00  0.00     0.167 HD
ENDROOT
BRANCH   1   3
HETATM    3  C11 UNL     1      19.637   2.437  50.931  1.00  0.00     0.135 C 
HETATM    4  C2  UNL     1      20.387   1.259  50.777  1.00  0.00    -0.013 C 
HETATM    5  C1  UNL     1      20.615   1.099  49.317  1.00  0.00     0.052 C 
HETATM    6  C3  UNL     1      20.894   0.299  51.617  1.00  0.00     0.050 C 
HETATM    7  C4  UNL     1      21.971   0.018  52.384  1.00  0.00     0.102 C 
HETATM    8  C6  UNL     1      22.878   1.040  52.596  1.00  0.00     0.102 C 
HETATM    9  C8  UNL     1      23.021   2.370  52.917  1.00  0.00     0.059 C 
HETATM   10  C9  UNL     1      22.978   3.272  51.884  1.00  0.00     0.121 C 
HETATM   11  N1  UNL     1      22.109   3.741  50.970  1.00  0.00    -0.254 NA
HETATM   12  C10 UNL     1      20.973   4.331  51.377  1.00  0.00     0.234 C 
HETATM   13  N2  UNL     1      19.757   3.709  51.354  1.00  0.00    -0.224 NA
BRANCH   7  14
HETATM   14  O1  UNL     1      22.259  -1.155  52.970  1.00  0.00    -0.353 OA
HETATM   15  C5  UNL     1      21.950  -1.503  54.282  1.00  0.00     0.210 C 
ENDBRANCH   7  14
BRANCH   8  16
HETATM   16  O2  UNL     1      24.189   0.645  52.439  1.00  0.00    -0.353 OA
HETATM   17  C7  UNL     1      25.186   0.679  53.420  1.00  0.00     0.210 C 
ENDBRANCH   8  16
ENDBRANCH   1   3
BRANCH   1  18
HETATM   18  C12 UNL     1      17.089   2.216  51.305  1.00  0.00     0.069 A 
HETATM   19  C13 UNL     1      16.431   1.083  51.534  1.00  0.00     0.044 A 
HETATM   20  C14 UNL     1      15.281   1.407  52.362  1.00  0.00    -0.021 A 
HETATM   21  C15 UNL     1      14.458   0.410  52.717  1.00  0.00    -0.004 C 
HETATM   22  C20 UNL     1      15.370   2.849  52.568  1.00  0.00     0.037 A 
HETATM   23  C16 UNL     1      13.210   0.379  53.538  1.00  0.00     0.106 C 
HETATM   24  S1  UNL     1      11.903   1.413  52.839  1.00  0.00    -0.138 SA
HETATM   25  C17 UNL     1      12.039   3.107  53.337  1.00  0.00     0.047 C 
HETATM   26  C18 UNL     1      13.070   3.928  53.484  1.00  0.00     0.039 C 
HETATM   27  C19 UNL     1      14.536   3.800  53.300  1.00  0.00     0.062 C 
HETATM   28  N4  UNL     1      15.188   4.702  53.916  1.00  0.00    -0.299 NA
HETATM   29  H21 UNL     1      16.154   4.923  54.017  1.00  0.00     0.187 HD
HETATM   30  C21 UNL     1      16.424   3.359  51.957  1.00  0.00     0.105 A 
BRANCH  30  31
HETATM   31  O3  UNL     1      16.795   4.693  51.949  1.00  0.00    -0.357 OA
HETATM   32  H22 UNL     1      16.096   5.392  51.768  1.00  0.00     0.217 HD
ENDBRANCH  30  31
ENDBRANCH   1  18
TORSDOF 5
ENDMDL
MODEL 9
REMARK VINA RESULT:      -7.8      2.895      4.538
REMARK  5 active torsions:
REMARK  status: ('A' for Active; 'I' for Inactive)
REMARK    1  A    between atoms: C4_4  and  O1_5 
REMARK    2  A    between atoms: C6_7  and  O2_8 
REMARK    3  A    between atoms: C11_15  and  N3_16 
REMARK    4  A    between atoms: N3_16  and  C12_17 
REMARK    5  A    between atoms: C21_28  and  O3_29 
ROOT
HETATM    1  N3  UNL     1      24.009   6.219  49.196  1.00  0.00    -0.338 N 
HETATM    2  H14 UNL     1      23.058   6.588  48.893  1.00  0.00     0.167 HD
ENDROOT
BRANCH   1   3
HETATM    3  C11 UNL     1      23.970   4.994  49.920  1.00  0.00     0.135 C 
HETATM    4  C2  UNL     1      22.695   4.404  49.894  1.00  0.00    -0.013 C 
HETATM    5  C1  UNL     1      22.515   3.865  48.521  1.00  0.00     0.052 C 
HETATM    6  C3  UNL     1      21.663   4.251  50.786  1.00  0.00     0.050 C 
HETATM    7  C4  UNL     1      21.219   3.436  51.769  1.00  0.00     0.102 C 
HETATM    8  C6  UNL     1      22.093   2.469  52.229  1.00  0.00     0.102 C 
HETATM    9  C8  UNL     1      23.384   2.218  52.631  1.00  0.00     0.059 C 
HETATM   10  C9  UNL     1      24.291   1.887  51.656  1.00  0.00     0.121 C 
HETATM   11  N1  UNL     1      24.892   2.441  50.587  1.00  0.00    -0.254 NA
HETATM   12  C10 UNL     1      25.640   3.545  50.745  1.00  0.00     0.234 C 
HETATM   13  N2  UNL     1      25.206   4.797  50.415  1.00  0.00    -0.224 NA
BRANCH   7  14
HETATM   14  O1  UNL     1      20.011   3.465  52.354  1.00  0.00    -0.353 OA
HETATM   15  C5  UNL     1      18.788   3.401  51.692  1.00  0.00     0.210 C 
ENDBRANCH   7  14
BRANCH   8  16
HETATM   16  O2  UNL     1      21.509   1.227  52.363  1.00  0.00    -0.353 OA
HETATM   17  C7  UNL     1      21.405   0.486  53.544  1.00  0.00     0.210 C 
ENDBRANCH   8  16
ENDBRANCH   1   3
BRANCH   1  18
HETATM   18  C12 UNL     1      25.139   7.025  48.829  1.00  0.00     0.069 A 
HETATM   19  C13 UNL     1      25.439   7.305  47.563  1.00  0.00     0.044 A 
HETATM   20  C14 UNL     1      26.634   8.133  47.573  1.00  0.00    -0.021 A 
HETATM   21  C15 UNL     1      27.132   8.537  46.395  1.00  0.00    -0.004 C 
HETATM   22  C20 UNL     1      26.967   8.282  48.986  1.00  0.00     0.037 A 
HETATM   23  C16 UNL     1      28.317   9.373  46.037  1.00  0.00     0.106 C 
HETATM   24  S1  UNL     1      29.868   8.650  46.618  1.00  0.00    -0.138 SA
HETATM   25  C17 UNL     1      30.230   9.080  48.296  1.00  0.00     0.047 C 
HETATM   26  C18 UNL     1      29.482   9.183  49.387  1.00  0.00     0.039 C 
HETATM   27  C19 UNL     1      28.042   8.987  49.682  1.00  0.00     0.062 C 
HETATM   28  N4  UNL     1      27.681   9.560  50.759  1.00  0.00    -0.299 NA
HETATM   29  H21 UNL     1      26.820   9.641  51.255  1.00  0.00     0.187 HD
HETATM   30  C21 UNL     1      26.107   7.640  49.754  1.00  0.00     0.105 A 
BRANCH  30  31
HETATM   31  O3  UNL     1      26.139   7.576  51.137  1.00  0.00    -0.357 OA
HETATM   32  H22 UNL     1      26.407   8.394  51.657  1.00  0.00     0.217 HD
ENDBRANCH  30  31
ENDBRANCH   1  18
TORSDOF 5
ENDMDL
