MODEL 1
REMARK VINA RESULT:      -7.4      0.000      0.000
REMARK  0 active torsions:
REMARK  status: ('A' for Active; 'I' for Inactive)
ROOT
HETATM    1  O1  UNL     1      24.622   4.015  51.965  1.00  0.00    -0.247 OA
HETATM    2  C1  UNL     1      24.478   4.075  53.160  1.00  0.00     0.320 C 
HETATM    3  N1  UNL     1      25.058   2.976  53.699  1.00  0.00    -0.341 N 
HETATM    4  C2  UNL     1      25.785   1.763  53.698  1.00  0.00     0.144 C 
HETATM    5  C3  UNL     1      25.317   0.611  52.893  1.00  0.00     0.141 C 
HETATM    6  N2  UNL     1      24.058   0.021  53.173  1.00  0.00    -0.373 N 
HETATM    7  C4  UNL     1      22.676   0.195  53.093  1.00  0.00     0.127 A 
HETATM    8  C5  UNL     1      22.228   0.611  51.823  1.00  0.00     0.081 A 
HETATM    9  C6  UNL     1      20.870   0.834  51.474  1.00  0.00     0.061 A 
HETATM   10  N3  UNL     1      19.972   0.624  52.445  1.00  0.00    -0.242 NA
HETATM   11  C7  UNL     1      20.426   0.220  53.676  1.00  0.00     0.235 A 
HETATM   12  N4  UNL     1      21.731   0.004  54.021  1.00  0.00    -0.225 NA
HETATM   13  C8  UNL     1      20.782   1.260  50.070  1.00  0.00     0.030 C 
HETATM   14  C9  UNL     1      20.811   1.002  48.797  1.00  0.00     0.001 C 
HETATM   15  C10 UNL     1      20.584   2.331  48.046  1.00  0.00     0.195 C 
HETATM   16  O2  UNL     1      20.406   3.300  49.001  1.00  0.00    -0.387 OA
HETATM   17  C11 UNL     1      20.451   4.610  48.695  1.00  0.00     0.168 C 
HETATM   18  C12 UNL     1      19.986   5.418  49.929  1.00  0.00     0.031 C 
HETATM   19  C13 UNL     1      20.440   6.835  49.852  1.00  0.00     0.048 C 
HETATM   20  C14 UNL     1      21.943   6.780  50.029  1.00  0.00    -0.015 A 
HETATM   21  C15 UNL     1      22.186   6.091  51.283  1.00  0.00     0.044 A 
HETATM   22  C16 UNL     1      23.507   5.926  51.653  1.00  0.00     0.043 A 
HETATM   23  C17 UNL     1      24.484   6.452  50.768  1.00  0.00     0.079 A 
HETATM   24  S1  UNL     1      23.539   7.171  49.418  1.00  0.00    -0.104 SA
HETATM   25  N5  UNL     1      23.834   5.248  52.853  1.00  0.00    -0.308 N 
HETATM   26  H1  UNL     1      24.661   3.430  54.568  1.00  0.00     0.164 HD
HETATM   27  H6  UNL     1      24.069  -0.946  53.628  1.00  0.00     0.161 HD
HETATM   28  H21 UNL     1      23.476   5.921  53.532  1.00  0.00     0.170 HD
ENDROOT
TORSDOF 0
ENDMDL
MODEL 2
REMARK VINA RESULT:      -7.3      2.933      6.076
REMARK  0 active torsions:
REMARK  status: ('A' for Active; 'I' for Inactive)
ROOT
HETATM    1  O1  UNL     1      25.357   3.565  52.011  1.00  0.00    -0.247 OA
HETATM    2  C1  UNL     1      25.307   3.723  50.817  1.00  0.00     0.320 C 
HETATM    3  N1  UNL     1      24.389   4.688  50.568  1.00  0.00    -0.341 N 
HETATM    4  C2  UNL     1      23.432   5.678  50.888  1.00  0.00     0.144 C 
HETATM    5  C3  UNL     1      22.241   5.334  51.700  1.00  0.00     0.141 C 
HETATM    6  N2  UNL     1      21.305   4.387  51.211  1.00  0.00    -0.373 N 
HETATM    7  C4  UNL     1      21.086   3.035  50.946  1.00  0.00     0.127 A 
HETATM    8  C5  UNL     1      21.430   2.183  52.016  1.00  0.00     0.081 A 
HETATM    9  C6  UNL     1      21.280   0.771  52.010  1.00  0.00     0.061 A 
HETATM   10  N3  UNL     1      20.771   0.240  50.891  1.00  0.00    -0.242 NA
HETATM   11  C7  UNL     1      20.443   1.084  49.859  1.00  0.00     0.235 A 
HETATM   12  N4  UNL     1      20.585   2.443  49.856  1.00  0.00    -0.225 NA
HETATM   13  C8  UNL     1      21.740   0.218  53.290  1.00  0.00     0.030 C 
HETATM   14  C9  UNL     1      21.573  -0.016  54.558  1.00  0.00     0.001 C 
HETATM   15  C10 UNL     1      22.823  -0.765  55.064  1.00  0.00     0.195 C 
HETATM   16  O2  UNL     1      23.647  -0.936  53.981  1.00  0.00    -0.387 OA
HETATM   17  C11 UNL     1      24.932  -1.313  54.124  1.00  0.00     0.168 C 
HETATM   18  C12 UNL     1      25.506  -1.638  52.725  1.00  0.00     0.031 C 
HETATM   19  C13 UNL     1      26.996  -1.602  52.728  1.00  0.00     0.048 C 
HETATM   20  C14 UNL     1      27.356  -0.143  52.914  1.00  0.00    -0.015 A 
HETATM   21  C15 UNL     1      26.696   0.585  51.846  1.00  0.00     0.044 A 
HETATM   22  C16 UNL     1      26.890   1.952  51.815  1.00  0.00     0.043 A 
HETATM   23  C17 UNL     1      27.718   2.498  52.831  1.00  0.00     0.079 A 
HETATM   24  S1  UNL     1      28.215   1.084  53.825  1.00  0.00    -0.104 SA
HETATM   25  N5  UNL     1      26.266   2.741  50.818  1.00  0.00    -0.308 N 
HETATM   26  H1  UNL     1      24.663   4.424  49.582  1.00  0.00     0.164 HD
HETATM   27  H6  UNL     1      20.357   4.765  50.895  1.00  0.00     0.161 HD
HETATM   28  H21 UNL     1      26.772   2.408  49.996  1.00  0.00     0.170 HD
ENDROOT
TORSDOF 0
ENDMDL
MODEL 3
REMARK VINA RESULT:      -7.1      9.143     12.873
REMARK  0 active torsions:
REMARK  status: ('A' for Active; 'I' for Inactive)
ROOT
HETATM    1  O1  UNL     1      30.055   6.563  47.513  1.00  0.00    -0.247 OA
HETATM    2  C1  UNL     1      29.510   6.666  48.582  1.00  0.00     0.320 C 
HETATM    3  N1  UNL     1      28.288   7.212  48.371  1.00  0.00    -0.341 N 
HETATM    4  C2  UNL     1      27.216   7.731  47.609  1.00  0.00     0.144 C 
HETATM    5  C3  UNL     1      27.431   8.886  46.707  1.00  0.00     0.141 C 
HETATM    6  N2  UNL     1      27.840  10.134  47.244  1.00  0.00    -0.373 N 
HETATM    7  C4  UNL     1      28.899  10.832  47.822  1.00  0.00     0.127 A 
HETATM    8  C5  UNL     1      30.114  10.707  47.118  1.00  0.00     0.081 A 
HETATM    9  C6  UNL     1      31.333  11.338  47.483  1.00  0.00     0.061 A 
HETATM   10  N3  UNL     1      31.293  12.101  48.583  1.00  0.00    -0.242 NA
HETATM   11  C7  UNL     1      30.101  12.210  49.257  1.00  0.00     0.235 A 
HETATM   12  N4  UNL     1      28.925  11.606  48.913  1.00  0.00    -0.225 NA
HETATM   13  C8  UNL     1      32.384  10.980  46.521  1.00  0.00     0.030 C 
HETATM   14  C9  UNL     1      32.955  11.100  45.360  1.00  0.00     0.001 C 
HETATM   15  C10 UNL     1      34.167  10.145  45.335  1.00  0.00     0.195 C 
HETATM   16  O2  UNL     1      34.217   9.536  46.562  1.00  0.00    -0.387 OA
HETATM   17  C11 UNL     1      34.987   8.455  46.784  1.00  0.00     0.168 C 
HETATM   18  C12 UNL     1      34.997   8.162  48.303  1.00  0.00     0.031 C 
HETATM   19  C13 UNL     1      35.414   6.759  48.582  1.00  0.00     0.048 C 
HETATM   20  C14 UNL     1      34.275   5.899  48.077  1.00  0.00    -0.015 A 
HETATM   21  C15 UNL     1      33.076   6.363  48.752  1.00  0.00     0.044 A 
HETATM   22  C16 UNL     1      31.898   5.710  48.442  1.00  0.00     0.043 A 
HETATM   23  C17 UNL     1      31.989   4.653  47.499  1.00  0.00     0.079 A 
HETATM   24  S1  UNL     1      33.729   4.587  47.050  1.00  0.00    -0.104 SA
HETATM   25  N5  UNL     1      30.679   6.112  49.040  1.00  0.00    -0.308 N 
HETATM   26  H1  UNL     1      28.287   7.139  49.426  1.00  0.00     0.164 HD
HETATM   27  H6  UNL     1      27.112  10.917  47.251  1.00  0.00     0.161 HD
HETATM   28  H21 UNL     1      30.863   5.832  50.005  1.00  0.00     0.170 HD
ENDROOT
TORSDOF 0
ENDMDL
MODEL 4
REMARK VINA RESULT:      -7.0     10.012     12.529
REMARK  0 active torsions:
REMARK  status: ('A' for Active; 'I' for Inactive)
ROOT
HETATM    1  O1  UNL     1      32.716   9.476  44.629  1.00  0.00    -0.247 OA
HETATM    2  C1  UNL     1      33.910   9.476  44.792  1.00  0.00     0.320 C 
HETATM    3  N1  UNL     1      34.424   8.453  44.067  1.00  0.00    -0.341 N 
HETATM    4  C2  UNL     1      34.397   7.356  43.175  1.00  0.00     0.144 C 
HETATM    5  C3  UNL     1      33.549   6.177  43.465  1.00  0.00     0.141 C 
HETATM    6  N2  UNL     1      33.792   5.405  44.631  1.00  0.00    -0.373 N 
HETATM    7  C4  UNL     1      33.696   5.383  46.022  1.00  0.00     0.127 A 
HETATM    8  C5  UNL     1      32.433   5.773  46.511  1.00  0.00     0.081 A 
HETATM    9  C6  UNL     1      32.070   5.812  47.884  1.00  0.00     0.061 A 
HETATM   10  N3  UNL     1      33.021   5.445  48.752  1.00  0.00    -0.242 NA
HETATM   11  C7  UNL     1      34.245   5.069  48.258  1.00  0.00     0.235 A 
HETATM   12  N4  UNL     1      34.603   5.029  46.940  1.00  0.00    -0.225 NA
HETATM   13  C8  UNL     1      30.679   6.267  48.017  1.00  0.00     0.030 C 
HETATM   14  C9  UNL     1      29.399   6.058  47.937  1.00  0.00     0.001 C 
HETATM   15  C10 UNL     1      28.687   7.365  48.343  1.00  0.00     0.195 C 
HETATM   16  O2  UNL     1      29.668   8.266  48.668  1.00  0.00    -0.387 OA
HETATM   17  C11 UNL     1      29.403   9.579  48.807  1.00  0.00     0.168 C 
HETATM   18  C12 UNL     1      30.654  10.272  49.395  1.00  0.00     0.031 C 
HETATM   19  C13 UNL     1      30.628  11.741  49.147  1.00  0.00     0.048 C 
HETATM   20  C14 UNL     1      30.826  11.893  47.654  1.00  0.00    -0.015 A 
HETATM   21  C15 UNL     1      32.062  11.206  47.328  1.00  0.00     0.044 A 
HETATM   22  C16 UNL     1      32.447  11.218  46.001  1.00  0.00     0.043 A 
HETATM   23  C17 UNL     1      31.593  11.906  45.099  1.00  0.00     0.079 A 
HETATM   24  S1  UNL     1      30.252  12.527  46.123  1.00  0.00    -0.104 SA
HETATM   25  N5  UNL     1      33.630  10.554  45.593  1.00  0.00    -0.308 N 
HETATM   26  H1  UNL     1      35.300   8.818  44.534  1.00  0.00     0.164 HD
HETATM   27  H6  UNL     1      34.217   4.435  44.487  1.00  0.00     0.161 HD
HETATM   28  H21 UNL     1      34.324  11.147  46.052  1.00  0.00     0.170 HD
ENDROOT
TORSDOF 0
ENDMDL
MODEL 5
REMARK VINA RESULT:      -7.0      9.420     12.279
REMARK  0 active torsions:
REMARK  status: ('A' for Active; 'I' for Inactive)
ROOT
HETATM    1  O1  UNL     1      31.281   9.456  45.069  1.00  0.00    -0.247 OA
HETATM    2  C1  UNL     1      30.158   9.409  44.635  1.00  0.00     0.320 C 
HETATM    3  N1  UNL     1      29.365  10.129  45.465  1.00  0.00    -0.341 N 
HETATM    4  C2  UNL     1      29.062  10.958  46.569  1.00  0.00     0.144 C 
HETATM    5  C3  UNL     1      29.407  10.530  47.945  1.00  0.00     0.141 C 
HETATM    6  N2  UNL     1      28.821   9.356  48.485  1.00  0.00    -0.373 N 
HETATM    7  C4  UNL     1      28.801   7.963  48.427  1.00  0.00     0.127 A 
HETATM    8  C5  UNL     1      30.082   7.374  48.469  1.00  0.00     0.081 A 
HETATM    9  C6  UNL     1      30.334   5.977  48.450  1.00  0.00     0.061 A 
HETATM   10  N3  UNL     1      29.256   5.187  48.388  1.00  0.00    -0.242 NA
HETATM   11  C7  UNL     1      28.017   5.777  48.346  1.00  0.00     0.235 A 
HETATM   12  N4  UNL     1      27.764   7.120  48.363  1.00  0.00    -0.225 NA
HETATM   13  C8  UNL     1      31.782   5.734  48.506  1.00  0.00     0.030 C 
HETATM   14  C9  UNL     1      32.905   5.679  49.159  1.00  0.00     0.001 C 
HETATM   15  C10 UNL     1      34.007   5.272  48.159  1.00  0.00     0.195 C 
HETATM   16  O2  UNL     1      33.394   5.089  46.947  1.00  0.00    -0.387 OA
HETATM   17  C11 UNL     1      34.100   4.990  45.805  1.00  0.00     0.168 C 
HETATM   18  C12 UNL     1      33.142   4.559  44.670  1.00  0.00     0.031 C 
HETATM   19  C13 UNL     1      33.710   4.876  43.330  1.00  0.00     0.048 C 
HETATM   20  C14 UNL     1      33.689   6.388  43.238  1.00  0.00    -0.015 A 
HETATM   21  C15 UNL     1      32.315   6.796  43.470  1.00  0.00     0.044 A 
HETATM   22  C16 UNL     1      32.057   8.153  43.429  1.00  0.00     0.043 A 
HETATM   23  C17 UNL     1      33.163   9.001  43.162  1.00  0.00     0.079 A 
HETATM   24  S1  UNL     1      34.561   7.885  42.973  1.00  0.00    -0.104 SA
HETATM   25  N5  UNL     1      30.747   8.639  43.664  1.00  0.00    -0.308 N 
HETATM   26  H1  UNL     1      28.647   9.766  44.779  1.00  0.00     0.164 HD
HETATM   27  H6  UNL     1      28.088   9.492  49.251  1.00  0.00     0.161 HD
HETATM   28  H21 UNL     1      30.281   8.279  42.829  1.00  0.00     0.170 HD
ENDROOT
TORSDOF 0
ENDMDL
MODEL 6
REMARK VINA RESULT:      -6.9      3.336      5.956
REMARK  0 active torsions:
REMARK  status: ('A' for Active; 'I' for Inactive)
ROOT
HETATM    1  O1  UNL     1      25.977   3.653  51.062  1.00  0.00    -0.247 OA
HETATM    2  C1  UNL     1      26.416   3.322  49.990  1.00  0.00     0.320 C 
HETATM    3  N1  UNL     1      26.384   4.407  49.179  1.00  0.00    -0.341 N 
HETATM    4  C2  UNL     1      26.156   5.760  48.834  1.00  0.00     0.144 C 
HETATM    5  C3  UNL     1      24.811   6.358  48.998  1.00  0.00     0.141 C 
HETATM    6  N2  UNL     1      23.715   5.839  48.262  1.00  0.00    -0.373 N 
HETATM    7  C4  UNL     1      22.840   4.761  48.131  1.00  0.00     0.127 A 
HETATM    8  C5  UNL     1      22.249   4.357  49.346  1.00  0.00     0.081 A 
HETATM    9  C6  UNL     1      21.307   3.304  49.480  1.00  0.00     0.061 A 
HETATM   10  N3  UNL     1      20.975   2.666  48.351  1.00  0.00    -0.242 NA
HETATM   11  C7  UNL     1      21.561   3.071  47.177  1.00  0.00     0.235 A 
HETATM   12  N4  UNL     1      22.469   4.083  47.039  1.00  0.00    -0.225 NA
HETATM   13  C8  UNL     1      20.912   3.168  50.889  1.00  0.00     0.030 C 
HETATM   14  C9  UNL     1      20.243   3.569  51.929  1.00  0.00     0.001 C 
HETATM   15  C10 UNL     1      20.566   2.606  53.090  1.00  0.00     0.195 C 
HETATM   16  O2  UNL     1      21.423   1.658  52.592  1.00  0.00    -0.387 OA
HETATM   17  C11 UNL     1      22.107   0.828  53.402  1.00  0.00     0.168 C 
HETATM   18  C12 UNL     1      22.789  -0.255  52.533  1.00  0.00     0.031 C 
HETATM   19  C13 UNL     1      23.912  -0.908  53.262  1.00  0.00     0.048 C 
HETATM   20  C14 UNL     1      24.981   0.159  53.378  1.00  0.00    -0.015 A 
HETATM   21  C15 UNL     1      25.263   0.610  52.028  1.00  0.00     0.044 A 
HETATM   22  C16 UNL     1      26.224   1.593  51.890  1.00  0.00     0.043 A 
HETATM   23  C17 UNL     1      26.835   2.055  53.086  1.00  0.00     0.079 A 
HETATM   24  S1  UNL     1      26.050   1.105  54.396  1.00  0.00    -0.104 SA
HETATM   25  N5  UNL     1      26.546   2.104  50.609  1.00  0.00    -0.308 N 
HETATM   26  H1  UNL     1      26.747   3.676  48.507  1.00  0.00     0.164 HD
HETATM   27  H6  UNL     1      23.337   6.446  47.468  1.00  0.00     0.161 HD
HETATM   28  H21 UNL     1      26.988   1.278  50.203  1.00  0.00     0.170 HD
ENDROOT
TORSDOF 0
ENDMDL
MODEL 7
REMARK VINA RESULT:      -6.7      2.465      5.141
REMARK  0 active torsions:
REMARK  status: ('A' for Active; 'I' for Inactive)
ROOT
HETATM    1  O1  UNL     1      20.598   1.987  50.145  1.00  0.00    -0.247 OA
HETATM    2  C1  UNL     1      21.115   0.953  49.802  1.00  0.00     0.320 C 
HETATM    3  N1  UNL     1      21.486   0.287  50.922  1.00  0.00    -0.341 N 
HETATM    4  C2  UNL     1      21.612   0.061  52.313  1.00  0.00     0.144 C 
HETATM    5  C3  UNL     1      22.299   1.051  53.173  1.00  0.00     0.141 C 
HETATM    6  N2  UNL     1      23.670   1.344  52.953  1.00  0.00    -0.373 N 
HETATM    7  C4  UNL     1      24.578   1.971  52.100  1.00  0.00     0.127 A 
HETATM    8  C5  UNL     1      24.214   3.287  51.750  1.00  0.00     0.081 A 
HETATM    9  C6  UNL     1      24.977   4.147  50.917  1.00  0.00     0.061 A 
HETATM   10  N3  UNL     1      26.123   3.640  50.444  1.00  0.00    -0.242 NA
HETATM   11  C7  UNL     1      26.462   2.357  50.795  1.00  0.00     0.235 A 
HETATM   12  N4  UNL     1      25.733   1.522  51.595  1.00  0.00    -0.225 NA
HETATM   13  C8  UNL     1      24.290   5.437  50.772  1.00  0.00     0.030 C 
HETATM   14  C9  UNL     1      23.940   6.600  51.234  1.00  0.00     0.001 C 
HETATM   15  C10 UNL     1      23.099   7.301  50.147  1.00  0.00     0.195 C 
HETATM   16  O2  UNL     1      23.050   6.448  49.073  1.00  0.00    -0.387 OA
HETATM   17  C11 UNL     1      22.181   6.634  48.063  1.00  0.00     0.168 C 
HETATM   18  C12 UNL     1      22.539   5.653  46.921  1.00  0.00     0.031 C 
HETATM   19  C13 UNL     1      21.389   5.457  45.994  1.00  0.00     0.048 C 
HETATM   20  C14 UNL     1      20.361   4.686  46.795  1.00  0.00    -0.015 A 
HETATM   21  C15 UNL     1      21.023   3.483  47.267  1.00  0.00     0.044 A 
HETATM   22  C16 UNL     1      20.263   2.616  48.028  1.00  0.00     0.043 A 
HETATM   23  C17 UNL     1      18.915   2.994  48.264  1.00  0.00     0.079 A 
HETATM   24  S1  UNL     1      18.726   4.569  47.417  1.00  0.00    -0.104 SA
HETATM   25  N5  UNL     1      20.836   1.429  48.545  1.00  0.00    -0.308 N 
HETATM   26  H1  UNL     1      21.853  -0.368  50.178  1.00  0.00     0.164 HD
HETATM   27  H6  UNL     1      24.363   0.980  53.681  1.00  0.00     0.161 HD
HETATM   28  H21 UNL     1      20.983   0.918  47.673  1.00  0.00     0.170 HD
ENDROOT
TORSDOF 0
ENDMDL
MODEL 8
REMARK VINA RESULT:      -6.6      2.241      3.072
REMARK  0 active torsions:
REMARK  status: ('A' for Active; 'I' for Inactive)
ROOT
HETATM    1  O1  UNL     1      24.425   5.176  51.202  1.00  0.00    -0.247 OA
HETATM    2  C1  UNL     1      24.048   5.324  52.338  1.00  0.00     0.320 C 
HETATM    3  N1  UNL     1      23.952   4.096  52.902  1.00  0.00    -0.341 N 
HETATM    4  C2  UNL     1      24.059   2.687  52.964  1.00  0.00     0.144 C 
HETATM    5  C3  UNL     1      23.338   1.838  51.987  1.00  0.00     0.141 C 
HETATM    6  N2  UNL     1      21.921   1.871  51.936  1.00  0.00    -0.373 N 
HETATM    7  C4  UNL     1      20.812   2.633  51.569  1.00  0.00     0.127 A 
HETATM    8  C5  UNL     1      20.897   3.172  50.269  1.00  0.00     0.081 A 
HETATM    9  C6  UNL     1      19.892   3.961  49.650  1.00  0.00     0.061 A 
HETATM   10  N3  UNL     1      18.794   4.193  50.381  1.00  0.00    -0.242 NA
HETATM   11  C7  UNL     1      18.729   3.661  51.645  1.00  0.00     0.235 A 
HETATM   12  N4  UNL     1      19.691   2.901  52.249  1.00  0.00    -0.225 NA
HETATM   13  C8  UNL     1      20.325   4.346  48.300  1.00  0.00     0.030 C 
HETATM   14  C9  UNL     1      20.534   4.069  47.047  1.00  0.00     0.001 C 
HETATM   15  C10 UNL     1      21.087   5.342  46.373  1.00  0.00     0.195 C 
HETATM   16  O2  UNL     1      21.131   6.314  47.340  1.00  0.00    -0.387 OA
HETATM   17  C11 UNL     1      21.809   7.462  47.156  1.00  0.00     0.168 C 
HETATM   18  C12 UNL     1      21.469   8.424  48.319  1.00  0.00     0.031 C 
HETATM   19  C13 UNL     1      22.497   9.494  48.456  1.00  0.00     0.048 C 
HETATM   20  C14 UNL     1      23.740   8.787  48.953  1.00  0.00    -0.015 A 
HETATM   21  C15 UNL     1      23.363   8.093  50.171  1.00  0.00     0.044 A 
HETATM   22  C16 UNL     1      24.356   7.373  50.808  1.00  0.00     0.043 A 
HETATM   23  C17 UNL     1      25.640   7.392  50.203  1.00  0.00     0.079 A 
HETATM   24  S1  UNL     1      25.441   8.419  48.740  1.00  0.00    -0.104 SA
HETATM   25  N5  UNL     1      24.068   6.651  51.992  1.00  0.00    -0.308 N 
HETATM   26  H1  UNL     1      23.602   4.700  53.696  1.00  0.00     0.164 HD
HETATM   27  H6  UNL     1      21.405   1.010  52.304  1.00  0.00     0.161 HD
HETATM   28  H21 UNL     1      23.890   7.431  52.627  1.00  0.00     0.170 HD
ENDROOT
TORSDOF 0
ENDMDL
MODEL 9
REMARK VINA RESULT:      -6.5      3.115      6.120
REMARK  0 active torsions:
REMARK  status: ('A' for Active; 'I' for Inactive)
ROOT
HETATM    1  O1  UNL     1      24.367   4.706  51.277  1.00  0.00    -0.247 OA
HETATM    2  C1  UNL     1      25.248   4.637  50.458  1.00  0.00     0.320 C 
HETATM    3  N1  UNL     1      25.671   5.898  50.201  1.00  0.00    -0.341 N 
HETATM    4  C2  UNL     1      25.713   7.304  50.345  1.00  0.00     0.144 C 
HETATM    5  C3  UNL     1      24.491   8.115  50.138  1.00  0.00     0.141 C 
HETATM    6  N2  UNL     1      23.857   8.123  48.869  1.00  0.00    -0.373 N 
HETATM    7  C4  UNL     1      23.095   7.374  47.973  1.00  0.00     0.127 A 
HETATM    8  C5  UNL     1      21.970   6.757  48.559  1.00  0.00     0.081 A 
HETATM    9  C6  UNL     1      21.023   5.964  47.861  1.00  0.00     0.061 A 
HETATM   10  N3  UNL     1      21.241   5.809  46.549  1.00  0.00    -0.242 NA
HETATM   11  C7  UNL     1      22.340   6.416  45.994  1.00  0.00     0.235 A 
HETATM   12  N4  UNL     1      23.258   7.180  46.659  1.00  0.00    -0.225 NA
HETATM   13  C8  UNL     1      19.992   5.487  48.792  1.00  0.00     0.030 C 
HETATM   14  C9  UNL     1      18.929   5.683  49.514  1.00  0.00     0.001 C 
HETATM   15  C10 UNL     1      18.599   4.356  50.229  1.00  0.00     0.195 C 
HETATM   16  O2  UNL     1      19.535   3.442  49.819  1.00  0.00    -0.387 OA
HETATM   17  C11 UNL     1      19.697   2.265  50.452  1.00  0.00     0.168 C 
HETATM   18  C12 UNL     1      20.652   1.384  49.613  1.00  0.00     0.031 C 
HETATM   19  C13 UNL     1      21.248   0.294  50.435  1.00  0.00     0.048 C 
HETATM   20  C14 UNL     1      22.187   0.991  51.397  1.00  0.00    -0.015 A 
HETATM   21  C15 UNL     1      23.108   1.766  50.586  1.00  0.00     0.044 A 
HETATM   22  C16 UNL     1      24.070   2.492  51.263  1.00  0.00     0.043 A 
HETATM   23  C17 UNL     1      24.054   2.399  52.680  1.00  0.00     0.079 A 
HETATM   24  S1  UNL     1      22.684   1.294  53.050  1.00  0.00    -0.104 SA
HETATM   25  N5  UNL     1      24.996   3.291  50.550  1.00  0.00    -0.308 N 
HETATM   26  H1  UNL     1      26.271   5.352  49.524  1.00  0.00     0.164 HD
HETATM   27  H6  UNL     1      23.942   9.019  48.293  1.00  0.00     0.161 HD
HETATM   28  H21 UNL     1      25.532   2.556  50.085  1.00  0.00     0.170 HD
ENDROOT
TORSDOF 0
ENDMDL
