MODEL 1
REMARK VINA RESULT:      -7.7      0.000      0.000
REMARK  3 active torsions:
REMARK  status: ('A' for Active; 'I' for Inactive)
REMARK    1  A    between atoms: O1_2  and  C2_3 
REMARK    2  A    between atoms: C6_8  and  N1_9 
REMARK    3  A    between atoms: N1_9  and  C7_10 
ROOT
HETATM    1  C2  UNL     1      28.683   0.726  54.147  1.00  0.00     0.197 C 
HETATM    2  C3  UNL     1      28.637   2.226  53.842  1.00  0.00     0.206 C 
HETATM    3  O2  UNL     1      28.095   2.533  52.630  1.00  0.00    -0.384 OA
HETATM    4  C4  UNL     1      27.168   1.675  52.126  1.00  0.00     0.212 C 
HETATM    5  C5  UNL     1      26.491   0.818  53.162  1.00  0.00     0.039 A 
HETATM    6  C6  UNL     1      25.128   0.596  52.969  1.00  0.00     0.140 A 
HETATM    7  N2  UNL     1      24.485  -0.196  53.877  1.00  0.00    -0.224 NA
HETATM    8  C14 UNL     1      25.246  -0.689  54.883  1.00  0.00     0.235 A 
HETATM    9  N3  UNL     1      26.592  -0.490  55.104  1.00  0.00    -0.243 NA
HETATM   10  C15 UNL     1      27.261   0.304  54.203  1.00  0.00     0.079 A 
ENDROOT
BRANCH   6  11
HETATM   11  N1  UNL     1      24.466   1.192  51.859  1.00  0.00    -0.340 N 
HETATM   12  H9  UNL     1      24.924   0.694  51.066  1.00  0.00     0.167 HD
BRANCH  11  13
HETATM   13  C7  UNL     1      23.475   2.182  51.972  1.00  0.00     0.041 A 
HETATM   14  C8  UNL     1      23.921   3.453  52.253  1.00  0.00     0.030 A 
HETATM   15  C9  UNL     1      22.955   4.441  52.370  1.00  0.00     0.004 A 
HETATM   16  C10 UNL     1      21.605   4.216  52.222  1.00  0.00     0.020 A 
HETATM   17  C11 UNL     1      21.229   2.896  51.937  1.00  0.00     0.019 A 
HETATM   18 BR1  UNL     1      19.354   2.529  51.720  1.00  0.00    -0.051 Br
HETATM   19  C12 UNL     1      22.143   1.846  51.803  1.00  0.00    -0.018 A 
HETATM   20  C13 UNL     1      21.669   0.483  51.486  1.00  0.00     0.052 C 
ENDBRANCH  11  13
ENDBRANCH   6  11
BRANCH   1  21
HETATM   21  O1  UNL     1      29.347   0.022  53.169  1.00  0.00    -0.382 OA
HETATM   22  C1  UNL     1      29.840  -1.191  53.636  1.00  0.00     0.202 C 
ENDBRANCH   1  21
TORSDOF 3
ENDMDL
MODEL 2
REMARK VINA RESULT:      -7.1      1.809      2.268
REMARK  3 active torsions:
REMARK  status: ('A' for Active; 'I' for Inactive)
REMARK    1  A    between atoms: O1_2  and  C2_3 
REMARK    2  A    between atoms: C6_8  and  N1_9 
REMARK    3  A    between atoms: N1_9  and  C7_10 
ROOT
HETATM    1  C2  UNL     1      28.616   0.064  54.569  1.00  0.00     0.197 C 
HETATM    2  C3  UNL     1      29.041   1.419  55.143  1.00  0.00     0.206 C 
HETATM    3  O2  UNL     1      29.040   2.435  54.235  1.00  0.00    -0.384 OA
HETATM    4  C4  UNL     1      28.166   2.344  53.198  1.00  0.00     0.212 C 
HETATM    5  C5  UNL     1      26.988   1.444  53.460  1.00  0.00     0.039 A 
HETATM    6  C6  UNL     1      25.763   1.885  52.958  1.00  0.00     0.140 A 
HETATM    7  N2  UNL     1      24.677   1.082  53.157  1.00  0.00    -0.224 NA
HETATM    8  C14 UNL     1      24.902  -0.071  53.830  1.00  0.00     0.235 A 
HETATM    9  N3  UNL     1      26.096  -0.538  54.338  1.00  0.00    -0.243 NA
HETATM   10  C15 UNL     1      27.205   0.254  54.151  1.00  0.00     0.079 A 
ENDROOT
BRANCH   6  11
HETATM   11  N1  UNL     1      25.688   3.131  52.275  1.00  0.00    -0.340 N 
HETATM   12  H9  UNL     1      26.478   3.647  52.719  1.00  0.00     0.167 HD
BRANCH  11  13
HETATM   13  C7  UNL     1      24.738   3.430  51.284  1.00  0.00     0.041 A 
HETATM   14  C8  UNL     1      24.983   2.910  50.035  1.00  0.00     0.030 A 
HETATM   15  C9  UNL     1      24.054   3.199  49.046  1.00  0.00     0.004 A 
HETATM   16  C10 UNL     1      22.928   3.963  49.251  1.00  0.00     0.020 A 
HETATM   17  C11 UNL     1      22.747   4.457  50.549  1.00  0.00     0.019 A 
HETATM   18 BR1  UNL     1      21.188   5.530  50.888  1.00  0.00    -0.051 Br
HETATM   19  C12 UNL     1      23.638   4.209  51.599  1.00  0.00    -0.018 A 
HETATM   20  C13 UNL     1      23.369   4.754  52.946  1.00  0.00     0.052 C 
ENDBRANCH  11  13
ENDBRANCH   6  11
BRANCH   1  21
HETATM   21  O1  UNL     1      29.385  -0.301  53.489  1.00  0.00    -0.382 OA
HETATM   22  C1  UNL     1      29.435  -1.680  53.320  1.00  0.00     0.202 C 
ENDBRANCH   1  21
TORSDOF 3
ENDMDL
MODEL 3
REMARK VINA RESULT:      -7.1      2.110      3.193
REMARK  3 active torsions:
REMARK  status: ('A' for Active; 'I' for Inactive)
REMARK    1  A    between atoms: O1_2  and  C2_3 
REMARK    2  A    between atoms: C6_8  and  N1_9 
REMARK    3  A    between atoms: N1_9  and  C7_10 
ROOT
HETATM    1  C2  UNL     1      27.905   0.107  53.097  1.00  0.00     0.197 C 
HETATM    2  C3  UNL     1      27.148  -1.224  53.038  1.00  0.00     0.206 C 
HETATM    3  O2  UNL     1      26.022  -1.260  53.802  1.00  0.00    -0.384 OA
HETATM    4  C4  UNL     1      25.376  -0.083  54.018  1.00  0.00     0.212 C 
HETATM    5  C5  UNL     1      25.666   0.979  52.991  1.00  0.00     0.039 A 
HETATM    6  C6  UNL     1      24.582   1.771  52.614  1.00  0.00     0.140 A 
HETATM    7  N2  UNL     1      24.813   2.760  51.701  1.00  0.00    -0.224 NA
HETATM    8  C14 UNL     1      26.086   2.869  51.250  1.00  0.00     0.235 A 
HETATM    9  N3  UNL     1      27.179   2.105  51.600  1.00  0.00    -0.243 NA
HETATM   10  C15 UNL     1      26.971   1.103  52.518  1.00  0.00     0.079 A 
ENDROOT
BRANCH   6  11
HETATM   11  N1  UNL     1      23.299   1.526  53.178  1.00  0.00    -0.340 N 
HETATM   12  H9  UNL     1      23.479   1.746  54.181  1.00  0.00     0.167 HD
BRANCH  11  13
HETATM   13  C7  UNL     1      22.182   1.101  52.439  1.00  0.00     0.041 A 
HETATM   14  C8  UNL     1      22.213   1.369  51.090  1.00  0.00     0.030 A 
HETATM   15  C9  UNL     1      21.116   0.958  50.347  1.00  0.00     0.004 A 
HETATM   16  C10 UNL     1      20.025   0.310  50.883  1.00  0.00     0.020 A 
HETATM   17  C11 UNL     1      20.068   0.072  52.263  1.00  0.00     0.019 A 
HETATM   18 BR1  UNL     1      18.569  -0.830  53.060  1.00  0.00    -0.051 Br
HETATM   19  C12 UNL     1      21.138   0.456  53.079  1.00  0.00    -0.018 A 
HETATM   20  C13 UNL     1      21.114   0.155  54.525  1.00  0.00     0.052 C 
ENDBRANCH  11  13
ENDBRANCH   6  11
BRANCH   1  21
HETATM   21  O1  UNL     1      28.229   0.456  54.388  1.00  0.00    -0.382 OA
HETATM   22  C1  UNL     1      29.293   1.351  54.440  1.00  0.00     0.202 C 
ENDBRANCH   1  21
TORSDOF 3
ENDMDL
MODEL 4
REMARK VINA RESULT:      -6.9      3.652      6.719
REMARK  3 active torsions:
REMARK  status: ('A' for Active; 'I' for Inactive)
REMARK    1  A    between atoms: O1_2  and  C2_3 
REMARK    2  A    between atoms: C6_8  and  N1_9 
REMARK    3  A    between atoms: N1_9  and  C7_10 
ROOT
HETATM    1  C2  UNL     1      22.728   4.012  49.927  1.00  0.00     0.197 C 
HETATM    2  C3  UNL     1      22.299   4.503  51.314  1.00  0.00     0.206 C 
HETATM    3  O2  UNL     1      22.439   3.576  52.302  1.00  0.00    -0.384 OA
HETATM    4  C4  UNL     1      23.416   2.642  52.148  1.00  0.00     0.212 C 
HETATM    5  C5  UNL     1      24.521   3.052  51.211  1.00  0.00     0.039 A 
HETATM    6  C6  UNL     1      25.809   2.675  51.590  1.00  0.00     0.140 A 
HETATM    7  N2  UNL     1      26.834   3.011  50.753  1.00  0.00    -0.224 NA
HETATM    8  C14 UNL     1      26.491   3.683  49.629  1.00  0.00     0.235 A 
HETATM    9  N3  UNL     1      25.231   4.071  49.224  1.00  0.00    -0.243 NA
HETATM   10  C15 UNL     1      24.182   3.744  50.051  1.00  0.00     0.079 A 
ENDROOT
BRANCH   6  11
HETATM   11  N1  UNL     1      26.008   1.973  52.812  1.00  0.00    -0.340 N 
HETATM   12  H9  UNL     1      25.060   2.050  53.240  1.00  0.00     0.167 HD
BRANCH  11  13
HETATM   13  C7  UNL     1      27.226   1.387  53.195  1.00  0.00     0.041 A 
HETATM   14  C8  UNL     1      28.153   2.234  53.756  1.00  0.00     0.030 A 
HETATM   15  C9  UNL     1      29.363   1.671  54.137  1.00  0.00     0.004 A 
HETATM   16  C10 UNL     1      29.671   0.339  53.982  1.00  0.00     0.020 A 
HETATM   17  C11 UNL     1      28.676  -0.460  53.404  1.00  0.00     0.019 A 
HETATM   18 BR1  UNL     1      29.057  -2.330  53.167  1.00  0.00    -0.051 Br
HETATM   19  C12 UNL     1      27.432   0.033  52.995  1.00  0.00    -0.018 A 
HETATM   20  C13 UNL     1      26.428  -0.877  52.406  1.00  0.00     0.052 C 
ENDBRANCH  11  13
ENDBRANCH   6  11
BRANCH   1  21
HETATM   21  O1  UNL     1      22.065   2.864  49.561  1.00  0.00    -0.382 OA
HETATM   22  C1  UNL     1      22.395   2.454  48.274  1.00  0.00     0.202 C 
ENDBRANCH   1  21
TORSDOF 3
ENDMDL
MODEL 5
REMARK VINA RESULT:      -6.9      2.386      3.265
REMARK  3 active torsions:
REMARK  status: ('A' for Active; 'I' for Inactive)
REMARK    1  A    between atoms: O1_2  and  C2_3 
REMARK    2  A    between atoms: C6_8  and  N1_9 
REMARK    3  A    between atoms: N1_9  and  C7_10 
ROOT
HETATM    1  C2  UNL     1      26.092  -0.650  53.968  1.00  0.00     0.197 C 
HETATM    2  C3  UNL     1      26.655   0.311  55.019  1.00  0.00     0.206 C 
HETATM    3  O2  UNL     1      27.032   1.522  54.523  1.00  0.00    -0.384 OA
HETATM    4  C4  UNL     1      26.377   1.976  53.422  1.00  0.00     0.212 C 
HETATM    5  C5  UNL     1      25.017   1.365  53.215  1.00  0.00     0.039 A 
HETATM    6  C6  UNL     1      24.026   2.230  52.752  1.00  0.00     0.140 A 
HETATM    7  N2  UNL     1      22.785   1.705  52.532  1.00  0.00    -0.224 NA
HETATM    8  C14 UNL     1      22.643   0.383  52.788  1.00  0.00     0.235 A 
HETATM    9  N3  UNL     1      23.598  -0.501  53.245  1.00  0.00    -0.243 NA
HETATM   10  C15 UNL     1      24.856   0.005  53.475  1.00  0.00     0.079 A 
ENDROOT
BRANCH   6  11
HETATM   11  N1  UNL     1      24.333   3.603  52.535  1.00  0.00    -0.340 N 
HETATM   12  H9  UNL     1      24.574   3.906  53.504  1.00  0.00     0.167 HD
BRANCH  11  13
HETATM   13  C7  UNL     1      24.277   4.234  51.281  1.00  0.00     0.041 A 
HETATM   14  C8  UNL     1      25.345   4.010  50.444  1.00  0.00     0.030 A 
HETATM   15  C9  UNL     1      25.306   4.628  49.203  1.00  0.00     0.004 A 
HETATM   16  C10 UNL     1      24.274   5.435  48.781  1.00  0.00     0.020 A 
HETATM   17  C11 UNL     1      23.223   5.615  49.689  1.00  0.00     0.019 A 
HETATM   18 BR1  UNL     1      21.756   6.735  49.146  1.00  0.00    -0.051 Br
HETATM   19  C12 UNL     1      23.189   5.026  50.957  1.00  0.00    -0.018 A 
HETATM   20  C13 UNL     1      22.036   5.253  51.852  1.00  0.00     0.052 C 
ENDBRANCH  11  13
ENDBRANCH   6  11
BRANCH   1  21
HETATM   21  O1  UNL     1      26.971  -0.847  52.929  1.00  0.00    -0.382 OA
HETATM   22  C1  UNL     1      26.889  -2.133  52.405  1.00  0.00     0.202 C 
ENDBRANCH   1  21
TORSDOF 3
ENDMDL
MODEL 6
REMARK VINA RESULT:      -6.9      1.927      2.285
REMARK  3 active torsions:
REMARK  status: ('A' for Active; 'I' for Inactive)
REMARK    1  A    between atoms: O1_2  and  C2_3 
REMARK    2  A    between atoms: C6_8  and  N1_9 
REMARK    3  A    between atoms: N1_9  and  C7_10 
ROOT
HETATM    1  C2  UNL     1      27.920  -0.315  54.242  1.00  0.00     0.197 C 
HETATM    2  C3  UNL     1      28.459   0.918  54.974  1.00  0.00     0.206 C 
HETATM    3  O2  UNL     1      28.541   2.035  54.199  1.00  0.00    -0.384 OA
HETATM    4  C4  UNL     1      27.659   2.146  53.169  1.00  0.00     0.212 C 
HETATM    5  C5  UNL     1      26.411   1.321  53.333  1.00  0.00     0.039 A 
HETATM    6  C6  UNL     1      25.227   1.920  52.904  1.00  0.00     0.140 A 
HETATM    7  N2  UNL     1      24.077   1.192  53.016  1.00  0.00    -0.224 NA
HETATM    8  C14 UNL     1      24.207  -0.051  53.538  1.00  0.00     0.235 A 
HETATM    9  N3  UNL     1      25.358  -0.674  53.970  1.00  0.00    -0.243 NA
HETATM   10  C15 UNL     1      26.530   0.040  53.868  1.00  0.00     0.079 A 
ENDROOT
BRANCH   6  11
HETATM   11  N1  UNL     1      25.254   3.244  52.381  1.00  0.00    -0.340 N 
HETATM   12  H9  UNL     1      26.241   3.513  52.582  1.00  0.00     0.167 HD
BRANCH  11  13
HETATM   13  C7  UNL     1      24.153   3.877  51.781  1.00  0.00     0.041 A 
HETATM   14  C8  UNL     1      23.224   4.415  52.641  1.00  0.00     0.030 A 
HETATM   15  C9  UNL     1      22.129   5.042  52.065  1.00  0.00     0.004 A 
HETATM   16  C10 UNL     1      21.933   5.147  50.706  1.00  0.00     0.020 A 
HETATM   17  C11 UNL     1      22.922   4.574  49.896  1.00  0.00     0.019 A 
HETATM   18 BR1  UNL     1      22.695   4.695  47.990  1.00  0.00    -0.051 Br
HETATM   19  C12 UNL     1      24.054   3.927  50.402  1.00  0.00    -0.018 A 
HETATM   20  C13 UNL     1      25.061   3.361  49.480  1.00  0.00     0.052 C 
ENDBRANCH  11  13
ENDBRANCH   6  11
BRANCH   1  21
HETATM   21  O1  UNL     1      28.654  -0.606  53.116  1.00  0.00    -0.382 OA
HETATM   22  C1  UNL     1      29.878  -1.192  53.420  1.00  0.00     0.202 C 
ENDBRANCH   1  21
TORSDOF 3
ENDMDL
MODEL 7
REMARK VINA RESULT:      -6.8      1.415      2.067
REMARK  3 active torsions:
REMARK  status: ('A' for Active; 'I' for Inactive)
REMARK    1  A    between atoms: O1_2  and  C2_3 
REMARK    2  A    between atoms: C6_8  and  N1_9 
REMARK    3  A    between atoms: N1_9  and  C7_10 
ROOT
HETATM    1  C2  UNL     1      27.501  -0.160  54.535  1.00  0.00     0.197 C 
HETATM    2  C3  UNL     1      27.616   1.289  54.052  1.00  0.00     0.206 C 
HETATM    3  O2  UNL     1      27.110   1.504  52.806  1.00  0.00    -0.384 OA
HETATM    4  C4  UNL     1      26.097   0.696  52.396  1.00  0.00     0.212 C 
HETATM    5  C5  UNL     1      25.332   0.046  53.519  1.00  0.00     0.039 A 
HETATM    6  C6  UNL     1      23.952  -0.051  53.336  1.00  0.00     0.140 A 
HETATM    7  N2  UNL     1      23.228  -0.655  54.324  1.00  0.00    -0.224 NA
HETATM    8  C14 UNL     1      23.933  -1.102  55.391  1.00  0.00     0.235 A 
HETATM    9  N3  UNL     1      25.292  -1.023  55.604  1.00  0.00    -0.243 NA
HETATM   10  C15 UNL     1      26.043  -0.418  54.623  1.00  0.00     0.079 A 
ENDROOT
BRANCH   6  11
HETATM   11  N1  UNL     1      23.358   0.475  52.155  1.00  0.00    -0.340 N 
HETATM   12  H9  UNL     1      23.889  -0.041  51.421  1.00  0.00     0.167 HD
BRANCH  11  13
HETATM   13  C7  UNL     1      22.333   1.436  52.149  1.00  0.00     0.041 A 
HETATM   14  C8  UNL     1      21.073   0.977  52.455  1.00  0.00     0.030 A 
HETATM   15  C9  UNL     1      20.049   1.913  52.452  1.00  0.00     0.004 A 
HETATM   16  C10 UNL     1      20.231   3.247  52.163  1.00  0.00     0.020 A 
HETATM   17  C11 UNL     1      21.542   3.638  51.861  1.00  0.00     0.019 A 
HETATM   18 BR1  UNL     1      21.849   5.492  51.451  1.00  0.00    -0.051 Br
HETATM   19  C12 UNL     1      22.626   2.754  51.845  1.00  0.00    -0.018 A 
HETATM   20  C13 UNL     1      23.983   3.247  51.531  1.00  0.00     0.052 C 
ENDBRANCH  11  13
ENDBRANCH   6  11
BRANCH   1  21
HETATM   21  O1  UNL     1      28.086  -1.042  53.657  1.00  0.00    -0.382 OA
HETATM   22  C1  UNL     1      29.471  -0.919  53.631  1.00  0.00     0.202 C 
ENDBRANCH   1  21
TORSDOF 3
ENDMDL
MODEL 8
REMARK VINA RESULT:      -6.7      1.829      2.429
REMARK  3 active torsions:
REMARK  status: ('A' for Active; 'I' for Inactive)
REMARK    1  A    between atoms: O1_2  and  C2_3 
REMARK    2  A    between atoms: C6_8  and  N1_9 
REMARK    3  A    between atoms: N1_9  and  C7_10 
ROOT
HETATM    1  C2  UNL     1      28.008  -0.102  54.102  1.00  0.00     0.197 C 
HETATM    2  C3  UNL     1      28.392   1.381  54.077  1.00  0.00     0.206 C 
HETATM    3  O2  UNL     1      28.055   2.025  52.925  1.00  0.00    -0.384 OA
HETATM    4  C4  UNL     1      26.977   1.557  52.241  1.00  0.00     0.212 C 
HETATM    5  C5  UNL     1      26.011   0.762  53.078  1.00  0.00     0.039 A 
HETATM    6  C6  UNL     1      24.659   0.965  52.801  1.00  0.00     0.140 A 
HETATM    7  N2  UNL     1      23.754   0.244  53.526  1.00  0.00    -0.224 NA
HETATM    8  C14 UNL     1      24.269  -0.604  54.449  1.00  0.00     0.235 A 
HETATM    9  N3  UNL     1      25.595  -0.829  54.748  1.00  0.00    -0.243 NA
HETATM   10  C15 UNL     1      26.526  -0.113  54.031  1.00  0.00     0.079 A 
ENDROOT
BRANCH   6  11
HETATM   11  N1  UNL     1      24.276   1.900  51.798  1.00  0.00    -0.340 N 
HETATM   12  H9  UNL     1      24.979   2.654  51.955  1.00  0.00     0.167 HD
BRANCH  11  13
HETATM   13  C7  UNL     1      23.206   1.706  50.909  1.00  0.00     0.041 A 
HETATM   14  C8  UNL     1      22.249   0.802  51.303  1.00  0.00     0.030 A 
HETATM   15  C9  UNL     1      21.187   0.598  50.434  1.00  0.00     0.004 A 
HETATM   16  C10 UNL     1      21.051   1.242  49.225  1.00  0.00     0.020 A 
HETATM   17  C11 UNL     1      22.066   2.148  48.893  1.00  0.00     0.019 A 
HETATM   18 BR1  UNL     1      21.922   3.075  47.214  1.00  0.00    -0.051 Br
HETATM   19  C12 UNL     1      23.167   2.408  49.716  1.00  0.00    -0.018 A 
HETATM   20  C13 UNL     1      24.189   3.391  49.302  1.00  0.00     0.052 C 
ENDBRANCH  11  13
ENDBRANCH   6  11
BRANCH   1  21
HETATM   21  O1  UNL     1      28.538  -0.788  53.035  1.00  0.00    -0.382 OA
HETATM   22  C1  UNL     1      29.843  -1.205  53.272  1.00  0.00     0.202 C 
ENDBRANCH   1  21
TORSDOF 3
ENDMDL
MODEL 9
REMARK VINA RESULT:      -6.7      3.943      6.818
REMARK  3 active torsions:
REMARK  status: ('A' for Active; 'I' for Inactive)
REMARK    1  A    between atoms: O1_2  and  C2_3 
REMARK    2  A    between atoms: C6_8  and  N1_9 
REMARK    3  A    between atoms: N1_9  and  C7_10 
ROOT
HETATM    1  C2  UNL     1      20.129   0.888  52.734  1.00  0.00     0.197 C 
HETATM    2  C3  UNL     1      20.428   0.695  54.224  1.00  0.00     0.206 C 
HETATM    3  O2  UNL     1      21.341  -0.281  54.488  1.00  0.00    -0.384 OA
HETATM    4  C4  UNL     1      22.278  -0.534  53.535  1.00  0.00     0.212 C 
HETATM    5  C5  UNL     1      22.513   0.607  52.581  1.00  0.00     0.039 A 
HETATM    6  C6  UNL     1      23.838   0.816  52.200  1.00  0.00     0.140 A 
HETATM    7  N2  UNL     1      24.086   1.829  51.318  1.00  0.00    -0.224 NA
HETATM    8  C14 UNL     1      23.007   2.533  50.900  1.00  0.00     0.235 A 
HETATM    9  N3  UNL     1      21.687   2.354  51.255  1.00  0.00    -0.243 NA
HETATM   10  C15 UNL     1      21.412   1.340  52.143  1.00  0.00     0.079 A 
ENDROOT
BRANCH   6  11
HETATM   11  N1  UNL     1      24.865  -0.011  52.735  1.00  0.00    -0.340 N 
HETATM   12  H9  UNL     1      24.388  -0.938  52.742  1.00  0.00     0.167 HD
BRANCH  11  13
HETATM   13  C7  UNL     1      26.137   0.455  53.109  1.00  0.00     0.041 A 
HETATM   14  C8  UNL     1      26.216   1.784  53.453  1.00  0.00     0.030 A 
HETATM   15  C9  UNL     1      27.466   2.260  53.822  1.00  0.00     0.004 A 
HETATM   16  C10 UNL     1      28.602   1.484  53.857  1.00  0.00     0.020 A 
HETATM   17  C11 UNL     1      28.441   0.141  53.493  1.00  0.00     0.019 A 
HETATM   18 BR1  UNL     1      29.999  -0.986  53.527  1.00  0.00    -0.051 Br
HETATM   19  C12 UNL     1      27.215  -0.413  53.111  1.00  0.00    -0.018 A 
HETATM   20  C13 UNL     1      27.124  -1.844  52.754  1.00  0.00     0.052 C 
ENDBRANCH  11  13
ENDBRANCH   6  11
BRANCH   1  21
HETATM   21  O1  UNL     1      19.719  -0.281  52.136  1.00  0.00    -0.382 OA
HETATM   22  C1  UNL     1      18.402  -0.600  52.450  1.00  0.00     0.202 C 
ENDBRANCH   1  21
TORSDOF 3
ENDMDL
