MODEL 1
REMARK VINA RESULT:      -7.5      0.000      0.000
REMARK  4 active torsions:
REMARK  status: ('A' for Active; 'I' for Inactive)
REMARK    1  A    between atoms: C6_9  and  N3_10 
REMARK    2  A    between atoms: N3_10  and  C7_11 
REMARK    3  A    between atoms: C9_13  and  C10_14 
REMARK    4  A    between atoms: P1_22  and  O2_23 
ROOT
HETATM    1  C1  UNL     1      18.367   2.758  51.381  1.00  0.00     0.000 C 
HETATM    2  O1  UNL     1      19.213   1.789  52.023  1.00  0.00     0.000 OA
HETATM    3  C2  UNL     1      20.090   1.110  51.193  1.00  0.00     0.002 A 
HETATM    4  C3  UNL     1      21.097   0.898  50.401  1.00  0.00     0.034 C 
HETATM    5  C4  UNL     1      22.250   1.510  49.784  1.00  0.00     0.119 C 
HETATM    6  N1  UNL     1      22.400   2.507  50.566  1.00  0.00    -0.254 NA
HETATM    7  C5  UNL     1      21.641   2.839  51.712  1.00  0.00     0.235 C 
HETATM    8  N2  UNL     1      21.294   2.254  52.850  1.00  0.00    -0.218 NA
HETATM    9  C6  UNL     1      21.733   0.961  53.092  1.00  0.00     0.165 C 
HETATM   10  S1  UNL     1      20.986  -0.416  53.598  1.00  0.00    -0.071 SA
HETATM   11  C16 UNL     1      19.406  -0.498  53.332  1.00  0.00     0.109 C 
HETATM   12  P1  UNL     1      19.062  -0.122  51.779  1.00  0.00     0.023 P 
HETATM   13  H17 UNL     1      19.403  -1.329  51.026  1.00  0.00     0.088 HD
ENDROOT
BRANCH   9  14
HETATM   14  N3  UNL     1      23.078   0.436  52.963  1.00  0.00    -0.364 N 
HETATM   15  H7  UNL     1      23.068  -0.435  52.352  1.00  0.00     0.162 HD
BRANCH  14  16
HETATM   16  C7  UNL     1      24.461   0.656  53.367  1.00  0.00     0.092 A 
HETATM   17  C8  UNL     1      25.247   1.799  52.831  1.00  0.00     0.037 A 
HETATM   18  C9  UNL     1      25.490   0.472  52.259  1.00  0.00     0.043 A 
BRANCH  18  19
HETATM   19  C10 UNL     1      26.679  -0.346  52.603  1.00  0.00    -0.052 A 
HETATM   20  C11 UNL     1      27.829   0.257  53.103  1.00  0.00     0.007 A 
HETATM   21  C12 UNL     1      28.983  -0.425  53.450  1.00  0.00     0.001 A 
HETATM   22  C13 UNL     1      29.002  -1.804  53.291  1.00  0.00     0.000 A 
HETATM   23  C14 UNL     1      27.871  -2.417  52.797  1.00  0.00     0.001 A 
HETATM   24  C15 UNL     1      26.737  -1.708  52.461  1.00  0.00     0.007 A 
ENDBRANCH  18  19
ENDBRANCH  14  16
ENDBRANCH   9  14
BRANCH  12  25
HETATM   25  O2  UNL     1      17.434   0.022  51.614  1.00  0.00    -0.371 OA
HETATM   26  C17 UNL     1      16.704  -0.697  52.545  1.00  0.00     0.206 C 
ENDBRANCH  12  25
TORSDOF 4
ENDMDL
MODEL 2
REMARK VINA RESULT:      -7.3      2.182      2.786
REMARK  4 active torsions:
REMARK  status: ('A' for Active; 'I' for Inactive)
REMARK    1  A    between atoms: C6_9  and  N3_10 
REMARK    2  A    between atoms: N3_10  and  C7_11 
REMARK    3  A    between atoms: C9_13  and  C10_14 
REMARK    4  A    between atoms: P1_22  and  O2_23 
ROOT
HETATM    1  C1  UNL     1      21.061   5.255  50.164  1.00  0.00     0.000 C 
HETATM    2  O1  UNL     1      21.292   3.907  50.609  1.00  0.00     0.000 OA
HETATM    3  C2  UNL     1      22.319   3.229  49.973  1.00  0.00     0.002 A 
HETATM    4  C3  UNL     1      23.525   2.909  49.614  1.00  0.00     0.034 C 
HETATM    5  C4  UNL     1      24.923   3.220  49.800  1.00  0.00     0.119 C 
HETATM    6  N1  UNL     1      24.855   3.828  50.919  1.00  0.00    -0.254 NA
HETATM    7  C5  UNL     1      23.709   4.065  51.715  1.00  0.00     0.235 C 
HETATM    8  N2  UNL     1      22.751   3.341  52.276  1.00  0.00    -0.218 NA
HETATM    9  C6  UNL     1      22.769   1.965  52.101  1.00  0.00     0.165 C 
HETATM   10  S1  UNL     1      21.630   0.863  51.657  1.00  0.00    -0.071 SA
HETATM   11  C16 UNL     1      20.396   1.429  50.804  1.00  0.00     0.109 C 
HETATM   12  P1  UNL     1      20.929   2.332  49.550  1.00  0.00     0.023 P 
HETATM   13  H17 UNL     1      21.363   1.355  48.553  1.00  0.00     0.088 HD
ENDROOT
BRANCH   9  14
HETATM   14  N3  UNL     1      23.882   1.056  52.286  1.00  0.00    -0.364 N 
HETATM   15  H7  UNL     1      23.934   0.378  51.467  1.00  0.00     0.162 HD
BRANCH  14  16
HETATM   16  C7  UNL     1      24.974   0.715  53.190  1.00  0.00     0.092 A 
HETATM   17  C8  UNL     1      25.920   1.752  53.680  1.00  0.00     0.037 A 
HETATM   18  C9  UNL     1      26.369   0.871  52.599  1.00  0.00     0.043 A 
BRANCH  18  19
HETATM   19  C10 UNL     1      27.301  -0.261  52.820  1.00  0.00    -0.052 A 
HETATM   20  C11 UNL     1      28.575  -0.036  53.331  1.00  0.00     0.007 A 
HETATM   21  C12 UNL     1      29.510  -1.030  53.568  1.00  0.00     0.001 A 
HETATM   22  C13 UNL     1      29.160  -2.342  53.280  1.00  0.00     0.000 A 
HETATM   23  C14 UNL     1      27.901  -2.582  52.773  1.00  0.00     0.001 A 
HETATM   24  C15 UNL     1      26.993  -1.569  52.548  1.00  0.00     0.007 A 
ENDBRANCH  18  19
ENDBRANCH  14  16
ENDBRANCH   9  14
BRANCH  12  25
HETATM   25  O2  UNL     1      19.646   3.088  48.855  1.00  0.00    -0.371 OA
HETATM   26  C17 UNL     1      19.676   3.098  47.471  1.00  0.00     0.206 C 
ENDBRANCH  12  25
TORSDOF 4
ENDMDL
MODEL 3
REMARK VINA RESULT:      -7.3      4.366      5.940
REMARK  4 active torsions:
REMARK  status: ('A' for Active; 'I' for Inactive)
REMARK    1  A    between atoms: C6_9  and  N3_10 
REMARK    2  A    between atoms: N3_10  and  C7_11 
REMARK    3  A    between atoms: C9_13  and  C10_14 
REMARK    4  A    between atoms: P1_22  and  O2_23 
ROOT
HETATM    1  C1  UNL     1      23.324   6.166  47.876  1.00  0.00     0.000 C 
HETATM    2  O1  UNL     1      24.225   5.289  48.573  1.00  0.00     0.000 OA
HETATM    3  C2  UNL     1      24.250   5.421  49.951  1.00  0.00     0.002 A 
HETATM    4  C3  UNL     1      23.851   5.364  51.185  1.00  0.00     0.034 C 
HETATM    5  C4  UNL     1      22.768   4.951  52.048  1.00  0.00     0.119 C 
HETATM    6  N1  UNL     1      22.187   4.122  51.271  1.00  0.00    -0.254 NA
HETATM    7  C5  UNL     1      22.568   3.737  49.964  1.00  0.00     0.235 C 
HETATM    8  N2  UNL     1      23.643   3.229  49.376  1.00  0.00    -0.218 NA
HETATM    9  C6  UNL     1      24.762   2.966  50.151  1.00  0.00     0.165 C 
HETATM   10  S1  UNL     1      26.363   3.312  49.988  1.00  0.00    -0.071 SA
HETATM   11  C16 UNL     1      26.721   4.568  49.058  1.00  0.00     0.109 C 
HETATM   12  P1  UNL     1      25.829   5.871  49.480  1.00  0.00     0.023 P 
HETATM   13  H17 UNL     1      26.481   6.387  50.684  1.00  0.00     0.088 HD
ENDROOT
BRANCH   9  14
HETATM   14  N3  UNL     1      24.829   2.250  51.410  1.00  0.00    -0.364 N 
HETATM   15  H7  UNL     1      24.358   2.821  52.175  1.00  0.00     0.162 HD
BRANCH  14  16
HETATM   16  C7  UNL     1      25.310   1.022  52.031  1.00  0.00     0.092 A 
HETATM   17  C8  UNL     1      24.830   0.597  53.372  1.00  0.00     0.037 A 
HETATM   18  C9  UNL     1      26.152   1.222  53.283  1.00  0.00     0.043 A 
BRANCH  18  19
HETATM   19  C10 UNL     1      27.414   0.447  53.352  1.00  0.00    -0.052 A 
HETATM   20  C11 UNL     1      27.418  -0.919  53.086  1.00  0.00     0.007 A 
HETATM   21  C12 UNL     1      28.546  -1.721  53.127  1.00  0.00     0.001 A 
HETATM   22  C13 UNL     1      29.759  -1.130  53.454  1.00  0.00     0.000 A 
HETATM   23  C14 UNL     1      29.772   0.222  53.720  1.00  0.00     0.001 A 
HETATM   24  C15 UNL     1      28.631   0.993  53.671  1.00  0.00     0.007 A 
ENDBRANCH  18  19
ENDBRANCH  14  16
ENDBRANCH   9  14
BRANCH  12  25
HETATM   25  O2  UNL     1      26.043   7.051  48.357  1.00  0.00    -0.371 OA
HETATM   26  C17 UNL     1      27.370   7.332  48.077  1.00  0.00     0.206 C 
ENDBRANCH  12  25
TORSDOF 4
ENDMDL
MODEL 4
REMARK VINA RESULT:      -7.2      4.363      6.599
REMARK  4 active torsions:
REMARK  status: ('A' for Active; 'I' for Inactive)
REMARK    1  A    between atoms: C6_9  and  N3_10 
REMARK    2  A    between atoms: N3_10  and  C7_11 
REMARK    3  A    between atoms: C9_13  and  C10_14 
REMARK    4  A    between atoms: P1_22  and  O2_23 
ROOT
HETATM    1  C1  UNL     1      22.999   5.548  47.997  1.00  0.00     0.000 C 
HETATM    2  O1  UNL     1      24.074   4.928  48.722  1.00  0.00     0.000 OA
HETATM    3  C2  UNL     1      24.191   5.289  50.055  1.00  0.00     0.002 A 
HETATM    4  C3  UNL     1      23.906   5.385  51.317  1.00  0.00     0.034 C 
HETATM    5  C4  UNL     1      22.971   4.980  52.341  1.00  0.00     0.119 C 
HETATM    6  N1  UNL     1      22.459   3.963  51.765  1.00  0.00    -0.254 NA
HETATM    7  C5  UNL     1      22.785   3.421  50.500  1.00  0.00     0.235 C 
HETATM    8  N2  UNL     1      23.872   2.971  49.888  1.00  0.00    -0.218 NA
HETATM    9  C6  UNL     1      25.077   2.992  50.573  1.00  0.00     0.165 C 
HETATM   10  S1  UNL     1      26.590   3.517  50.193  1.00  0.00    -0.071 SA
HETATM   11  C16 UNL     1      26.680   4.638  49.049  1.00  0.00     0.109 C 
HETATM   12  P1  UNL     1      25.642   5.862  49.358  1.00  0.00     0.023 P 
HETATM   13  H17 UNL     1      26.305   6.653  50.394  1.00  0.00     0.088 HD
ENDROOT
BRANCH   9  14
HETATM   14  N3  UNL     1      25.351   2.511  51.912  1.00  0.00    -0.364 N 
HETATM   15  H7  UNL     1      26.334   2.796  52.205  1.00  0.00     0.162 HD
BRANCH  14  16
HETATM   16  C7  UNL     1      24.776   1.767  53.027  1.00  0.00     0.092 A 
HETATM   17  C8  UNL     1      25.490   0.613  53.633  1.00  0.00     0.037 A 
HETATM   18  C9  UNL     1      24.391   0.329  52.708  1.00  0.00     0.043 A 
BRANCH  18  19
HETATM   19  C10 UNL     1      23.047  -0.104  53.164  1.00  0.00    -0.052 A 
HETATM   20  C11 UNL     1      21.913   0.230  52.431  1.00  0.00     0.007 A 
HETATM   21  C12 UNL     1      20.622  -0.130  52.780  1.00  0.00     0.001 A 
HETATM   22  C13 UNL     1      20.439  -0.874  53.938  1.00  0.00     0.000 A 
HETATM   23  C14 UNL     1      21.553  -1.213  54.675  1.00  0.00     0.001 A 
HETATM   24  C15 UNL     1      22.826  -0.839  54.300  1.00  0.00     0.007 A 
ENDBRANCH  18  19
ENDBRANCH  14  16
ENDBRANCH   9  14
BRANCH  12  25
HETATM   25  O2  UNL     1      25.586   6.856  48.052  1.00  0.00    -0.371 OA
HETATM   26  C17 UNL     1      26.764   7.546  47.814  1.00  0.00     0.206 C 
ENDBRANCH  12  25
TORSDOF 4
ENDMDL
MODEL 5
REMARK VINA RESULT:      -7.1      3.999      5.920
REMARK  4 active torsions:
REMARK  status: ('A' for Active; 'I' for Inactive)
REMARK    1  A    between atoms: C6_9  and  N3_10 
REMARK    2  A    between atoms: N3_10  and  C7_11 
REMARK    3  A    between atoms: C9_13  and  C10_14 
REMARK    4  A    between atoms: P1_22  and  O2_23 
ROOT
HETATM    1  C1  UNL     1      22.127  -0.445  53.010  1.00  0.00     0.000 C 
HETATM    2  O1  UNL     1      22.639   0.891  52.869  1.00  0.00     0.000 OA
HETATM    3  C2  UNL     1      22.967   1.278  51.580  1.00  0.00     0.002 A 
HETATM    4  C3  UNL     1      22.814   1.617  50.336  1.00  0.00     0.034 C 
HETATM    5  C4  UNL     1      21.836   1.873  49.305  1.00  0.00     0.119 C 
HETATM    6  N1  UNL     1      20.813   2.090  50.036  1.00  0.00    -0.254 NA
HETATM    7  C5  UNL     1      20.736   2.097  51.448  1.00  0.00     0.235 C 
HETATM    8  N2  UNL     1      21.338   2.724  52.450  1.00  0.00    -0.218 NA
HETATM    9  C6  UNL     1      22.333   3.643  52.156  1.00  0.00     0.165 C 
HETATM   10  S1  UNL     1      23.858   3.887  52.726  1.00  0.00    -0.071 SA
HETATM   11  C16 UNL     1      24.575   2.614  53.386  1.00  0.00     0.109 C 
HETATM   12  P1  UNL     1      24.465   1.314  52.400  1.00  0.00     0.023 P 
HETATM   13  H17 UNL     1      25.484   1.544  51.376  1.00  0.00     0.088 HD
ENDROOT
BRANCH   9  14
HETATM   14  N3  UNL     1      22.291   4.729  51.197  1.00  0.00    -0.364 N 
HETATM   15  H7  UNL     1      21.281   4.942  50.937  1.00  0.00     0.162 HD
BRANCH  14  16
HETATM   16  C7  UNL     1      23.128   5.652  50.440  1.00  0.00     0.092 A 
HETATM   17  C8  UNL     1      22.699   6.172  49.115  1.00  0.00     0.037 A 
HETATM   18  C9  UNL     1      23.688   5.092  49.139  1.00  0.00     0.043 A 
BRANCH  18  19
HETATM   19  C10 UNL     1      25.133   5.320  48.898  1.00  0.00    -0.052 A 
HETATM   20  C11 UNL     1      25.581   6.538  48.397  1.00  0.00     0.007 A 
HETATM   21  C12 UNL     1      26.908   6.839  48.142  1.00  0.00     0.001 A 
HETATM   22  C13 UNL     1      27.863   5.865  48.402  1.00  0.00     0.000 A 
HETATM   23  C14 UNL     1      27.436   4.653  48.899  1.00  0.00     0.001 A 
HETATM   24  C15 UNL     1      26.106   4.384  49.142  1.00  0.00     0.007 A 
ENDBRANCH  18  19
ENDBRANCH  14  16
ENDBRANCH   9  14
BRANCH  12  25
HETATM   25  O2  UNL     1      24.988  -0.015  53.210  1.00  0.00    -0.371 OA
HETATM   26  C17 UNL     1      26.059   0.220  54.056  1.00  0.00     0.206 C 
ENDBRANCH  12  25
TORSDOF 4
ENDMDL
MODEL 6
REMARK VINA RESULT:      -7.0      3.686      5.259
REMARK  4 active torsions:
REMARK  status: ('A' for Active; 'I' for Inactive)
REMARK    1  A    between atoms: C6_9  and  N3_10 
REMARK    2  A    between atoms: N3_10  and  C7_11 
REMARK    3  A    between atoms: C9_13  and  C10_14 
REMARK    4  A    between atoms: P1_22  and  O2_23 
ROOT
HETATM    1  C1  UNL     1      22.701   6.520  47.940  1.00  0.00     0.000 C 
HETATM    2  O1  UNL     1      22.578   5.882  49.223  1.00  0.00     0.000 OA
HETATM    3  C2  UNL     1      23.151   4.626  49.329  1.00  0.00     0.002 A 
HETATM    4  C3  UNL     1      24.069   3.709  49.390  1.00  0.00     0.034 C 
HETATM    5  C4  UNL     1      25.495   3.479  49.402  1.00  0.00     0.119 C 
HETATM    6  N1  UNL     1      25.890   4.640  49.754  1.00  0.00    -0.254 NA
HETATM    7  C5  UNL     1      25.103   5.774  50.063  1.00  0.00     0.235 C 
HETATM    8  N2  UNL     1      24.119   6.073  50.901  1.00  0.00    -0.218 NA
HETATM    9  C6  UNL     1      23.648   5.086  51.752  1.00  0.00     0.165 C 
HETATM   10  S1  UNL     1      22.142   4.543  52.138  1.00  0.00    -0.071 SA
HETATM   11  C16 UNL     1      20.997   4.810  51.048  1.00  0.00     0.109 C 
HETATM   12  P1  UNL     1      21.487   4.325  49.565  1.00  0.00     0.023 P 
HETATM   13  H17 UNL     1      21.335   2.871  49.587  1.00  0.00     0.088 HD
ENDROOT
BRANCH   9  14
HETATM   14  N3  UNL     1      24.416   4.201  52.605  1.00  0.00    -0.364 N 
HETATM   15  H7  UNL     1      25.394   4.596  52.748  1.00  0.00     0.162 HD
BRANCH  14  16
HETATM   16  C7  UNL     1      24.349   2.950  53.352  1.00  0.00     0.092 A 
HETATM   17  C8  UNL     1      25.422   1.928  53.239  1.00  0.00     0.037 A 
HETATM   18  C9  UNL     1      24.180   1.701  52.498  1.00  0.00     0.043 A 
BRANCH  18  19
HETATM   19  C10 UNL     1      23.141   0.742  52.946  1.00  0.00    -0.052 A 
HETATM   20  C11 UNL     1      23.446  -0.243  53.880  1.00  0.00     0.007 A 
HETATM   21  C12 UNL     1      22.542  -1.179  54.354  1.00  0.00     0.001 A 
HETATM   22  C13 UNL     1      21.242  -1.139  53.870  1.00  0.00     0.000 A 
HETATM   23  C14 UNL     1      20.923  -0.169  52.944  1.00  0.00     0.001 A 
HETATM   24  C15 UNL     1      21.847   0.749  52.491  1.00  0.00     0.007 A 
ENDBRANCH  18  19
ENDBRANCH  14  16
ENDBRANCH   9  14
BRANCH  12  25
HETATM   25  O2  UNL     1      20.395   4.837  48.450  1.00  0.00    -0.371 OA
HETATM   26  C17 UNL     1      19.171   5.205  48.982  1.00  0.00     0.206 C 
ENDBRANCH  12  25
TORSDOF 4
ENDMDL
MODEL 7
REMARK VINA RESULT:      -6.8      3.336      7.375
REMARK  4 active torsions:
REMARK  status: ('A' for Active; 'I' for Inactive)
REMARK    1  A    between atoms: C6_9  and  N3_10 
REMARK    2  A    between atoms: N3_10  and  C7_11 
REMARK    3  A    between atoms: C9_13  and  C10_14 
REMARK    4  A    between atoms: P1_22  and  O2_23 
ROOT
HETATM    1  C1  UNL     1      26.416   2.801  50.288  1.00  0.00     0.000 C 
HETATM    2  O1  UNL     1      25.686   2.050  51.274  1.00  0.00     0.000 OA
HETATM    3  C2  UNL     1      25.116   2.791  52.296  1.00  0.00     0.002 A 
HETATM    4  C3  UNL     1      24.319   3.621  52.897  1.00  0.00     0.034 C 
HETATM    5  C4  UNL     1      23.186   4.497  52.714  1.00  0.00     0.119 C 
HETATM    6  N1  UNL     1      22.709   4.000  51.640  1.00  0.00    -0.254 NA
HETATM    7  C5  UNL     1      23.184   2.885  50.909  1.00  0.00     0.235 C 
HETATM    8  N2  UNL     1      23.447   1.608  51.148  1.00  0.00    -0.218 NA
HETATM    9  C6  UNL     1      23.243   1.117  52.429  1.00  0.00     0.165 C 
HETATM   10  S1  UNL     1      24.157   0.213  53.457  1.00  0.00    -0.071 SA
HETATM   11  C16 UNL     1      25.742   0.264  53.221  1.00  0.00     0.109 C 
HETATM   12  P1  UNL     1      26.258   1.811  53.104  1.00  0.00     0.023 P 
HETATM   13  H17 UNL     1      26.299   2.289  54.486  1.00  0.00     0.088 HD
ENDROOT
BRANCH   9  14
HETATM   14  N3  UNL     1      22.072   1.273  53.269  1.00  0.00    -0.364 N 
HETATM   15  H7  UNL     1      22.126   2.197  53.795  1.00  0.00     0.162 HD
BRANCH  14  16
HETATM   16  C7  UNL     1      20.830   0.626  53.673  1.00  0.00     0.092 A 
HETATM   17  C8  UNL     1      20.820  -0.766  54.193  1.00  0.00     0.037 A 
HETATM   18  C9  UNL     1      20.408  -0.552  52.804  1.00  0.00     0.043 A 
BRANCH  18  19
HETATM   19  C10 UNL     1      18.988  -0.570  52.376  1.00  0.00    -0.052 A 
HETATM   20  C11 UNL     1      18.604   0.032  51.181  1.00  0.00     0.007 A 
HETATM   21  C12 UNL     1      17.305   0.064  50.703  1.00  0.00     0.001 A 
HETATM   22  C13 UNL     1      16.313  -0.544  51.460  1.00  0.00     0.000 A 
HETATM   23  C14 UNL     1      16.676  -1.145  52.646  1.00  0.00     0.001 A 
HETATM   24  C15 UNL     1      17.980  -1.159  53.094  1.00  0.00     0.007 A 
ENDBRANCH  18  19
ENDBRANCH  14  16
ENDBRANCH   9  14
BRANCH  12  25
HETATM   25  O2  UNL     1      27.828   1.814  52.621  1.00  0.00    -0.371 OA
HETATM   26  C17 UNL     1      28.697   2.412  53.518  1.00  0.00     0.206 C 
ENDBRANCH  12  25
TORSDOF 4
ENDMDL
MODEL 8
REMARK VINA RESULT:      -6.8      4.382      5.804
REMARK  4 active torsions:
REMARK  status: ('A' for Active; 'I' for Inactive)
REMARK    1  A    between atoms: C6_9  and  N3_10 
REMARK    2  A    between atoms: N3_10  and  C7_11 
REMARK    3  A    between atoms: C9_13  and  C10_14 
REMARK    4  A    between atoms: P1_22  and  O2_23 
ROOT
HETATM    1  C1  UNL     1      20.587   1.194  53.010  1.00  0.00     0.000 C 
HETATM    2  O1  UNL     1      21.144   1.950  51.922  1.00  0.00     0.000 OA
HETATM    3  C2  UNL     1      22.063   2.925  52.273  1.00  0.00     0.002 A 
HETATM    4  C3  UNL     1      23.167   3.456  52.703  1.00  0.00     0.034 C 
HETATM    5  C4  UNL     1      24.495   3.164  53.191  1.00  0.00     0.119 C 
HETATM    6  N1  UNL     1      24.626   1.977  52.743  1.00  0.00    -0.254 NA
HETATM    7  C5  UNL     1      23.708   1.232  51.966  1.00  0.00     0.235 C 
HETATM    8  N2  UNL     1      23.063   1.381  50.816  1.00  0.00    -0.218 NA
HETATM    9  C6  UNL     1      23.259   2.547  50.092  1.00  0.00     0.165 C 
HETATM   10  S1  UNL     1      22.240   3.623  49.376  1.00  0.00    -0.071 SA
HETATM   11  C16 UNL     1      20.749   3.681  49.964  1.00  0.00     0.109 C 
HETATM   12  P1  UNL     1      20.777   3.818  51.593  1.00  0.00     0.023 P 
HETATM   13  H17 UNL     1      21.086   5.227  51.836  1.00  0.00     0.088 HD
ENDROOT
BRANCH   9  14
HETATM   14  N3  UNL     1      24.515   3.177  49.735  1.00  0.00    -0.364 N 
HETATM   15  H7  UNL     1      24.993   2.617  48.966  1.00  0.00     0.162 HD
BRANCH  14  16
HETATM   16  C7  UNL     1      25.384   4.307  50.042  1.00  0.00     0.092 A 
HETATM   17  C8  UNL     1      24.826   5.660  50.295  1.00  0.00     0.037 A 
HETATM   18  C9  UNL     1      25.417   5.398  48.981  1.00  0.00     0.043 A 
BRANCH  18  19
HETATM   19  C10 UNL     1      26.761   5.889  48.592  1.00  0.00    -0.052 A 
HETATM   20  C11 UNL     1      27.842   5.016  48.540  1.00  0.00     0.007 A 
HETATM   21  C12 UNL     1      29.130   5.384  48.188  1.00  0.00     0.001 A 
HETATM   22  C13 UNL     1      29.366   6.713  47.863  1.00  0.00     0.000 A 
HETATM   23  C14 UNL     1      28.305   7.591  47.909  1.00  0.00     0.001 A 
HETATM   24  C15 UNL     1      27.034   7.192  48.264  1.00  0.00     0.007 A 
ENDBRANCH  18  19
ENDBRANCH  14  16
ENDBRANCH   9  14
BRANCH  12  25
HETATM   25  O2  UNL     1      19.251   3.626  52.170  1.00  0.00    -0.371 OA
HETATM   26  C17 UNL     1      18.256   3.953  51.263  1.00  0.00     0.206 C 
ENDBRANCH  12  25
TORSDOF 4
ENDMDL
MODEL 9
REMARK VINA RESULT:      -6.6      3.784      5.112
REMARK  4 active torsions:
REMARK  status: ('A' for Active; 'I' for Inactive)
REMARK    1  A    between atoms: C6_9  and  N3_10 
REMARK    2  A    between atoms: N3_10  and  C7_11 
REMARK    3  A    between atoms: C9_13  and  C10_14 
REMARK    4  A    between atoms: P1_22  and  O2_23 
ROOT
HETATM    1  C1  UNL     1      20.267   5.653  48.509  1.00  0.00     0.000 C 
HETATM    2  O1  UNL     1      21.496   5.704  49.254  1.00  0.00     0.000 OA
HETATM    3  C2  UNL     1      21.406   5.354  50.591  1.00  0.00     0.002 A 
HETATM    4  C3  UNL     1      21.244   4.615  51.646  1.00  0.00     0.034 C 
HETATM    5  C4  UNL     1      21.011   3.266  52.106  1.00  0.00     0.119 C 
HETATM    6  N1  UNL     1      21.391   2.624  51.070  1.00  0.00    -0.254 NA
HETATM    7  C5  UNL     1      21.914   3.146  49.864  1.00  0.00     0.235 C 
HETATM    8  N2  UNL     1      22.918   3.931  49.501  1.00  0.00    -0.218 NA
HETATM    9  C6  UNL     1      23.749   4.445  50.485  1.00  0.00     0.165 C 
HETATM   10  S1  UNL     1      24.322   5.953  50.814  1.00  0.00    -0.071 SA
HETATM   11  C16 UNL     1      23.454   7.175  50.246  1.00  0.00     0.109 C 
HETATM   12  P1  UNL     1      21.877   6.995  50.640  1.00  0.00     0.023 P 
HETATM   13  H17 UNL     1      21.802   7.398  52.044  1.00  0.00     0.088 HD
ENDROOT
BRANCH   9  14
HETATM   14  N3  UNL     1      24.393   3.733  51.571  1.00  0.00    -0.364 N 
HETATM   15  H7  UNL     1      24.483   4.371  52.418  1.00  0.00     0.162 HD
BRANCH  14  16
HETATM   16  C7  UNL     1      24.978   2.450  51.942  1.00  0.00     0.092 A 
HETATM   17  C8  UNL     1      24.210   1.455  52.735  1.00  0.00     0.037 A 
HETATM   18  C9  UNL     1      25.215   2.260  53.434  1.00  0.00     0.043 A 
BRANCH  18  19
HETATM   19  C10 UNL     1      26.545   1.727  53.820  1.00  0.00    -0.052 A 
HETATM   20  C11 UNL     1      27.706   2.403  53.460  1.00  0.00     0.007 A 
HETATM   21  C12 UNL     1      28.987   1.981  53.776  1.00  0.00     0.001 A 
HETATM   22  C13 UNL     1      29.130   0.806  54.501  1.00  0.00     0.000 A 
HETATM   23  C14 UNL     1      27.989   0.125  54.865  1.00  0.00     0.001 A 
HETATM   24  C15 UNL     1      26.727   0.572  54.535  1.00  0.00     0.007 A 
ENDBRANCH  18  19
ENDBRANCH  14  16
ENDBRANCH   9  14
BRANCH  12  25
HETATM   25  O2  UNL     1      20.995   8.126  49.839  1.00  0.00    -0.371 OA
HETATM   26  C17 UNL     1      21.756   9.068  49.169  1.00  0.00     0.206 C 
ENDBRANCH  12  25
TORSDOF 4
ENDMDL
