MODEL 1
REMARK VINA RESULT:      -7.5      0.000      0.000
REMARK  6 active torsions:
REMARK  status: ('A' for Active; 'I' for Inactive)
REMARK    1  A    between atoms: C1_2  and  C2_3 
REMARK    2  A    between atoms: C5_7  and  N2_8 
REMARK    3  A    between atoms: N2_8  and  C6_9 
REMARK    4  A    between atoms: C7_10  and  C8_11 
REMARK    5  A    between atoms: C9_12  and  C10_14 
REMARK    6  A    between atoms: C10_14  and  C11_15 
ROOT
HETATM    1  C6  UNL     1      26.351   3.153  50.270  1.00  0.00     0.085 C 
HETATM    2  C7  UNL     1      26.663   2.499  51.386  1.00  0.00     0.018 C 
ENDROOT
BRANCH   1   3
HETATM    3  N2  UNL     1      26.759   4.499  50.063  1.00  0.00    -0.374 N 
HETATM    4  H6  UNL     1      27.582   4.852  50.597  1.00  0.00     0.161 HD
BRANCH   3   5
HETATM    5  C5  UNL     1      25.993   5.307  49.104  1.00  0.00     0.231 C 
HETATM    6  N1  UNL     1      25.944   6.659  49.562  1.00  0.00    -0.272 NA
HETATM    7  C4  UNL     1      25.284   7.273  50.481  1.00  0.00     0.114 C 
HETATM    8  C3  UNL     1      24.324   6.585  51.346  1.00  0.00     0.031 C 
HETATM    9  C2  UNL     1      23.587   5.487  51.100  1.00  0.00     0.010 C 
HETATM   10  C18 UNL     1      23.596   4.710  49.842  1.00  0.00     0.125 C 
HETATM   11  C17 UNL     1      24.648   4.655  49.007  1.00  0.00     0.064 C 
HETATM   12  F2  UNL     1      22.471   4.039  49.560  1.00  0.00    -0.206 F 
BRANCH   9  13
HETATM   13  C1  UNL     1      22.654   4.954  52.155  1.00  0.00     0.263 C 
HETATM   14  F1  UNL     1      22.942   3.648  52.405  1.00  0.00    -0.250 F 
ENDBRANCH   9  13
ENDBRANCH   3   5
ENDBRANCH   1   3
BRANCH   2  15
HETATM   15  C8  UNL     1      26.244   1.103  51.611  1.00  0.00     0.021 C 
HETATM   16  C9  UNL     1      25.611   0.842  52.733  1.00  0.00     0.016 C 
HETATM   17 CL1  UNL     1      25.327   2.153  53.842  1.00  0.00    -0.089 Cl
BRANCH  16  18
HETATM   18  C10 UNL     1      25.110  -0.494  53.143  1.00  0.00     0.091 C 
BRANCH  18  19
HETATM   19  C11 UNL     1      23.633  -0.377  53.397  1.00  0.00    -0.031 A 
HETATM   20  C12 UNL     1      22.760   0.128  52.457  1.00  0.00     0.009 A 
HETATM   21  C13 UNL     1      21.408   0.254  52.635  1.00  0.00     0.001 A 
HETATM   22  C14 UNL     1      20.871  -0.155  53.847  1.00  0.00     0.002 A 
HETATM   23  C15 UNL     1      21.710  -0.675  54.835  1.00  0.00     0.024 A 
HETATM   24  C16 UNL     1      23.065  -0.777  54.596  1.00  0.00     0.040 A 
HETATM   25 CL2  UNL     1      24.117  -1.428  55.834  1.00  0.00    -0.084 Cl
ENDBRANCH  18  19
ENDBRANCH  16  18
ENDBRANCH   2  15
TORSDOF 6
ENDMDL
MODEL 2
REMARK VINA RESULT:      -7.3      4.535      8.482
REMARK  6 active torsions:
REMARK  status: ('A' for Active; 'I' for Inactive)
REMARK    1  A    between atoms: C1_2  and  C2_3 
REMARK    2  A    between atoms: C5_7  and  N2_8 
REMARK    3  A    between atoms: N2_8  and  C6_9 
REMARK    4  A    between atoms: C7_10  and  C8_11 
REMARK    5  A    between atoms: C9_12  and  C10_14 
REMARK    6  A    between atoms: C10_14  and  C11_15 
ROOT
HETATM    1  C6  UNL     1      25.838   2.234  51.149  1.00  0.00     0.085 C 
HETATM    2  C7  UNL     1      26.464   3.165  50.433  1.00  0.00     0.018 C 
ENDROOT
BRANCH   1   3
HETATM    3  N2  UNL     1      26.518   1.072  51.608  1.00  0.00    -0.374 N 
HETATM    4  H6  UNL     1      27.493   0.910  51.278  1.00  0.00     0.161 HD
BRANCH   3   5
HETATM    5  C5  UNL     1      25.798   0.175  52.522  1.00  0.00     0.231 C 
HETATM    6  N1  UNL     1      25.835   0.719  53.842  1.00  0.00    -0.272 NA
HETATM    7  C4  UNL     1      26.736   0.794  54.758  1.00  0.00     0.114 C 
HETATM    8  C3  UNL     1      28.083   0.250  54.575  1.00  0.00     0.031 C 
HETATM    9  C2  UNL     1      28.494  -0.770  53.802  1.00  0.00     0.010 C 
HETATM   10  C18 UNL     1      27.626  -1.594  52.933  1.00  0.00     0.125 C 
HETATM   11  C17 UNL     1      26.473  -1.156  52.400  1.00  0.00     0.064 C 
HETATM   12  F2  UNL     1      28.055  -2.841  52.692  1.00  0.00    -0.206 F 
BRANCH   9  13
HETATM   13  C1  UNL     1      29.950  -1.156  53.775  1.00  0.00     0.263 C 
HETATM   14  F1  UNL     1      30.704  -0.079  53.420  1.00  0.00    -0.250 F 
ENDBRANCH   9  13
ENDBRANCH   3   5
ENDBRANCH   1   3
BRANCH   2  15
HETATM   15  C8  UNL     1      25.769   4.373  49.953  1.00  0.00     0.021 C 
HETATM   16  C9  UNL     1      26.393   5.106  49.057  1.00  0.00     0.016 C 
HETATM   17 CL1  UNL     1      27.967   4.590  48.524  1.00  0.00    -0.089 Cl
BRANCH  16  18
HETATM   18  C10 UNL     1      25.864   6.353  48.451  1.00  0.00     0.091 C 
BRANCH  18  19
HETATM   19  C11 UNL     1      26.745   7.490  48.886  1.00  0.00    -0.031 A 
HETATM   20  C12 UNL     1      27.968   7.742  48.302  1.00  0.00     0.009 A 
HETATM   21  C13 UNL     1      28.807   8.764  48.658  1.00  0.00     0.001 A 
HETATM   22  C14 UNL     1      28.405   9.611  49.680  1.00  0.00     0.002 A 
HETATM   23  C15 UNL     1      27.174   9.401  50.307  1.00  0.00     0.024 A 
HETATM   24  C16 UNL     1      26.371   8.354  49.903  1.00  0.00     0.040 A 
HETATM   25 CL2  UNL     1      24.830   8.090  50.689  1.00  0.00    -0.084 Cl
ENDBRANCH  18  19
ENDBRANCH  16  18
ENDBRANCH   2  15
TORSDOF 6
ENDMDL
MODEL 3
REMARK VINA RESULT:      -7.2      4.470      8.708
REMARK  6 active torsions:
REMARK  status: ('A' for Active; 'I' for Inactive)
REMARK    1  A    between atoms: C1_2  and  C2_3 
REMARK    2  A    between atoms: C5_7  and  N2_8 
REMARK    3  A    between atoms: N2_8  and  C6_9 
REMARK    4  A    between atoms: C7_10  and  C8_11 
REMARK    5  A    between atoms: C9_12  and  C10_14 
REMARK    6  A    between atoms: C10_14  and  C11_15 
ROOT
HETATM    1  C6  UNL     1      25.933   2.778  51.092  1.00  0.00     0.085 C 
HETATM    2  C7  UNL     1      26.437   3.379  50.016  1.00  0.00     0.018 C 
ENDROOT
BRANCH   1   3
HETATM    3  N2  UNL     1      26.533   1.609  51.636  1.00  0.00    -0.374 N 
HETATM    4  H6  UNL     1      27.529   1.411  51.399  1.00  0.00     0.161 HD
BRANCH   3   5
HETATM    5  C5  UNL     1      25.706   0.755  52.500  1.00  0.00     0.231 C 
HETATM    6  N1  UNL     1      25.852   1.178  53.856  1.00  0.00    -0.272 NA
HETATM    7  C4  UNL     1      26.773   1.044  54.745  1.00  0.00     0.114 C 
HETATM    8  C3  UNL     1      28.020   0.325  54.476  1.00  0.00     0.031 C 
HETATM    9  C2  UNL     1      28.258  -0.678  53.613  1.00  0.00     0.010 C 
HETATM   10  C18 UNL     1      27.259  -1.291  52.711  1.00  0.00     0.125 C 
HETATM   11  C17 UNL     1      26.173  -0.646  52.252  1.00  0.00     0.064 C 
HETATM   12  F2  UNL     1      27.492  -2.563  52.359  1.00  0.00    -0.206 F 
BRANCH   9  13
HETATM   13  C1  UNL     1      29.639  -1.269  53.507  1.00  0.00     0.263 C 
HETATM   14  F1  UNL     1      30.569  -0.276  53.552  1.00  0.00    -0.250 F 
ENDBRANCH   9  13
ENDBRANCH   3   5
ENDBRANCH   1   3
BRANCH   2  15
HETATM   15  C8  UNL     1      25.822   4.591  49.444  1.00  0.00     0.021 C 
HETATM   16  C9  UNL     1      26.598   5.373  48.728  1.00  0.00     0.016 C 
HETATM   17 CL1  UNL     1      28.264   4.915  48.521  1.00  0.00    -0.089 Cl
BRANCH  16  18
HETATM   18  C10 UNL     1      26.171   6.634  48.070  1.00  0.00     0.091 C 
BRANCH  18  19
HETATM   19  C11 UNL     1      26.983   7.758  48.650  1.00  0.00    -0.031 A 
HETATM   20  C12 UNL     1      26.718   8.295  49.892  1.00  0.00     0.009 A 
HETATM   21  C13 UNL     1      27.425   9.316  50.468  1.00  0.00     0.001 A 
HETATM   22  C14 UNL     1      28.487   9.855  49.755  1.00  0.00     0.002 A 
HETATM   23  C15 UNL     1      28.799   9.348  48.491  1.00  0.00     0.024 A 
HETATM   24  C16 UNL     1      28.049   8.317  47.964  1.00  0.00     0.040 A 
HETATM   25 CL2  UNL     1      28.439   7.682  46.381  1.00  0.00    -0.084 Cl
ENDBRANCH  18  19
ENDBRANCH  16  18
ENDBRANCH   2  15
TORSDOF 6
ENDMDL
MODEL 4
REMARK VINA RESULT:      -7.2      3.642      6.224
REMARK  6 active torsions:
REMARK  status: ('A' for Active; 'I' for Inactive)
REMARK    1  A    between atoms: C1_2  and  C2_3 
REMARK    2  A    between atoms: C5_7  and  N2_8 
REMARK    3  A    between atoms: N2_8  and  C6_9 
REMARK    4  A    between atoms: C7_10  and  C8_11 
REMARK    5  A    between atoms: C9_12  and  C10_14 
REMARK    6  A    between atoms: C10_14  and  C11_15 
ROOT
HETATM    1  C6  UNL     1      26.459   2.445  51.340  1.00  0.00     0.085 C 
HETATM    2  C7  UNL     1      26.348   3.441  50.464  1.00  0.00     0.018 C 
ENDROOT
BRANCH   1   3
HETATM    3  N2  UNL     1      27.465   2.452  52.345  1.00  0.00    -0.374 N 
HETATM    4  H6  UNL     1      28.445   2.665  52.060  1.00  0.00     0.161 HD
BRANCH   3   5
HETATM    5  C5  UNL     1      27.054   2.159  53.725  1.00  0.00     0.231 C 
HETATM    6  N1  UNL     1      28.178   1.663  54.454  1.00  0.00    -0.272 NA
HETATM    7  C4  UNL     1      28.801   0.537  54.488  1.00  0.00     0.114 C 
HETATM    8  C3  UNL     1      28.403  -0.601  53.658  1.00  0.00     0.031 C 
HETATM    9  C2  UNL     1      27.192  -0.919  53.168  1.00  0.00     0.010 C 
HETATM   10  C18 UNL     1      25.950  -0.144  53.377  1.00  0.00     0.125 C 
HETATM   11  C17 UNL     1      25.928   1.179  53.615  1.00  0.00     0.064 C 
HETATM   12  F2  UNL     1      24.807  -0.842  53.317  1.00  0.00    -0.206 F 
BRANCH   9  13
HETATM   13  C1  UNL     1      27.020  -2.157  52.328  1.00  0.00     0.263 C 
HETATM   14  F1  UNL     1      27.956  -3.082  52.677  1.00  0.00    -0.250 F 
ENDBRANCH   9  13
ENDBRANCH   3   5
ENDBRANCH   1   3
BRANCH   2  15
HETATM   15  C8  UNL     1      25.310   3.442  49.417  1.00  0.00     0.021 C 
HETATM   16  C9  UNL     1      24.319   4.294  49.560  1.00  0.00     0.016 C 
HETATM   17 CL1  UNL     1      24.320   5.332  50.957  1.00  0.00    -0.089 Cl
BRANCH  16  18
HETATM   18  C10 UNL     1      23.181   4.449  48.619  1.00  0.00     0.091 C 
BRANCH  18  19
HETATM   19  C11 UNL     1      22.181   3.367  48.917  1.00  0.00    -0.031 A 
HETATM   20  C12 UNL     1      22.292   2.096  48.395  1.00  0.00     0.009 A 
HETATM   21  C13 UNL     1      21.413   1.074  48.635  1.00  0.00     0.001 A 
HETATM   22  C14 UNL     1      20.329   1.329  49.463  1.00  0.00     0.002 A 
HETATM   23  C15 UNL     1      20.168   2.601  50.019  1.00  0.00     0.024 A 
HETATM   24  C16 UNL     1      21.089   3.590  49.740  1.00  0.00     0.040 A 
HETATM   25 CL2  UNL     1      20.888   5.183  50.436  1.00  0.00    -0.084 Cl
ENDBRANCH  18  19
ENDBRANCH  16  18
ENDBRANCH   2  15
TORSDOF 6
ENDMDL
MODEL 5
REMARK VINA RESULT:      -7.1      2.903      4.568
REMARK  6 active torsions:
REMARK  status: ('A' for Active; 'I' for Inactive)
REMARK    1  A    between atoms: C1_2  and  C2_3 
REMARK    2  A    between atoms: C5_7  and  N2_8 
REMARK    3  A    between atoms: N2_8  and  C6_9 
REMARK    4  A    between atoms: C7_10  and  C8_11 
REMARK    5  A    between atoms: C9_12  and  C10_14 
REMARK    6  A    between atoms: C10_14  and  C11_15 
ROOT
HETATM    1  C6  UNL     1      22.895   3.684  52.145  1.00  0.00     0.085 C 
HETATM    2  C7  UNL     1      24.031   3.283  52.711  1.00  0.00     0.018 C 
ENDROOT
BRANCH   1   3
HETATM    3  N2  UNL     1      22.792   4.954  51.513  1.00  0.00    -0.374 N 
HETATM    4  H6  UNL     1      23.068   5.799  52.057  1.00  0.00     0.161 HD
BRANCH   3   5
HETATM    5  C5  UNL     1      22.301   4.991  50.128  1.00  0.00     0.231 C 
HETATM    6  N1  UNL     1      22.533   3.722  49.513  1.00  0.00    -0.272 NA
HETATM    7  C4  UNL     1      23.573   3.130  49.041  1.00  0.00     0.114 C 
HETATM    8  C3  UNL     1      24.899   3.749  49.056  1.00  0.00     0.031 C 
HETATM    9  C2  UNL     1      25.234   5.051  49.035  1.00  0.00     0.010 C 
HETATM   10  C18 UNL     1      24.282   6.183  48.990  1.00  0.00     0.125 C 
HETATM   11  C17 UNL     1      23.028   6.121  49.469  1.00  0.00     0.064 C 
HETATM   12  F2  UNL     1      24.741   7.311  48.431  1.00  0.00    -0.206 F 
BRANCH   9  13
HETATM   13  C1  UNL     1      26.684   5.458  49.056  1.00  0.00     0.263 C 
HETATM   14  F1  UNL     1      27.424   4.553  48.357  1.00  0.00    -0.250 F 
ENDBRANCH   9  13
ENDBRANCH   3   5
ENDBRANCH   1   3
BRANCH   2  15
HETATM   15  C8  UNL     1      24.149   1.969  53.370  1.00  0.00     0.021 C 
HETATM   16  C9  UNL     1      25.078   1.156  52.919  1.00  0.00     0.016 C 
HETATM   17 CL1  UNL     1      26.076   1.696  51.600  1.00  0.00    -0.089 Cl
BRANCH  16  18
HETATM   18  C10 UNL     1      25.354  -0.204  53.446  1.00  0.00     0.091 C 
BRANCH  18  19
HETATM   19  C11 UNL     1      26.838  -0.329  53.652  1.00  0.00    -0.031 A 
HETATM   20  C12 UNL     1      27.541   0.514  54.486  1.00  0.00     0.009 A 
HETATM   21  C13 UNL     1      28.889   0.443  54.712  1.00  0.00     0.001 A 
HETATM   22  C14 UNL     1      29.608  -0.546  54.057  1.00  0.00     0.002 A 
HETATM   23  C15 UNL     1      28.945  -1.429  53.199  1.00  0.00     0.024 A 
HETATM   24  C16 UNL     1      27.583  -1.306  53.013  1.00  0.00     0.040 A 
HETATM   25 CL2  UNL     1      26.753  -2.411  51.939  1.00  0.00    -0.084 Cl
ENDBRANCH  18  19
ENDBRANCH  16  18
ENDBRANCH   2  15
TORSDOF 6
ENDMDL
MODEL 6
REMARK VINA RESULT:      -7.0      3.932      6.225
REMARK  6 active torsions:
REMARK  status: ('A' for Active; 'I' for Inactive)
REMARK    1  A    between atoms: C1_2  and  C2_3 
REMARK    2  A    between atoms: C5_7  and  N2_8 
REMARK    3  A    between atoms: N2_8  and  C6_9 
REMARK    4  A    between atoms: C7_10  and  C8_11 
REMARK    5  A    between atoms: C9_12  and  C10_14 
REMARK    6  A    between atoms: C10_14  and  C11_15 
ROOT
HETATM    1  C6  UNL     1      24.672  -1.236  53.471  1.00  0.00     0.085 C 
HETATM    2  C7  UNL     1      23.977  -0.375  54.210  1.00  0.00     0.018 C 
ENDROOT
BRANCH   1   3
HETATM    3  N2  UNL     1      26.013  -1.577  53.797  1.00  0.00    -0.374 N 
HETATM    4  H6  UNL     1      26.257  -1.709  54.802  1.00  0.00     0.161 HD
BRANCH   3   5
HETATM    5  C5  UNL     1      26.971  -1.721  52.692  1.00  0.00     0.231 C 
HETATM    6  N1  UNL     1      28.275  -1.950  53.227  1.00  0.00    -0.272 NA
HETATM    7  C4  UNL     1      29.161  -1.203  53.787  1.00  0.00     0.114 C 
HETATM    8  C3  UNL     1      28.949   0.229  54.004  1.00  0.00     0.031 C 
HETATM    9  C2  UNL     1      28.190   1.095  53.311  1.00  0.00     0.010 C 
HETATM   10  C18 UNL     1      27.369   0.762  52.126  1.00  0.00     0.125 C 
HETATM   11  C17 UNL     1      26.861  -0.460  51.892  1.00  0.00     0.064 C 
HETATM   12  F2  UNL     1      27.146   1.766  51.268  1.00  0.00    -0.206 F 
BRANCH   9  13
HETATM   13  C1  UNL     1      28.128   2.542  53.725  1.00  0.00     0.263 C 
HETATM   14  F1  UNL     1      29.274   3.176  53.353  1.00  0.00    -0.250 F 
ENDBRANCH   9  13
ENDBRANCH   3   5
ENDBRANCH   1   3
BRANCH   2  15
HETATM   15  C8  UNL     1      22.585  -0.015  53.881  1.00  0.00     0.021 C 
HETATM   16  C9  UNL     1      22.408   1.009  53.076  1.00  0.00     0.016 C 
HETATM   17 CL1  UNL     1      23.815   1.840  52.477  1.00  0.00    -0.089 Cl
BRANCH  16  18
HETATM   18  C10 UNL     1      21.091   1.527  52.626  1.00  0.00     0.091 C 
BRANCH  18  19
HETATM   19  C11 UNL     1      21.177   1.792  51.149  1.00  0.00    -0.031 A 
HETATM   20  C12 UNL     1      21.297   0.778  50.222  1.00  0.00     0.009 A 
HETATM   21  C13 UNL     1      21.376   0.963  48.868  1.00  0.00     0.001 A 
HETATM   22  C14 UNL     1      21.334   2.264  48.386  1.00  0.00     0.002 A 
HETATM   23  C15 UNL     1      21.214   3.330  49.281  1.00  0.00     0.024 A 
HETATM   24  C16 UNL     1      21.138   3.078  50.636  1.00  0.00     0.040 A 
HETATM   25 CL2  UNL     1      20.988   4.413  51.757  1.00  0.00    -0.084 Cl
ENDBRANCH  18  19
ENDBRANCH  16  18
ENDBRANCH   2  15
TORSDOF 6
ENDMDL
MODEL 7
REMARK VINA RESULT:      -6.9      2.957      4.443
REMARK  6 active torsions:
REMARK  status: ('A' for Active; 'I' for Inactive)
REMARK    1  A    between atoms: C1_2  and  C2_3 
REMARK    2  A    between atoms: C5_7  and  N2_8 
REMARK    3  A    between atoms: N2_8  and  C6_9 
REMARK    4  A    between atoms: C7_10  and  C8_11 
REMARK    5  A    between atoms: C9_12  and  C10_14 
REMARK    6  A    between atoms: C10_14  and  C11_15 
ROOT
HETATM    1  C6  UNL     1      22.714   3.257  51.758  1.00  0.00     0.085 C 
HETATM    2  C7  UNL     1      23.655   2.315  51.733  1.00  0.00     0.018 C 
ENDROOT
BRANCH   1   3
HETATM    3  N2  UNL     1      22.158   3.779  50.559  1.00  0.00    -0.374 N 
HETATM    4  H6  UNL     1      22.032   3.132  49.751  1.00  0.00     0.161 HD
BRANCH   3   5
HETATM    5  C5  UNL     1      21.796   5.203  50.536  1.00  0.00     0.231 C 
HETATM    6  N1  UNL     1      21.464   5.582  49.200  1.00  0.00    -0.272 NA
HETATM    7  C4  UNL     1      22.150   5.826  48.138  1.00  0.00     0.114 C 
HETATM    8  C3  UNL     1      23.611   5.741  48.116  1.00  0.00     0.031 C 
HETATM    9  C2  UNL     1      24.492   5.921  49.116  1.00  0.00     0.010 C 
HETATM   10  C18 UNL     1      24.148   6.257  50.515  1.00  0.00     0.125 C 
HETATM   11  C17 UNL     1      22.979   5.933  51.093  1.00  0.00     0.064 C 
HETATM   12  F2  UNL     1      25.086   6.921  51.205  1.00  0.00    -0.206 F 
BRANCH   9  13
HETATM   13  C1  UNL     1      25.969   5.783  48.853  1.00  0.00     0.263 C 
HETATM   14  F1  UNL     1      26.323   4.469  48.905  1.00  0.00    -0.250 F 
ENDBRANCH   9  13
ENDBRANCH   3   5
ENDBRANCH   1   3
BRANCH   2  15
HETATM   15  C8  UNL     1      24.238   1.766  52.972  1.00  0.00     0.021 C 
HETATM   16  C9  UNL     1      25.546   1.654  53.017  1.00  0.00     0.016 C 
HETATM   17 CL1  UNL     1      26.465   2.157  51.627  1.00  0.00    -0.089 Cl
BRANCH  16  18
HETATM   18  C10 UNL     1      26.322   1.127  54.168  1.00  0.00     0.091 C 
BRANCH  18  19
HETATM   19  C11 UNL     1      27.106  -0.064  53.694  1.00  0.00    -0.031 A 
HETATM   20  C12 UNL     1      26.508  -1.149  53.089  1.00  0.00     0.009 A 
HETATM   21  C13 UNL     1      27.175  -2.256  52.637  1.00  0.00     0.001 A 
HETATM   22  C14 UNL     1      28.553  -2.296  52.796  1.00  0.00     0.002 A 
HETATM   23  C15 UNL     1      29.210  -1.223  53.402  1.00  0.00     0.024 A 
HETATM   24  C16 UNL     1      28.482  -0.134  53.837  1.00  0.00     0.040 A 
HETATM   25 CL2  UNL     1      29.306   1.210  54.598  1.00  0.00    -0.084 Cl
ENDBRANCH  18  19
ENDBRANCH  16  18
ENDBRANCH   2  15
TORSDOF 6
ENDMDL
MODEL 8
REMARK VINA RESULT:      -6.9      2.939      4.192
REMARK  6 active torsions:
REMARK  status: ('A' for Active; 'I' for Inactive)
REMARK    1  A    between atoms: C1_2  and  C2_3 
REMARK    2  A    between atoms: C5_7  and  N2_8 
REMARK    3  A    between atoms: N2_8  and  C6_9 
REMARK    4  A    between atoms: C7_10  and  C8_11 
REMARK    5  A    between atoms: C9_12  and  C10_14 
REMARK    6  A    between atoms: C10_14  and  C11_15 
ROOT
HETATM    1  C6  UNL     1      26.161   3.953  50.388  1.00  0.00     0.085 C 
HETATM    2  C7  UNL     1      26.182   2.637  50.588  1.00  0.00     0.018 C 
ENDROOT
BRANCH   1   3
HETATM    3  N2  UNL     1      25.574   4.515  49.221  1.00  0.00    -0.374 N 
HETATM    4  H6  UNL     1      25.888   4.160  48.292  1.00  0.00     0.161 HD
BRANCH   3   5
HETATM    5  C5  UNL     1      24.560   5.562  49.402  1.00  0.00     0.231 C 
HETATM    6  N1  UNL     1      23.823   5.302  50.597  1.00  0.00    -0.272 NA
HETATM    7  C4  UNL     1      22.898   4.467  50.919  1.00  0.00     0.114 C 
HETATM    8  C3  UNL     1      22.362   3.491  49.968  1.00  0.00     0.031 C 
HETATM    9  C2  UNL     1      22.280   3.561  48.628  1.00  0.00     0.010 C 
HETATM   10  C18 UNL     1      22.739   4.695  47.796  1.00  0.00     0.125 C 
HETATM   11  C17 UNL     1      23.723   5.536  48.161  1.00  0.00     0.064 C 
HETATM   12  F2  UNL     1      22.111   4.852  46.623  1.00  0.00    -0.206 F 
BRANCH   9  13
HETATM   13  C1  UNL     1      21.679   2.420  47.849  1.00  0.00     0.263 C 
HETATM   14  F1  UNL     1      22.613   1.896  47.009  1.00  0.00    -0.250 F 
ENDBRANCH   9  13
ENDBRANCH   3   5
ENDBRANCH   1   3
BRANCH   2  15
HETATM   15  C8  UNL     1      26.788   2.045  51.794  1.00  0.00     0.021 C 
HETATM   16  C9  UNL     1      25.970   1.514  52.675  1.00  0.00     0.016 C 
HETATM   17 CL1  UNL     1      24.262   1.557  52.344  1.00  0.00    -0.089 Cl
BRANCH  16  18
HETATM   18  C10 UNL     1      26.382   0.871  53.948  1.00  0.00     0.091 C 
BRANCH  18  19
HETATM   19  C11 UNL     1      27.308  -0.265  53.616  1.00  0.00    -0.031 A 
HETATM   20  C12 UNL     1      26.861  -1.441  53.052  1.00  0.00     0.009 A 
HETATM   21  C13 UNL     1      27.660  -2.505  52.728  1.00  0.00     0.001 A 
HETATM   22  C14 UNL     1      29.020  -2.399  52.984  1.00  0.00     0.002 A 
HETATM   23  C15 UNL     1      29.527  -1.228  53.555  1.00  0.00     0.024 A 
HETATM   24  C16 UNL     1      28.670  -0.190  53.859  1.00  0.00     0.040 A 
HETATM   25 CL2  UNL     1      29.304   1.275  54.575  1.00  0.00    -0.084 Cl
ENDBRANCH  18  19
ENDBRANCH  16  18
ENDBRANCH   2  15
TORSDOF 6
ENDMDL
MODEL 9
REMARK VINA RESULT:      -6.9      3.213      4.655
REMARK  6 active torsions:
REMARK  status: ('A' for Active; 'I' for Inactive)
REMARK    1  A    between atoms: C1_2  and  C2_3 
REMARK    2  A    between atoms: C5_7  and  N2_8 
REMARK    3  A    between atoms: N2_8  and  C6_9 
REMARK    4  A    between atoms: C7_10  and  C8_11 
REMARK    5  A    between atoms: C9_12  and  C10_14 
REMARK    6  A    between atoms: C10_14  and  C11_15 
ROOT
HETATM    1  C6  UNL     1      25.281   3.624  49.605  1.00  0.00     0.085 C 
HETATM    2  C7  UNL     1      25.961   3.351  50.717  1.00  0.00     0.018 C 
ENDROOT
BRANCH   1   3
HETATM    3  N2  UNL     1      25.078   4.962  49.171  1.00  0.00    -0.374 N 
HETATM    4  H6  UNL     1      24.290   5.153  48.515  1.00  0.00     0.161 HD
BRANCH   3   5
HETATM    5  C5  UNL     1      25.994   5.993  49.679  1.00  0.00     0.231 C 
HETATM    6  N1  UNL     1      25.259   6.926  50.471  1.00  0.00    -0.272 NA
HETATM    7  C4  UNL     1      24.453   7.893  50.203  1.00  0.00     0.114 C 
HETATM    8  C3  UNL     1      24.097   8.256  48.831  1.00  0.00     0.031 C 
HETATM    9  C2  UNL     1      24.803   8.103  47.697  1.00  0.00     0.010 C 
HETATM   10  C18 UNL     1      26.152   7.505  47.598  1.00  0.00     0.125 C 
HETATM   11  C17 UNL     1      26.632   6.601  48.469  1.00  0.00     0.064 C 
HETATM   12  F2  UNL     1      26.902   7.920  46.567  1.00  0.00    -0.206 F 
BRANCH   9  13
HETATM   13  C1  UNL     1      24.225   8.559  46.382  1.00  0.00     0.263 C 
HETATM   14  F1  UNL     1      24.110   7.497  45.538  1.00  0.00    -0.250 F 
ENDBRANCH   9  13
ENDBRANCH   3   5
ENDBRANCH   1   3
BRANCH   2  15
HETATM   15  C8  UNL     1      26.176   1.967  51.176  1.00  0.00     0.021 C 
HETATM   16  C9  UNL     1      25.623   1.622  52.317  1.00  0.00     0.016 C 
HETATM   17 CL1  UNL     1      24.695   2.819  53.176  1.00  0.00    -0.089 Cl
BRANCH  16  18
HETATM   18  C10 UNL     1      25.722   0.282  52.948  1.00  0.00     0.091 C 
BRANCH  18  19
HETATM   19  C11 UNL     1      27.168   0.023  53.263  1.00  0.00    -0.031 A 
HETATM   20  C12 UNL     1      27.969   0.960  53.880  1.00  0.00     0.009 A 
HETATM   21  C13 UNL     1      29.289   0.776  54.192  1.00  0.00     0.001 A 
HETATM   22  C14 UNL     1      29.871  -0.441  53.865  1.00  0.00     0.002 A 
HETATM   23  C15 UNL     1      29.105  -1.427  53.238  1.00  0.00     0.024 A 
HETATM   24  C16 UNL     1      27.778  -1.181  52.950  1.00  0.00     0.040 A 
HETATM   25 CL2  UNL     1      26.819  -2.415  52.163  1.00  0.00    -0.084 Cl
ENDBRANCH  18  19
ENDBRANCH  16  18
ENDBRANCH   2  15
TORSDOF 6
ENDMDL
