MODEL 1
REMARK VINA RESULT:      -9.1      0.000      0.000
REMARK  0 active torsions:
REMARK  status: ('A' for Active; 'I' for Inactive)
ROOT
HETATM    1  C1  UNL     1      24.210   4.024  49.263  1.00  0.00     0.004 C 
HETATM    2  C2  UNL     1      22.954   4.555  48.980  1.00  0.00     0.132 C 
HETATM    3  N1  UNL     1      21.782   4.221  49.825  1.00  0.00    -0.385 N 
HETATM    4  C3  UNL     1      21.591   3.135  50.841  1.00  0.00     0.025 C 
HETATM    5  C4  UNL     1      21.117   2.005  50.258  1.00  0.00     0.028 C 
HETATM    6  C5  UNL     1      20.734   0.600  50.539  1.00  0.00     0.026 C 
HETATM    7  C6  UNL     1      20.899  -0.060  51.675  1.00  0.00     0.134 C 
HETATM    8  O1  UNL     1      21.583   0.943  52.464  1.00  0.00    -0.362 OA
HETATM    9  C7  UNL     1      23.004   0.811  52.350  1.00  0.00     0.186 C 
HETATM   10  C8  UNL     1      24.002   1.656  52.853  1.00  0.00     0.077 C 
HETATM   11  C9  UNL     1      23.922   3.130  52.849  1.00  0.00     0.039 C 
HETATM   12  N2  UNL     1      23.068   4.024  52.580  1.00  0.00    -0.288 NA
HETATM   13  C10 UNL     1      21.757   3.820  52.145  1.00  0.00     0.205 C 
HETATM   14  C11 UNL     1      25.305   3.446  53.310  1.00  0.00     0.060 C 
HETATM   15  C12 UNL     1      26.109   2.357  53.222  1.00  0.00     0.060 C 
HETATM   16  O2  UNL     1      27.233   2.203  53.969  1.00  0.00    -0.336 OA
HETATM   17  C13 UNL     1      28.541   2.566  53.717  1.00  0.00     0.292 C 
HETATM   18  N3  UNL     1      29.409   1.765  54.507  1.00  0.00    -0.399 N 
HETATM   19  C14 UNL     1      29.469   0.388  54.229  1.00  0.00     0.142 C 
HETATM   20  C15 UNL     1      28.271  -0.446  54.531  1.00  0.00     0.186 C 
HETATM   21  O3  UNL     1      27.116  -0.144  53.872  1.00  0.00    -0.390 OA
HETATM   22  C16 UNL     1      27.135  -0.242  52.508  1.00  0.00     0.168 C 
HETATM   23  C17 UNL     1      25.782   0.186  51.972  1.00  0.00     0.044 C 
HETATM   24  C18 UNL     1      25.383   1.567  52.179  1.00  0.00     0.026 C 
HETATM   25  C19 UNL     1      25.500   2.425  50.975  1.00  0.00     0.012 C 
HETATM   26  C20 UNL     1      25.368   3.253  49.901  1.00  0.00    -0.002 C 
HETATM   27  H3  UNL     1      20.900   4.691  49.808  1.00  0.00     0.160 HD
HETATM   28  H15 UNL     1      29.448   2.040  55.493  1.00  0.00     0.155 HD
ENDROOT
TORSDOF 0
ENDMDL
MODEL 2
REMARK VINA RESULT:      -8.6      1.482      1.663
REMARK  0 active torsions:
REMARK  status: ('A' for Active; 'I' for Inactive)
ROOT
HETATM    1  C1  UNL     1      22.593   2.910  48.888  1.00  0.00     0.004 C 
HETATM    2  C2  UNL     1      21.351   3.421  48.518  1.00  0.00     0.132 C 
HETATM    3  N1  UNL     1      20.219   3.430  49.478  1.00  0.00    -0.385 N 
HETATM    4  C3  UNL     1      20.037   2.704  50.777  1.00  0.00     0.025 C 
HETATM    5  C4  UNL     1      19.468   1.488  50.575  1.00  0.00     0.028 C 
HETATM    6  C5  UNL     1      19.031   0.256  51.276  1.00  0.00     0.026 C 
HETATM    7  C6  UNL     1      19.234  -0.054  52.547  1.00  0.00     0.134 C 
HETATM    8  O1  UNL     1      20.018   1.087  52.972  1.00  0.00    -0.362 OA
HETATM    9  C7  UNL     1      21.420   0.829  52.838  1.00  0.00     0.186 C 
HETATM   10  C8  UNL     1      22.492   1.713  53.023  1.00  0.00     0.077 C 
HETATM   11  C9  UNL     1      22.489   3.124  52.588  1.00  0.00     0.039 C 
HETATM   12  N2  UNL     1      21.668   3.957  52.106  1.00  0.00    -0.288 NA
HETATM   13  C10 UNL     1      20.323   3.726  51.811  1.00  0.00     0.205 C 
HETATM   14  C11 UNL     1      23.913   3.464  52.870  1.00  0.00     0.060 C 
HETATM   15  C12 UNL     1      24.652   2.345  53.072  1.00  0.00     0.060 C 
HETATM   16  O2  UNL     1      25.812   2.339  53.778  1.00  0.00    -0.336 OA
HETATM   17  C13 UNL     1      27.118   2.521  53.371  1.00  0.00     0.292 C 
HETATM   18  N3  UNL     1      27.992   1.927  54.322  1.00  0.00    -0.399 N 
HETATM   19  C14 UNL     1      27.962   0.529  54.460  1.00  0.00     0.142 C 
HETATM   20  C15 UNL     1      26.743  -0.096  55.049  1.00  0.00     0.186 C 
HETATM   21  O3  UNL     1      25.566   0.079  54.384  1.00  0.00    -0.390 OA
HETATM   22  C16 UNL     1      25.492  -0.413  53.110  1.00  0.00     0.168 C 
HETATM   23  C17 UNL     1      24.132  -0.069  52.535  1.00  0.00     0.044 C 
HETATM   24  C18 UNL     1      23.820   1.337  52.342  1.00  0.00     0.026 C 
HETATM   25  C19 UNL     1      23.904   1.796  50.935  1.00  0.00     0.012 C 
HETATM   26  C20 UNL     1      23.748   2.281  49.671  1.00  0.00    -0.002 C 
HETATM   27  H3  UNL     1      19.364   3.934  49.363  1.00  0.00     0.160 HD
HETATM   28  H15 UNL     1      28.108   2.475  55.179  1.00  0.00     0.155 HD
ENDROOT
TORSDOF 0
ENDMDL
MODEL 3
REMARK VINA RESULT:      -8.3      2.367      4.452
REMARK  0 active torsions:
REMARK  status: ('A' for Active; 'I' for Inactive)
ROOT
HETATM    1  C1  UNL     1      22.056   5.740  51.590  1.00  0.00     0.004 C 
HETATM    2  C2  UNL     1      21.865   6.533  50.462  1.00  0.00     0.132 C 
HETATM    3  N1  UNL     1      22.584   6.238  49.198  1.00  0.00    -0.385 N 
HETATM    4  C3  UNL     1      23.769   5.359  48.933  1.00  0.00     0.025 C 
HETATM    5  C4  UNL     1      24.927   6.051  49.081  1.00  0.00     0.028 C 
HETATM    6  C5  UNL     1      26.403   5.910  49.039  1.00  0.00     0.026 C 
HETATM    7  C6  UNL     1      27.094   4.787  48.913  1.00  0.00     0.134 C 
HETATM    8  O1  UNL     1      26.018   3.818  48.899  1.00  0.00    -0.362 OA
HETATM    9  C7  UNL     1      25.746   3.330  50.217  1.00  0.00     0.186 C 
HETATM   10  C8  UNL     1      24.710   2.485  50.638  1.00  0.00     0.077 C 
HETATM   11  C9  UNL     1      23.321   2.567  50.147  1.00  0.00     0.039 C 
HETATM   12  N2  UNL     1      22.673   3.193  49.258  1.00  0.00    -0.288 NA
HETATM   13  C10 UNL     1      23.187   4.124  48.354  1.00  0.00     0.205 C 
HETATM   14  C11 UNL     1      22.682   1.586  51.071  1.00  0.00     0.060 C 
HETATM   15  C12 UNL     1      23.496   1.300  52.117  1.00  0.00     0.060 C 
HETATM   16  O2  UNL     1      23.404   0.151  52.835  1.00  0.00    -0.336 OA
HETATM   17  C13 UNL     1      22.676  -0.150  53.969  1.00  0.00     0.292 C 
HETATM   18  N3  UNL     1      23.278  -1.252  54.633  1.00  0.00    -0.399 N 
HETATM   19  C14 UNL     1      24.554  -1.066  55.193  1.00  0.00     0.142 C 
HETATM   20  C15 UNL     1      25.708  -0.871  54.270  1.00  0.00     0.186 C 
HETATM   21  O3  UNL     1      25.675   0.215  53.447  1.00  0.00    -0.390 OA
HETATM   22  C16 UNL     1      25.638   1.446  54.043  1.00  0.00     0.168 C 
HETATM   23  C17 UNL     1      25.550   2.506  52.962  1.00  0.00     0.044 C 
HETATM   24  C18 UNL     1      24.355   2.525  52.135  1.00  0.00     0.026 C 
HETATM   25  C19 UNL     1      23.391   3.598  52.477  1.00  0.00     0.012 C 
HETATM   26  C20 UNL     1      22.536   4.656  52.560  1.00  0.00    -0.002 C 
HETATM   27  H3  UNL     1      22.373   6.633  48.304  1.00  0.00     0.160 HD
HETATM   28  H15 UNL     1      23.095  -2.157  54.189  1.00  0.00     0.155 HD
ENDROOT
TORSDOF 0
ENDMDL
MODEL 4
REMARK VINA RESULT:      -8.2      1.661      1.965
REMARK  0 active torsions:
REMARK  status: ('A' for Active; 'I' for Inactive)
ROOT
HETATM    1  C1  UNL     1      23.369   4.025  48.654  1.00  0.00     0.004 C 
HETATM    2  C2  UNL     1      22.384   4.897  48.197  1.00  0.00     0.132 C 
HETATM    3  N1  UNL     1      21.197   5.203  49.032  1.00  0.00    -0.385 N 
HETATM    4  C3  UNL     1      20.657   4.514  50.249  1.00  0.00     0.025 C 
HETATM    5  C4  UNL     1      19.787   3.531  49.902  1.00  0.00     0.028 C 
HETATM    6  C5  UNL     1      18.930   2.458  50.462  1.00  0.00     0.026 C 
HETATM    7  C6  UNL     1      18.880   2.052  51.721  1.00  0.00     0.134 C 
HETATM    8  O1  UNL     1      19.905   2.890  52.307  1.00  0.00    -0.362 OA
HETATM    9  C7  UNL     1      21.177   2.233  52.299  1.00  0.00     0.186 C 
HETATM   10  C8  UNL     1      22.429   2.750  52.658  1.00  0.00     0.077 C 
HETATM   11  C9  UNL     1      22.889   4.114  52.329  1.00  0.00     0.039 C 
HETATM   12  N2  UNL     1      22.410   5.172  51.827  1.00  0.00    -0.288 NA
HETATM   13  C10 UNL     1      21.101   5.363  51.379  1.00  0.00     0.205 C 
HETATM   14  C11 UNL     1      24.306   4.004  52.781  1.00  0.00     0.060 C 
HETATM   15  C12 UNL     1      24.657   2.708  52.975  1.00  0.00     0.060 C 
HETATM   16  O2  UNL     1      25.672   2.330  53.795  1.00  0.00    -0.336 OA
HETATM   17  C13 UNL     1      27.013   2.132  53.538  1.00  0.00     0.292 C 
HETATM   18  N3  UNL     1      27.557   1.268  54.528  1.00  0.00    -0.399 N 
HETATM   19  C14 UNL     1      27.104  -0.063  54.559  1.00  0.00     0.142 C 
HETATM   20  C15 UNL     1      25.696  -0.320  54.973  1.00  0.00     0.186 C 
HETATM   21  O3  UNL     1      24.709   0.223  54.205  1.00  0.00    -0.390 OA
HETATM   22  C16 UNL     1      24.648  -0.174  52.897  1.00  0.00     0.168 C 
HETATM   23  C17 UNL     1      23.526   0.582  52.212  1.00  0.00     0.044 C 
HETATM   24  C18 UNL     1      23.662   2.023  52.091  1.00  0.00     0.026 C 
HETATM   25  C19 UNL     1      24.045   2.492  50.738  1.00  0.00     0.012 C 
HETATM   26  C20 UNL     1      24.189   3.050  49.504  1.00  0.00    -0.002 C 
HETATM   27  H3  UNL     1      20.546   5.943  48.867  1.00  0.00     0.160 HD
HETATM   28  H15 UNL     1      27.723   1.722  55.431  1.00  0.00     0.155 HD
ENDROOT
TORSDOF 0
ENDMDL
MODEL 5
REMARK VINA RESULT:      -8.2      3.063      5.531
REMARK  0 active torsions:
REMARK  status: ('A' for Active; 'I' for Inactive)
ROOT
HETATM    1  C1  UNL     1      21.776   1.524  48.781  1.00  0.00     0.004 C 
HETATM    2  C2  UNL     1      20.957   0.752  49.602  1.00  0.00     0.132 C 
HETATM    3  N1  UNL     1      21.031   0.876  51.079  1.00  0.00    -0.385 N 
HETATM    4  C3  UNL     1      22.069   1.514  51.952  1.00  0.00     0.025 C 
HETATM    5  C4  UNL     1      23.040   0.623  52.278  1.00  0.00     0.028 C 
HETATM    6  C5  UNL     1      24.324   0.487  53.008  1.00  0.00     0.026 C 
HETATM    7  C6  UNL     1      25.035   1.459  53.559  1.00  0.00     0.134 C 
HETATM    8  O1  UNL     1      24.241   2.610  53.183  1.00  0.00    -0.362 OA
HETATM    9  C7  UNL     1      24.700   3.173  51.949  1.00  0.00     0.186 C 
HETATM   10  C8  UNL     1      24.127   4.205  51.194  1.00  0.00     0.077 C 
HETATM   11  C9  UNL     1      22.676   4.370  50.980  1.00  0.00     0.039 C 
HETATM   12  N2  UNL     1      21.599   3.853  51.399  1.00  0.00    -0.288 NA
HETATM   13  C10 UNL     1      21.478   2.820  52.330  1.00  0.00     0.205 C 
HETATM   14  C11 UNL     1      22.705   5.475  49.979  1.00  0.00     0.060 C 
HETATM   15  C12 UNL     1      23.949   5.632  49.462  1.00  0.00     0.060 C 
HETATM   16  O2  UNL     1      24.382   6.795  48.912  1.00  0.00    -0.336 OA
HETATM   17  C13 UNL     1      24.329   7.254  47.611  1.00  0.00     0.292 C 
HETATM   18  N3  UNL     1      25.333   8.242  47.421  1.00  0.00    -0.399 N 
HETATM   19  C14 UNL     1      26.677   7.837  47.494  1.00  0.00     0.142 C 
HETATM   20  C15 UNL     1      27.215   7.408  48.816  1.00  0.00     0.186 C 
HETATM   21  O3  UNL     1      26.633   6.327  49.408  1.00  0.00    -0.390 OA
HETATM   22  C16 UNL     1      26.695   5.140  48.731  1.00  0.00     0.168 C 
HETATM   23  C17 UNL     1      25.948   4.088  49.529  1.00  0.00     0.044 C 
HETATM   24  C18 UNL     1      24.518   4.269  49.707  1.00  0.00     0.026 C 
HETATM   25  C19 UNL     1      23.678   3.402  48.846  1.00  0.00     0.012 C 
HETATM   26  C20 UNL     1      22.814   2.523  48.265  1.00  0.00    -0.002 C 
HETATM   27  H3  UNL     1      20.367   0.505  51.726  1.00  0.00     0.160 HD
HETATM   28  H15 UNL     1      25.102   9.153  47.827  1.00  0.00     0.155 HD
ENDROOT
TORSDOF 0
ENDMDL
MODEL 6
REMARK VINA RESULT:      -8.1      3.127      5.269
REMARK  0 active torsions:
REMARK  status: ('A' for Active; 'I' for Inactive)
ROOT
HETATM    1  C1  UNL     1      26.792   4.733  48.963  1.00  0.00     0.004 C 
HETATM    2  C2  UNL     1      27.147   6.025  48.583  1.00  0.00     0.132 C 
HETATM    3  N1  UNL     1      26.157   7.129  48.636  1.00  0.00    -0.385 N 
HETATM    4  C3  UNL     1      24.665   7.094  48.770  1.00  0.00     0.025 C 
HETATM    5  C4  UNL     1      24.072   7.021  47.551  1.00  0.00     0.028 C 
HETATM    6  C5  UNL     1      22.752   6.918  46.882  1.00  0.00     0.026 C 
HETATM    7  C6  UNL     1      21.576   6.730  47.461  1.00  0.00     0.134 C 
HETATM    8  O1  UNL     1      21.983   6.602  48.844  1.00  0.00    -0.362 OA
HETATM    9  C7  UNL     1      22.209   5.232  49.191  1.00  0.00     0.186 C 
HETATM   10  C8  UNL     1      22.728   4.707  50.383  1.00  0.00     0.077 C 
HETATM   11  C9  UNL     1      23.845   5.307  51.138  1.00  0.00     0.039 C 
HETATM   12  N2  UNL     1      24.542   6.364  51.104  1.00  0.00    -0.288 NA
HETATM   13  C10 UNL     1      24.416   7.416  50.195  1.00  0.00     0.205 C 
HETATM   14  C11 UNL     1      24.054   4.234  52.151  1.00  0.00     0.060 C 
HETATM   15  C12 UNL     1      23.419   3.091  51.790  1.00  0.00     0.060 C 
HETATM   16  O2  UNL     1      23.045   2.137  52.681  1.00  0.00    -0.336 OA
HETATM   17  C13 UNL     1      23.715   1.024  53.146  1.00  0.00     0.292 C 
HETATM   18  N3  UNL     1      22.771   0.079  53.634  1.00  0.00    -0.399 N 
HETATM   19  C14 UNL     1      21.898  -0.518  52.707  1.00  0.00     0.142 C 
HETATM   20  C15 UNL     1      20.856   0.336  52.069  1.00  0.00     0.186 C 
HETATM   21  O3  UNL     1      21.284   1.386  51.314  1.00  0.00    -0.390 OA
HETATM   22  C16 UNL     1      22.053   1.094  50.221  1.00  0.00     0.168 C 
HETATM   23  C17 UNL     1      22.466   2.394  49.556  1.00  0.00     0.044 C 
HETATM   24  C18 UNL     1      23.325   3.291  50.309  1.00  0.00     0.026 C 
HETATM   25  C19 UNL     1      24.745   3.279  49.884  1.00  0.00     0.012 C 
HETATM   26  C20 UNL     1      26.018   3.506  49.454  1.00  0.00    -0.002 C 
HETATM   27  H3  UNL     1      26.369   8.102  48.560  1.00  0.00     0.160 HD
HETATM   28  H15 UNL     1      22.381   0.316  54.551  1.00  0.00     0.155 HD
ENDROOT
TORSDOF 0
ENDMDL
MODEL 7
REMARK VINA RESULT:      -7.9      2.347      4.235
REMARK  0 active torsions:
REMARK  status: ('A' for Active; 'I' for Inactive)
ROOT
HETATM    1  C1  UNL     1      19.291   3.234  51.826  1.00  0.00     0.004 C 
HETATM    2  C2  UNL     1      18.451   3.551  50.761  1.00  0.00     0.132 C 
HETATM    3  N1  UNL     1      18.970   3.587  49.371  1.00  0.00    -0.385 N 
HETATM    4  C3  UNL     1      20.378   3.618  48.858  1.00  0.00     0.025 C 
HETATM    5  C4  UNL     1      20.822   4.896  48.739  1.00  0.00     0.028 C 
HETATM    6  C5  UNL     1      22.007   5.707  48.371  1.00  0.00     0.026 C 
HETATM    7  C6  UNL     1      23.226   5.263  48.105  1.00  0.00     0.134 C 
HETATM    8  O1  UNL     1      23.046   3.846  48.339  1.00  0.00    -0.362 OA
HETATM    9  C7  UNL     1      23.373   3.500  49.689  1.00  0.00     0.186 C 
HETATM   10  C8  UNL     1      23.213   2.267  50.337  1.00  0.00     0.077 C 
HETATM   11  C9  UNL     1      22.043   1.385  50.166  1.00  0.00     0.039 C 
HETATM   12  N2  UNL     1      21.010   1.324  49.437  1.00  0.00    -0.288 NA
HETATM   13  C10 UNL     1      20.645   2.223  48.433  1.00  0.00     0.205 C 
HETATM   14  C11 UNL     1      22.350   0.373  51.218  1.00  0.00     0.060 C 
HETATM   15  C12 UNL     1      23.314   0.821  52.059  1.00  0.00     0.060 C 
HETATM   16  O2  UNL     1      24.104  -0.007  52.790  1.00  0.00    -0.336 OA
HETATM   17  C13 UNL     1      23.940  -0.524  54.059  1.00  0.00     0.292 C 
HETATM   18  N3  UNL     1      25.209  -0.889  54.584  1.00  0.00    -0.399 N 
HETATM   19  C14 UNL     1      26.134   0.137  54.845  1.00  0.00     0.142 C 
HETATM   20  C15 UNL     1      26.718   0.871  53.687  1.00  0.00     0.186 C 
HETATM   21  O3  UNL     1      25.858   1.557  52.882  1.00  0.00    -0.390 OA
HETATM   22  C16 UNL     1      25.135   2.564  53.460  1.00  0.00     0.168 C 
HETATM   23  C17 UNL     1      24.209   3.157  52.416  1.00  0.00     0.044 C 
HETATM   24  C18 UNL     1      23.168   2.299  51.875  1.00  0.00     0.026 C 
HETATM   25  C19 UNL     1      21.813   2.566  52.413  1.00  0.00     0.012 C 
HETATM   26  C20 UNL     1      20.506   2.851  52.674  1.00  0.00    -0.002 C 
HETATM   27  H3  UNL     1      18.412   3.623  48.544  1.00  0.00     0.160 HD
HETATM   28  H15 UNL     1      25.582  -1.762  54.200  1.00  0.00     0.155 HD
ENDROOT
TORSDOF 0
ENDMDL
MODEL 8
REMARK VINA RESULT:      -7.9      8.568      9.923
REMARK  0 active torsions:
REMARK  status: ('A' for Active; 'I' for Inactive)
ROOT
HETATM    1  C1  UNL     1      32.017  10.812  46.599  1.00  0.00     0.004 C 
HETATM    2  C2  UNL     1      31.148  11.868  46.861  1.00  0.00     0.132 C 
HETATM    3  N1  UNL     1      29.868  11.637  47.576  1.00  0.00    -0.385 N 
HETATM    4  C3  UNL     1      29.129  10.366  47.865  1.00  0.00     0.025 C 
HETATM    5  C4  UNL     1      28.274  10.063  46.854  1.00  0.00     0.028 C 
HETATM    6  C5  UNL     1      27.298   9.046  46.396  1.00  0.00     0.026 C 
HETATM    7  C6  UNL     1      27.049   7.870  46.953  1.00  0.00     0.134 C 
HETATM    8  O1  UNL     1      28.017   7.881  48.030  1.00  0.00    -0.362 OA
HETATM    9  C7  UNL     1      29.245   7.267  47.627  1.00  0.00     0.186 C 
HETATM   10  C8  UNL     1      30.455   7.192  48.331  1.00  0.00     0.077 C 
HETATM   11  C9  UNL     1      31.019   8.295  49.133  1.00  0.00     0.039 C 
HETATM   12  N2  UNL     1      30.665   9.443  49.533  1.00  0.00    -0.288 NA
HETATM   13  C10 UNL     1      29.444  10.072  49.283  1.00  0.00     0.205 C 
HETATM   14  C11 UNL     1      32.350   7.703  49.452  1.00  0.00     0.060 C 
HETATM   15  C12 UNL     1      32.611   6.633  48.661  1.00  0.00     0.060 C 
HETATM   16  O2  UNL     1      33.479   5.648  49.008  1.00  0.00    -0.336 OA
HETATM   17  C13 UNL     1      34.833   5.515  48.776  1.00  0.00     0.292 C 
HETATM   18  N3  UNL     1      35.189   4.141  48.854  1.00  0.00    -0.399 N 
HETATM   19  C14 UNL     1      34.677   3.273  47.874  1.00  0.00     0.142 C 
HETATM   20  C15 UNL     1      33.213   2.992  47.876  1.00  0.00     0.186 C 
HETATM   21  O3  UNL     1      32.373   4.047  47.686  1.00  0.00    -0.390 OA
HETATM   22  C16 UNL     1      32.482   4.725  46.503  1.00  0.00     0.168 C 
HETATM   23  C17 UNL     1      31.505   5.885  46.516  1.00  0.00     0.044 C 
HETATM   24  C18 UNL     1      31.722   6.936  47.495  1.00  0.00     0.026 C 
HETATM   25  C19 UNL     1      32.316   8.176  46.941  1.00  0.00     0.012 C 
HETATM   26  C20 UNL     1      32.661   9.425  46.519  1.00  0.00    -0.002 C 
HETATM   27  H3  UNL     1      29.282  12.349  47.961  1.00  0.00     0.160 HD
HETATM   28  H15 UNL     1      35.245   3.779  49.810  1.00  0.00     0.155 HD
ENDROOT
TORSDOF 0
ENDMDL
MODEL 9
REMARK VINA RESULT:      -7.3      4.071      6.785
REMARK  0 active torsions:
REMARK  status: ('A' for Active; 'I' for Inactive)
ROOT
HETATM    1  C1  UNL     1      25.054   3.698  49.339  1.00  0.00     0.004 C 
HETATM    2  C2  UNL     1      26.007   4.680  49.594  1.00  0.00     0.132 C 
HETATM    3  N1  UNL     1      25.637   5.929  50.305  1.00  0.00    -0.385 N 
HETATM    4  C3  UNL     1      24.292   6.522  50.597  1.00  0.00     0.025 C 
HETATM    5  C4  UNL     1      23.892   7.334  49.585  1.00  0.00     0.028 C 
HETATM    6  C5  UNL     1      22.769   8.188  49.128  1.00  0.00     0.026 C 
HETATM    7  C6  UNL     1      21.575   8.306  49.689  1.00  0.00     0.134 C 
HETATM    8  O1  UNL     1      21.699   7.349  50.769  1.00  0.00    -0.362 OA
HETATM    9  C7  UNL     1      21.224   6.058  50.372  1.00  0.00     0.186 C 
HETATM   10  C8  UNL     1      21.288   4.850  51.080  1.00  0.00     0.077 C 
HETATM   11  C9  UNL     1      22.450   4.416  51.879  1.00  0.00     0.039 C 
HETATM   12  N2  UNL     1      23.552   4.898  52.274  1.00  0.00    -0.288 NA
HETATM   13  C10 UNL     1      24.040   6.180  52.017  1.00  0.00     0.205 C 
HETATM   14  C11 UNL     1      22.012   3.028  52.205  1.00  0.00     0.060 C 
HETATM   15  C12 UNL     1      20.975   2.647  51.419  1.00  0.00     0.060 C 
HETATM   16  O2  UNL     1      20.095   1.675  51.773  1.00  0.00    -0.336 OA
HETATM   17  C13 UNL     1      20.114   0.314  51.546  1.00  0.00     0.292 C 
HETATM   18  N3  UNL     1      18.788  -0.193  51.630  1.00  0.00    -0.399 N 
HETATM   19  C14 UNL     1      17.864   0.215  50.652  1.00  0.00     0.142 C 
HETATM   20  C15 UNL     1      17.421   1.638  50.651  1.00  0.00     0.186 C 
HETATM   21  O3  UNL     1      18.376   2.591  50.454  1.00  0.00    -0.390 OA
HETATM   22  C16 UNL     1      19.056   2.554  49.268  1.00  0.00     0.168 C 
HETATM   23  C17 UNL     1      20.100   3.654  49.274  1.00  0.00     0.044 C 
HETATM   24  C18 UNL     1      21.172   3.559  50.249  1.00  0.00     0.026 C 
HETATM   25  C19 UNL     1      22.469   3.106  49.693  1.00  0.00     0.012 C 
HETATM   26  C20 UNL     1      23.747   2.902  49.267  1.00  0.00    -0.002 C 
HETATM   27  H3  UNL     1      26.280   6.592  50.686  1.00  0.00     0.160 HD
HETATM   28  H15 UNL     1      18.438  -0.286  52.588  1.00  0.00     0.155 HD
ENDROOT
TORSDOF 0
ENDMDL
