MODEL 1
REMARK VINA RESULT:      -7.2      0.000      0.000
REMARK  7 active torsions:
REMARK  status: ('A' for Active; 'I' for Inactive)
REMARK    1  A    between atoms: C2_2  and  C3_3 
REMARK    2  A    between atoms: C3_3  and  C4_4 
REMARK    3  A    between atoms: C4_4  and  C5_5 
REMARK    4  A    between atoms: C4_4  and  N1_7 
REMARK    5  A    between atoms: N1_7  and  C8_9 
REMARK    6  A    between atoms: C12_16  and  O1_17 
REMARK    7  A    between atoms: C14_19  and  O2_20 
ROOT
HETATM    1  C8  UNL     1      23.506   1.748  52.781  1.00  0.00     0.145 A 
HETATM    2  N2  UNL     1      22.308   1.186  53.072  1.00  0.00    -0.200 NA
HETATM    3  C9  UNL     1      22.229  -0.037  53.651  1.00  0.00     0.225 A 
HETATM    4 CL1  UNL     1      20.871  -1.021  54.145  1.00  0.00    -0.041 Cl
HETATM    5  N3  UNL     1      23.396  -0.655  53.918  1.00  0.00    -0.218 NA
HETATM    6  C10 UNL     1      24.590  -0.125  53.641  1.00  0.00     0.077 A 
HETATM    7  C11 UNL     1      25.790  -0.766  53.941  1.00  0.00     0.072 A 
HETATM    8  C12 UNL     1      26.983  -0.120  53.627  1.00  0.00     0.103 A 
HETATM    9  C14 UNL     1      27.083   1.108  53.043  1.00  0.00     0.102 A 
HETATM   10  C16 UNL     1      25.882   1.767  52.739  1.00  0.00     0.057 A 
HETATM   11  C17 UNL     1      24.704   1.121  53.052  1.00  0.00     0.042 A 
ENDROOT
BRANCH   1  12
HETATM   12  N1  UNL     1      23.426   3.022  52.155  1.00  0.00    -0.339 N 
HETATM   13  C7  UNL     1      23.317   4.405  52.630  1.00  0.00     0.158 C 
BRANCH  12  14
HETATM   14  C4  UNL     1      23.398   2.759  50.709  1.00  0.00     0.014 C 
BRANCH  14  15
HETATM   15  C3  UNL     1      24.354   3.244  49.964  1.00  0.00     0.004 C 
BRANCH  15  16
HETATM   16  C2  UNL     1      25.693   3.644  49.486  1.00  0.00     0.035 C 
HETATM   17  C1  UNL     1      26.844   4.171  49.209  1.00  0.00    -0.008 C 
ENDBRANCH  15  16
ENDBRANCH  14  15
BRANCH  14  18
HETATM   18  C5  UNL     1      22.693   2.093  49.574  1.00  0.00     0.063 C 
HETATM   19  C6  UNL     1      21.624   1.279  49.603  1.00  0.00    -0.006 C 
ENDBRANCH  14  18
ENDBRANCH  12  14
ENDBRANCH   1  12
BRANCH   9  20
HETATM   20  O2  UNL     1      28.337   1.635  52.781  1.00  0.00    -0.353 OA
HETATM   21  C15 UNL     1      28.933   2.485  53.757  1.00  0.00     0.210 C 
ENDBRANCH   9  20
BRANCH   8  22
HETATM   22  O1  UNL     1      28.080  -0.893  53.996  1.00  0.00    -0.353 OA
HETATM   23  C13 UNL     1      28.715  -1.833  53.181  1.00  0.00     0.210 C 
ENDBRANCH   8  22
TORSDOF 7
ENDMDL
MODEL 2
REMARK VINA RESULT:      -7.0      2.697      4.435
REMARK  7 active torsions:
REMARK  status: ('A' for Active; 'I' for Inactive)
REMARK    1  A    between atoms: C2_2  and  C3_3 
REMARK    2  A    between atoms: C3_3  and  C4_4 
REMARK    3  A    between atoms: C4_4  and  C5_5 
REMARK    4  A    between atoms: C4_4  and  N1_7 
REMARK    5  A    between atoms: N1_7  and  C8_9 
REMARK    6  A    between atoms: C12_16  and  O1_17 
REMARK    7  A    between atoms: C14_19  and  O2_20 
ROOT
HETATM    1  C8  UNL     1      24.176   2.751  51.018  1.00  0.00     0.145 A 
HETATM    2  N2  UNL     1      24.780   3.575  50.129  1.00  0.00    -0.200 NA
HETATM    3  C9  UNL     1      26.121   3.530  49.929  1.00  0.00     0.225 A 
HETATM    4 CL1  UNL     1      27.186   4.435  48.880  1.00  0.00    -0.041 Cl
HETATM    5  N3  UNL     1      26.808   2.628  50.657  1.00  0.00    -0.218 NA
HETATM    6  C10 UNL     1      26.239   1.805  51.540  1.00  0.00     0.077 A 
HETATM    7  C11 UNL     1      26.958   0.863  52.270  1.00  0.00     0.072 A 
HETATM    8  C12 UNL     1      26.267   0.039  53.154  1.00  0.00     0.103 A 
HETATM    9  C14 UNL     1      24.921   0.071  53.370  1.00  0.00     0.102 A 
HETATM   10  C16 UNL     1      24.182   1.013  52.637  1.00  0.00     0.057 A 
HETATM   11  C17 UNL     1      24.874   1.826  51.765  1.00  0.00     0.042 A 
ENDROOT
BRANCH   1  12
HETATM   12  N1  UNL     1      22.770   2.933  51.133  1.00  0.00    -0.339 N 
HETATM   13  C7  UNL     1      21.896   3.729  52.000  1.00  0.00     0.158 C 
BRANCH  12  14
HETATM   14  C4  UNL     1      22.165   2.024  50.149  1.00  0.00     0.014 C 
BRANCH  14  15
HETATM   15  C3  UNL     1      21.293   1.144  50.561  1.00  0.00     0.004 C 
BRANCH  15  16
HETATM   16  C2  UNL     1      20.335   0.414  51.417  1.00  0.00     0.035 C 
HETATM   17  C1  UNL     1      19.603  -0.126  52.340  1.00  0.00    -0.008 C 
ENDBRANCH  15  16
ENDBRANCH  14  15
BRANCH  14  18
HETATM   18  C5  UNL     1      22.075   1.613  48.716  1.00  0.00     0.063 C 
HETATM   19  C6  UNL     1      22.482   2.275  47.620  1.00  0.00    -0.006 C 
ENDBRANCH  14  18
ENDBRANCH  12  14
ENDBRANCH   1  12
BRANCH   9  20
HETATM   20  O2  UNL     1      24.359  -0.806  54.284  1.00  0.00    -0.353 OA
HETATM   21  C15 UNL     1      22.939  -0.873  54.373  1.00  0.00     0.210 C 
ENDBRANCH   9  20
BRANCH   8  22
HETATM   22  O1  UNL     1      27.133  -0.842  53.795  1.00  0.00    -0.353 OA
HETATM   23  C13 UNL     1      28.522  -0.854  53.654  1.00  0.00     0.210 C 
ENDBRANCH   8  22
TORSDOF 7
ENDMDL
MODEL 3
REMARK VINA RESULT:      -6.7      0.538      2.059
REMARK  7 active torsions:
REMARK  status: ('A' for Active; 'I' for Inactive)
REMARK    1  A    between atoms: C2_2  and  C3_3 
REMARK    2  A    between atoms: C3_3  and  C4_4 
REMARK    3  A    between atoms: C4_4  and  C5_5 
REMARK    4  A    between atoms: C4_4  and  N1_7 
REMARK    5  A    between atoms: N1_7  and  C8_9 
REMARK    6  A    between atoms: C12_16  and  O1_17 
REMARK    7  A    between atoms: C14_19  and  O2_20 
ROOT
HETATM    1  C8  UNL     1      23.809   1.965  52.580  1.00  0.00     0.145 A 
HETATM    2  N2  UNL     1      22.563   1.452  52.722  1.00  0.00    -0.200 NA
HETATM    3  C9  UNL     1      22.373   0.176  53.140  1.00  0.00     0.225 A 
HETATM    4 CL1  UNL     1      20.930  -0.769  53.419  1.00  0.00    -0.041 Cl
HETATM    5  N3  UNL     1      23.482  -0.543  53.402  1.00  0.00    -0.218 NA
HETATM    6  C10 UNL     1      24.721  -0.063  53.271  1.00  0.00     0.077 A 
HETATM    7  C11 UNL     1      25.858  -0.811  53.566  1.00  0.00     0.072 A 
HETATM    8  C12 UNL     1      27.105  -0.212  53.412  1.00  0.00     0.103 A 
HETATM    9  C14 UNL     1      27.316   1.068  52.991  1.00  0.00     0.102 A 
HETATM   10  C16 UNL     1      26.179   1.835  52.693  1.00  0.00     0.057 A 
HETATM   11  C17 UNL     1      24.947   1.234  52.848  1.00  0.00     0.042 A 
ENDROOT
BRANCH   1  12
HETATM   12  N1  UNL     1      23.847   3.307  52.112  1.00  0.00    -0.339 N 
HETATM   13  C7  UNL     1      23.579   4.621  52.707  1.00  0.00     0.158 C 
BRANCH  12  14
HETATM   14  C4  UNL     1      24.186   3.225  50.683  1.00  0.00     0.014 C 
BRANCH  14  15
HETATM   15  C3  UNL     1      23.337   2.659  49.869  1.00  0.00     0.004 C 
BRANCH  15  16
HETATM   16  C2  UNL     1      22.206   1.859  49.357  1.00  0.00     0.035 C 
HETATM   17  C1  UNL     1      21.294   0.993  49.043  1.00  0.00    -0.008 C 
ENDBRANCH  15  16
ENDBRANCH  14  15
BRANCH  14  18
HETATM   18  C5  UNL     1      25.175   3.550  49.613  1.00  0.00     0.063 C 
HETATM   19  C6  UNL     1      26.486   3.263  49.559  1.00  0.00    -0.006 C 
ENDBRANCH  14  18
ENDBRANCH  12  14
ENDBRANCH   1  12
BRANCH   9  20
HETATM   20  O2  UNL     1      28.614   1.540  52.877  1.00  0.00    -0.353 OA
HETATM   21  C15 UNL     1      29.106   2.418  53.884  1.00  0.00     0.210 C 
ENDBRANCH   9  20
BRANCH   8  22
HETATM   22  O1  UNL     1      28.127  -1.093  53.752  1.00  0.00    -0.353 OA
HETATM   23  C13 UNL     1      28.462  -2.252  53.048  1.00  0.00     0.210 C 
ENDBRANCH   8  22
TORSDOF 7
ENDMDL
MODEL 4
REMARK VINA RESULT:      -6.5      2.757      4.058
REMARK  7 active torsions:
REMARK  status: ('A' for Active; 'I' for Inactive)
REMARK    1  A    between atoms: C2_2  and  C3_3 
REMARK    2  A    between atoms: C3_3  and  C4_4 
REMARK    3  A    between atoms: C4_4  and  C5_5 
REMARK    4  A    between atoms: C4_4  and  N1_7 
REMARK    5  A    between atoms: N1_7  and  C8_9 
REMARK    6  A    between atoms: C12_16  and  O1_17 
REMARK    7  A    between atoms: C14_19  and  O2_20 
ROOT
HETATM    1  C8  UNL     1      24.331   2.968  50.980  1.00  0.00     0.145 A 
HETATM    2  N2  UNL     1      24.970   3.756  50.083  1.00  0.00    -0.200 NA
HETATM    3  C9  UNL     1      26.309   3.658  49.891  1.00  0.00     0.225 A 
HETATM    4 CL1  UNL     1      27.413   4.508  48.836  1.00  0.00    -0.041 Cl
HETATM    5  N3  UNL     1      26.958   2.742  50.636  1.00  0.00    -0.218 NA
HETATM    6  C10 UNL     1      26.354   1.953  51.528  1.00  0.00     0.077 A 
HETATM    7  C11 UNL     1      27.034   0.996  52.276  1.00  0.00     0.072 A 
HETATM    8  C12 UNL     1      26.308   0.211  53.167  1.00  0.00     0.103 A 
HETATM    9  C14 UNL     1      24.963   0.296  53.375  1.00  0.00     0.102 A 
HETATM   10  C16 UNL     1      24.263   1.255  52.625  1.00  0.00     0.057 A 
HETATM   11  C17 UNL     1      24.990   2.029  51.745  1.00  0.00     0.042 A 
ENDROOT
BRANCH   1  12
HETATM   12  N1  UNL     1      22.932   3.204  51.085  1.00  0.00    -0.339 N 
HETATM   13  C7  UNL     1      22.091   4.124  51.857  1.00  0.00     0.158 C 
BRANCH  12  14
HETATM   14  C4  UNL     1      22.290   2.202  50.222  1.00  0.00     0.014 C 
BRANCH  14  15
HETATM   15  C3  UNL     1      22.215   2.433  48.940  1.00  0.00     0.004 C 
BRANCH  15  16
HETATM   16  C2  UNL     1      22.074   3.134  47.648  1.00  0.00     0.035 C 
HETATM   17  C1  UNL     1      21.878   3.548  46.435  1.00  0.00    -0.008 C 
ENDBRANCH  15  16
ENDBRANCH  14  15
BRANCH  14  18
HETATM   18  C5  UNL     1      21.616   0.872  50.140  1.00  0.00     0.063 C 
HETATM   19  C6  UNL     1      20.911   0.221  51.081  1.00  0.00    -0.006 C 
ENDBRANCH  14  18
ENDBRANCH  12  14
ENDBRANCH   1  12
BRANCH   9  20
HETATM   20  O2  UNL     1      24.363  -0.545  54.298  1.00  0.00    -0.353 OA
HETATM   21  C15 UNL     1      22.972  -0.815  54.165  1.00  0.00     0.210 C 
ENDBRANCH   9  20
BRANCH   8  22
HETATM   22  O1  UNL     1      27.137  -0.692  53.826  1.00  0.00    -0.353 OA
HETATM   23  C13 UNL     1      28.319  -1.227  53.310  1.00  0.00     0.210 C 
ENDBRANCH   8  22
TORSDOF 7
ENDMDL
MODEL 5
REMARK VINA RESULT:      -6.5      1.767      2.870
REMARK  7 active torsions:
REMARK  status: ('A' for Active; 'I' for Inactive)
REMARK    1  A    between atoms: C2_2  and  C3_3 
REMARK    2  A    between atoms: C3_3  and  C4_4 
REMARK    3  A    between atoms: C4_4  and  C5_5 
REMARK    4  A    between atoms: C4_4  and  N1_7 
REMARK    5  A    between atoms: N1_7  and  C8_9 
REMARK    6  A    between atoms: C12_16  and  O1_17 
REMARK    7  A    between atoms: C14_19  and  O2_20 
ROOT
HETATM    1  C8  UNL     1      22.934   1.150  51.787  1.00  0.00     0.145 A 
HETATM    2  N2  UNL     1      22.214   0.313  52.572  1.00  0.00    -0.200 NA
HETATM    3  C9  UNL     1      22.803  -0.396  53.567  1.00  0.00     0.225 A 
HETATM    4 CL1  UNL     1      22.174  -1.537  54.732  1.00  0.00    -0.041 Cl
HETATM    5  N3  UNL     1      24.130  -0.222  53.727  1.00  0.00    -0.218 NA
HETATM    6  C10 UNL     1      24.863   0.596  52.968  1.00  0.00     0.077 A 
HETATM    7  C11 UNL     1      26.230   0.782  53.158  1.00  0.00     0.072 A 
HETATM    8  C12 UNL     1      26.900   1.671  52.322  1.00  0.00     0.103 A 
HETATM    9  C14 UNL     1      26.326   2.391  51.316  1.00  0.00     0.102 A 
HETATM   10  C16 UNL     1      24.948   2.216  51.115  1.00  0.00     0.057 A 
HETATM   11  C17 UNL     1      24.291   1.333  51.946  1.00  0.00     0.042 A 
ENDROOT
BRANCH   1  12
HETATM   12  N1  UNL     1      22.181   1.805  50.774  1.00  0.00    -0.339 N 
HETATM   13  C7  UNL     1      22.070   1.675  49.317  1.00  0.00     0.158 C 
BRANCH  12  14
HETATM   14  C4  UNL     1      21.428   2.868  51.456  1.00  0.00     0.014 C 
BRANCH  14  15
HETATM   15  C3  UNL     1      22.005   4.024  51.644  1.00  0.00     0.004 C 
BRANCH  15  16
HETATM   16  C2  UNL     1      22.800   5.248  51.414  1.00  0.00     0.035 C 
HETATM   17  C1  UNL     1      23.672   6.198  51.288  1.00  0.00    -0.008 C 
ENDBRANCH  15  16
ENDBRANCH  14  15
BRANCH  14  18
HETATM   18  C5  UNL     1      20.141   3.276  52.094  1.00  0.00     0.063 C 
HETATM   19  C6  UNL     1      18.918   3.368  51.545  1.00  0.00    -0.006 C 
ENDBRANCH  14  18
ENDBRANCH  12  14
ENDBRANCH   1  12
BRANCH   9  20
HETATM   20  O2  UNL     1      27.113   3.240  50.555  1.00  0.00    -0.353 OA
HETATM   21  C15 UNL     1      26.478   4.052  49.572  1.00  0.00     0.210 C 
ENDBRANCH   9  20
BRANCH   8  22
HETATM   22  O1  UNL     1      28.251   1.741  52.650  1.00  0.00    -0.353 OA
HETATM   23  C13 UNL     1      28.785   2.462  53.721  1.00  0.00     0.210 C 
ENDBRANCH   8  22
TORSDOF 7
ENDMDL
MODEL 6
REMARK VINA RESULT:      -6.4      1.648      3.286
REMARK  7 active torsions:
REMARK  status: ('A' for Active; 'I' for Inactive)
REMARK    1  A    between atoms: C2_2  and  C3_3 
REMARK    2  A    between atoms: C3_3  and  C4_4 
REMARK    3  A    between atoms: C4_4  and  C5_5 
REMARK    4  A    between atoms: C4_4  and  N1_7 
REMARK    5  A    between atoms: N1_7  and  C8_9 
REMARK    6  A    between atoms: C12_16  and  O1_17 
REMARK    7  A    between atoms: C14_19  and  O2_20 
ROOT
HETATM    1  C8  UNL     1      22.437   1.298  52.152  1.00  0.00     0.145 A 
HETATM    2  N2  UNL     1      21.579   0.476  52.804  1.00  0.00    -0.200 NA
HETATM    3  C9  UNL     1      22.032  -0.549  53.567  1.00  0.00     0.225 A 
HETATM    4 CL1  UNL     1      21.209  -1.764  54.516  1.00  0.00    -0.041 Cl
HETATM    5  N3  UNL     1      23.369  -0.701  53.639  1.00  0.00    -0.218 NA
HETATM    6  C10 UNL     1      24.237   0.093  53.007  1.00  0.00     0.077 A 
HETATM    7  C11 UNL     1      25.617  -0.062  53.107  1.00  0.00     0.072 A 
HETATM    8  C12 UNL     1      26.436   0.830  52.422  1.00  0.00     0.103 A 
HETATM    9  C14 UNL     1      26.000   1.865  51.648  1.00  0.00     0.102 A 
HETATM   10  C16 UNL     1      24.610   2.036  51.541  1.00  0.00     0.057 A 
HETATM   11  C17 UNL     1      23.805   1.147  52.222  1.00  0.00     0.042 A 
ENDROOT
BRANCH   1  12
HETATM   12  N1  UNL     1      21.810   2.310  51.374  1.00  0.00    -0.339 N 
HETATM   13  C7  UNL     1      21.430   3.708  51.604  1.00  0.00     0.158 C 
BRANCH  12  14
HETATM   14  C4  UNL     1      21.462   1.676  50.094  1.00  0.00     0.014 C 
BRANCH  14  15
HETATM   15  C3  UNL     1      20.280   1.137  49.962  1.00  0.00     0.004 C 
BRANCH  15  16
HETATM   16  C2  UNL     1      18.854   0.816  50.175  1.00  0.00     0.035 C 
HETATM   17  C1  UNL     1      17.596   0.510  50.135  1.00  0.00    -0.008 C 
ENDBRANCH  15  16
ENDBRANCH  14  15
BRANCH  14  18
HETATM   18  C5  UNL     1      21.897   1.343  48.705  1.00  0.00     0.063 C 
HETATM   19  C6  UNL     1      22.437   2.147  47.773  1.00  0.00    -0.006 C 
ENDBRANCH  14  18
ENDBRANCH  12  14
ENDBRANCH   1  12
BRANCH   9  20
HETATM   20  O2  UNL     1      26.926   2.679  51.016  1.00  0.00    -0.353 OA
HETATM   21  C15 UNL     1      26.513   3.406  49.864  1.00  0.00     0.210 C 
ENDBRANCH   9  20
BRANCH   8  22
HETATM   22  O1  UNL     1      27.780   0.536  52.633  1.00  0.00    -0.353 OA
HETATM   23  C13 UNL     1      28.270  -0.360  53.586  1.00  0.00     0.210 C 
ENDBRANCH   8  22
TORSDOF 7
ENDMDL
MODEL 7
REMARK VINA RESULT:      -6.4      1.881      3.721
REMARK  7 active torsions:
REMARK  status: ('A' for Active; 'I' for Inactive)
REMARK    1  A    between atoms: C2_2  and  C3_3 
REMARK    2  A    between atoms: C3_3  and  C4_4 
REMARK    3  A    between atoms: C4_4  and  C5_5 
REMARK    4  A    between atoms: C4_4  and  N1_7 
REMARK    5  A    between atoms: N1_7  and  C8_9 
REMARK    6  A    between atoms: C12_16  and  O1_17 
REMARK    7  A    between atoms: C14_19  and  O2_20 
ROOT
HETATM    1  C8  UNL     1      22.887   1.132  51.829  1.00  0.00     0.145 A 
HETATM    2  N2  UNL     1      22.178   0.294  52.622  1.00  0.00    -0.200 NA
HETATM    3  C9  UNL     1      22.780  -0.418  53.607  1.00  0.00     0.225 A 
HETATM    4 CL1  UNL     1      22.166  -1.560  54.778  1.00  0.00    -0.041 Cl
HETATM    5  N3  UNL     1      24.108  -0.244  53.749  1.00  0.00    -0.218 NA
HETATM    6  C10 UNL     1      24.832   0.574  52.982  1.00  0.00     0.077 A 
HETATM    7  C11 UNL     1      26.201   0.759  53.154  1.00  0.00     0.072 A 
HETATM    8  C12 UNL     1      26.861   1.650  52.311  1.00  0.00     0.103 A 
HETATM    9  C14 UNL     1      26.274   2.372  51.314  1.00  0.00     0.102 A 
HETATM   10  C16 UNL     1      24.893   2.198  51.132  1.00  0.00     0.057 A 
HETATM   11  C17 UNL     1      24.247   1.314  51.970  1.00  0.00     0.042 A 
ENDROOT
BRANCH   1  12
HETATM   12  N1  UNL     1      22.121   1.790  50.827  1.00  0.00    -0.339 N 
HETATM   13  C7  UNL     1      21.873   1.567  49.399  1.00  0.00     0.158 C 
BRANCH  12  14
HETATM   14  C4  UNL     1      21.543   2.975  51.476  1.00  0.00     0.014 C 
BRANCH  14  15
HETATM   15  C3  UNL     1      20.247   3.133  51.453  1.00  0.00     0.004 C 
BRANCH  15  16
HETATM   16  C2  UNL     1      18.799   2.858  51.551  1.00  0.00     0.035 C 
HETATM   17  C1  UNL     1      17.542   2.574  51.415  1.00  0.00    -0.008 C 
ENDBRANCH  15  16
ENDBRANCH  14  15
BRANCH  14  18
HETATM   18  C5  UNL     1      21.798   4.222  52.258  1.00  0.00     0.063 C 
HETATM   19  C6  UNL     1      22.965   4.837  52.510  1.00  0.00    -0.006 C 
ENDBRANCH  14  18
ENDBRANCH  12  14
ENDBRANCH   1  12
BRANCH   9  20
HETATM   20  O2  UNL     1      27.051   3.222  50.544  1.00  0.00    -0.353 OA
HETATM   21  C15 UNL     1      26.396   4.087  49.620  1.00  0.00     0.210 C 
ENDBRANCH   9  20
BRANCH   8  22
HETATM   22  O1  UNL     1      28.216   1.718  52.621  1.00  0.00    -0.353 OA
HETATM   23  C13 UNL     1      28.764   2.423  53.695  1.00  0.00     0.210 C 
ENDBRANCH   8  22
TORSDOF 7
ENDMDL
MODEL 8
REMARK VINA RESULT:      -6.4      1.434      2.329
REMARK  7 active torsions:
REMARK  status: ('A' for Active; 'I' for Inactive)
REMARK    1  A    between atoms: C2_2  and  C3_3 
REMARK    2  A    between atoms: C3_3  and  C4_4 
REMARK    3  A    between atoms: C4_4  and  C5_5 
REMARK    4  A    between atoms: C4_4  and  N1_7 
REMARK    5  A    between atoms: N1_7  and  C8_9 
REMARK    6  A    between atoms: C12_16  and  O1_17 
REMARK    7  A    between atoms: C14_19  and  O2_20 
ROOT
HETATM    1  C8  UNL     1      22.628   1.447  52.503  1.00  0.00     0.145 A 
HETATM    2  N2  UNL     1      21.789   0.601  53.148  1.00  0.00    -0.200 NA
HETATM    3  C9  UNL     1      22.260  -0.479  53.819  1.00  0.00     0.225 A 
HETATM    4 CL1  UNL     1      21.463  -1.737  54.733  1.00  0.00    -0.041 Cl
HETATM    5  N3  UNL     1      23.595  -0.660  53.807  1.00  0.00    -0.218 NA
HETATM    6  C10 UNL     1      24.445   0.156  53.180  1.00  0.00     0.077 A 
HETATM    7  C11 UNL     1      25.824  -0.031  53.193  1.00  0.00     0.072 A 
HETATM    8  C12 UNL     1      26.626   0.888  52.521  1.00  0.00     0.103 A 
HETATM    9  C14 UNL     1      26.171   1.978  51.840  1.00  0.00     0.102 A 
HETATM   10  C16 UNL     1      24.782   2.182  51.821  1.00  0.00     0.057 A 
HETATM   11  C17 UNL     1      23.995   1.266  52.488  1.00  0.00     0.042 A 
ENDROOT
BRANCH   1  12
HETATM   12  N1  UNL     1      21.984   2.518  51.826  1.00  0.00    -0.339 N 
HETATM   13  C7  UNL     1      21.727   3.930  52.128  1.00  0.00     0.158 C 
BRANCH  12  14
HETATM   14  C4  UNL     1      21.446   1.943  50.584  1.00  0.00     0.014 C 
BRANCH  14  15
HETATM   15  C3  UNL     1      21.975   2.302  49.446  1.00  0.00     0.004 C 
BRANCH  15  16
HETATM   16  C2  UNL     1      22.126   2.656  48.020  1.00  0.00     0.035 C 
HETATM   17  C1  UNL     1      22.072   3.092  46.800  1.00  0.00    -0.008 C 
ENDBRANCH  15  16
ENDBRANCH  14  15
BRANCH  14  18
HETATM   18  C5  UNL     1      20.458   1.011  49.964  1.00  0.00     0.063 C 
HETATM   19  C6  UNL     1      19.119   1.004  50.072  1.00  0.00    -0.006 C 
ENDBRANCH  14  18
ENDBRANCH  12  14
ENDBRANCH   1  12
BRANCH   9  20
HETATM   20  O2  UNL     1      27.079   2.813  51.210  1.00  0.00    -0.353 OA
HETATM   21  C15 UNL     1      26.659   3.514  50.044  1.00  0.00     0.210 C 
ENDBRANCH   9  20
BRANCH   8  22
HETATM   22  O1  UNL     1      27.972   0.556  52.639  1.00  0.00    -0.353 OA
HETATM   23  C13 UNL     1      28.761   0.775  53.771  1.00  0.00     0.210 C 
ENDBRANCH   8  22
TORSDOF 7
ENDMDL
MODEL 9
REMARK VINA RESULT:      -6.2      3.518      5.466
REMARK  7 active torsions:
REMARK  status: ('A' for Active; 'I' for Inactive)
REMARK    1  A    between atoms: C2_2  and  C3_3 
REMARK    2  A    between atoms: C3_3  and  C4_4 
REMARK    3  A    between atoms: C4_4  and  C5_5 
REMARK    4  A    between atoms: C4_4  and  N1_7 
REMARK    5  A    between atoms: N1_7  and  C8_9 
REMARK    6  A    between atoms: C12_16  and  O1_17 
REMARK    7  A    between atoms: C14_19  and  O2_20 
ROOT
HETATM    1  C8  UNL     1      23.634   2.191  52.431  1.00  0.00     0.145 A 
HETATM    2  N2  UNL     1      24.698   1.528  52.946  1.00  0.00    -0.200 NA
HETATM    3  C9  UNL     1      24.566   0.278  53.457  1.00  0.00     0.225 A 
HETATM    4 CL1  UNL     1      25.711  -0.825  54.179  1.00  0.00    -0.041 Cl
HETATM    5  N3  UNL     1      23.330  -0.258  53.423  1.00  0.00    -0.218 NA
HETATM    6  C10 UNL     1      22.265   0.373  52.923  1.00  0.00     0.077 A 
HETATM    7  C11 UNL     1      20.998  -0.202  52.876  1.00  0.00     0.072 A 
HETATM    8  C12 UNL     1      19.956   0.533  52.318  1.00  0.00     0.103 A 
HETATM    9  C14 UNL     1      20.069   1.790  51.801  1.00  0.00     0.102 A 
HETATM   10  C16 UNL     1      21.342   2.381  51.839  1.00  0.00     0.057 A 
HETATM   11  C17 UNL     1      22.368   1.646  52.394  1.00  0.00     0.042 A 
ENDROOT
BRANCH   1  12
HETATM   12  N1  UNL     1      23.926   3.499  51.955  1.00  0.00    -0.339 N 
HETATM   13  C7  UNL     1      23.577   4.858  52.381  1.00  0.00     0.158 C 
BRANCH  12  14
HETATM   14  C4  UNL     1      24.711   3.314  50.726  1.00  0.00     0.014 C 
BRANCH  14  15
HETATM   15  C3  UNL     1      24.078   3.198  49.590  1.00  0.00     0.004 C 
BRANCH  15  16
HETATM   16  C2  UNL     1      23.108   2.768  48.563  1.00  0.00     0.035 C 
HETATM   17  C1  UNL     1      22.280   2.184  47.755  1.00  0.00    -0.008 C 
ENDBRANCH  15  16
ENDBRANCH  14  15
BRANCH  14  18
HETATM   18  C5  UNL     1      26.069   3.200  50.115  1.00  0.00     0.063 C 
HETATM   19  C6  UNL     1      26.723   4.081  49.340  1.00  0.00    -0.006 C 
ENDBRANCH  14  18
ENDBRANCH  12  14
ENDBRANCH   1  12
BRANCH   9  20
HETATM   20  O2  UNL     1      18.947   2.413  51.278  1.00  0.00    -0.353 OA
HETATM   21  C15 UNL     1      18.786   2.442  49.864  1.00  0.00     0.210 C 
ENDBRANCH   9  20
BRANCH   8  22
HETATM   22  O1  UNL     1      18.766  -0.187  52.346  1.00  0.00    -0.353 OA
HETATM   23  C13 UNL     1      18.439  -1.171  53.283  1.00  0.00     0.210 C 
ENDBRANCH   8  22
TORSDOF 7
ENDMDL
