MODEL 1
REMARK VINA RESULT:      -7.2      0.000      0.000
REMARK  9 active torsions:
REMARK  status: ('A' for Active; 'I' for Inactive)
REMARK    1  A    between atoms: O1_2  and  C2_3 
REMARK       I    between atoms: C2_3  and  N1_5 
REMARK    2  A    between atoms: N1_5  and  C3_6 
REMARK    3  A    between atoms: C6_9  and  N2_10 
REMARK    4  A    between atoms: N2_10  and  N3_11 
REMARK    5  A    between atoms: N3_11  and  C7_12 
REMARK    6  A    between atoms: C7_12  and  N4_13 
REMARK    7  A    between atoms: N4_13  and  C8_14 
REMARK    8  A    between atoms: C11_17  and  O3_18 
REMARK    9  A    between atoms: C13_20  and  O4_21 
ROOT
HETATM    1  N2  UNL     1      24.636   4.563  50.946  1.00  0.00    -0.268 N 
HETATM    2  H8  UNL     1      24.721   5.033  51.886  1.00  0.00     0.190 HD
ENDROOT
BRANCH   1   3
HETATM    3  C6  UNL     1      25.670   5.054  50.102  1.00  0.00     0.065 A 
HETATM    4  C5  UNL     1      26.591   4.106  49.489  1.00  0.00     0.032 A 
HETATM    5  C4  UNL     1      27.518   4.634  48.723  1.00  0.00     0.022 A 
HETATM    6  C3  UNL     1      27.761   6.054  48.392  1.00  0.00     0.209 A 
HETATM    7  N5  UNL     1      26.764   6.850  49.080  1.00  0.00    -0.373 N 
HETATM    8  C16 UNL     1      25.728   6.364  49.925  1.00  0.00     0.116 A 
HETATM    9  H19 UNL     1      26.842   7.877  48.917  1.00  0.00     0.161 HD
BRANCH   6  10
HETATM   10  N1  UNL     1      29.065   6.458  48.921  1.00  0.00    -0.312 N 
HETATM   11  C2  UNL     1      29.611   7.645  48.398  1.00  0.00     0.361 C 
HETATM   12  O2  UNL     1      29.033   8.339  47.524  1.00  0.00    -0.238 OA
HETATM   13  H4  UNL     1      29.483   5.832  49.644  1.00  0.00     0.167 HD
BRANCH  11  14
HETATM   14  O1  UNL     1      30.836   8.053  48.874  1.00  0.00    -0.309 OA
HETATM   15  C1  UNL     1      30.931   9.333  49.503  1.00  0.00     0.215 C 
ENDBRANCH  11  14
ENDBRANCH   6  10
ENDBRANCH   1   3
BRANCH   1  16
HETATM   16  N3  UNL     1      23.848   3.616  50.243  1.00  0.00    -0.109 NA
BRANCH  16  17
HETATM   17  C7  UNL     1      23.786   2.470  50.832  1.00  0.00     0.121 C 
BRANCH  17  18
HETATM   18  N4  UNL     1      23.725   1.471  51.636  1.00  0.00    -0.186 NA
BRANCH  18  19
HETATM   19  C8  UNL     1      24.940   0.959  52.221  1.00  0.00     0.071 A 
HETATM   20  C9  UNL     1      26.223   1.041  51.720  1.00  0.00     0.035 A 
HETATM   21  C10 UNL     1      27.244   0.473  52.456  1.00  0.00     0.042 A 
HETATM   22  C11 UNL     1      26.992  -0.157  53.659  1.00  0.00     0.101 A 
HETATM   23  C13 UNL     1      25.721  -0.250  54.177  1.00  0.00     0.103 A 
HETATM   24  C15 UNL     1      24.702   0.319  53.435  1.00  0.00     0.072 A 
BRANCH  22  25
HETATM   25  O3  UNL     1      28.034  -0.721  54.385  1.00  0.00    -0.353 OA
HETATM   26  C12 UNL     1      29.381  -0.697  54.025  1.00  0.00     0.210 C 
ENDBRANCH  22  25
BRANCH  23  27
HETATM   27  O4  UNL     1      25.523  -0.895  55.390  1.00  0.00    -0.353 OA
HETATM   28  C14 UNL     1      24.213  -1.380  55.667  1.00  0.00     0.210 C 
ENDBRANCH  23  27
ENDBRANCH  18  19
ENDBRANCH  17  18
ENDBRANCH  16  17
ENDBRANCH   1  16
TORSDOF 9
ENDMDL
MODEL 2
REMARK VINA RESULT:      -7.1      1.496      2.149
REMARK  9 active torsions:
REMARK  status: ('A' for Active; 'I' for Inactive)
REMARK    1  A    between atoms: O1_2  and  C2_3 
REMARK       I    between atoms: C2_3  and  N1_5 
REMARK    2  A    between atoms: N1_5  and  C3_6 
REMARK    3  A    between atoms: C6_9  and  N2_10 
REMARK    4  A    between atoms: N2_10  and  N3_11 
REMARK    5  A    between atoms: N3_11  and  C7_12 
REMARK    6  A    between atoms: C7_12  and  N4_13 
REMARK    7  A    between atoms: N4_13  and  C8_14 
REMARK    8  A    between atoms: C11_17  and  O3_18 
REMARK    9  A    between atoms: C13_20  and  O4_21 
ROOT
HETATM    1  N2  UNL     1      24.557   5.967  50.816  1.00  0.00    -0.268 N 
HETATM    2  H8  UNL     1      24.332   6.888  51.278  1.00  0.00     0.190 HD
ENDROOT
BRANCH   1   3
HETATM    3  C6  UNL     1      25.720   6.138  50.015  1.00  0.00     0.065 A 
HETATM    4  C5  UNL     1      26.269   4.986  49.311  1.00  0.00     0.032 A 
HETATM    5  C4  UNL     1      27.342   5.222  48.592  1.00  0.00     0.022 A 
HETATM    6  C3  UNL     1      28.074   6.491  48.392  1.00  0.00     0.209 A 
HETATM    7  N5  UNL     1      27.398   7.521  49.156  1.00  0.00    -0.373 N 
HETATM    8  C16 UNL     1      26.236   7.356  49.958  1.00  0.00     0.116 A 
HETATM    9  H19 UNL     1      27.833   8.466  49.087  1.00  0.00     0.161 HD
BRANCH   6  10
HETATM   10  N1  UNL     1      29.422   6.366  48.948  1.00  0.00    -0.312 N 
HETATM   11  C2  UNL     1      30.333   7.385  48.613  1.00  0.00     0.361 C 
HETATM   12  O2  UNL     1      30.033   8.360  47.879  1.00  0.00    -0.238 OA
HETATM   13  H4  UNL     1      29.597   5.530  49.549  1.00  0.00     0.167 HD
BRANCH  11  14
HETATM   14  O1  UNL     1      31.610   7.298  49.120  1.00  0.00    -0.309 OA
HETATM   15  C1  UNL     1      32.007   6.083  49.760  1.00  0.00     0.215 C 
ENDBRANCH  11  14
ENDBRANCH   6  10
ENDBRANCH   1   3
BRANCH   1  16
HETATM   16  N3  UNL     1      24.101   4.628  50.722  1.00  0.00    -0.109 NA
BRANCH  16  17
HETATM   17  C7  UNL     1      23.925   4.070  51.872  1.00  0.00     0.121 C 
BRANCH  17  18
HETATM   18  N4  UNL     1      23.616   3.340  52.882  1.00  0.00    -0.186 NA
BRANCH  18  19
HETATM   19  C8  UNL     1      24.293   2.081  53.076  1.00  0.00     0.071 A 
HETATM   20  C9  UNL     1      23.798   0.810  52.866  1.00  0.00     0.035 A 
HETATM   21  C10 UNL     1      24.632  -0.261  53.121  1.00  0.00     0.042 A 
HETATM   22  C11 UNL     1      25.924  -0.069  53.571  1.00  0.00     0.101 A 
HETATM   23  C13 UNL     1      26.437   1.190  53.786  1.00  0.00     0.103 A 
HETATM   24  C15 UNL     1      25.598   2.258  53.531  1.00  0.00     0.072 A 
BRANCH  22  25
HETATM   25  O3  UNL     1      26.748  -1.160  53.821  1.00  0.00    -0.353 OA
HETATM   26  C12 UNL     1      27.248  -2.036  52.859  1.00  0.00     0.210 C 
ENDBRANCH  22  25
BRANCH  23  27
HETATM   27  O4  UNL     1      27.743   1.327  54.239  1.00  0.00    -0.353 OA
HETATM   28  C14 UNL     1      28.533   2.356  53.653  1.00  0.00     0.210 C 
ENDBRANCH  23  27
ENDBRANCH  18  19
ENDBRANCH  17  18
ENDBRANCH  16  17
ENDBRANCH   1  16
TORSDOF 9
ENDMDL
MODEL 3
REMARK VINA RESULT:      -7.0      2.108      9.223
REMARK  9 active torsions:
REMARK  status: ('A' for Active; 'I' for Inactive)
REMARK    1  A    between atoms: O1_2  and  C2_3 
REMARK       I    between atoms: C2_3  and  N1_5 
REMARK    2  A    between atoms: N1_5  and  C3_6 
REMARK    3  A    between atoms: C6_9  and  N2_10 
REMARK    4  A    between atoms: N2_10  and  N3_11 
REMARK    5  A    between atoms: N3_11  and  C7_12 
REMARK    6  A    between atoms: C7_12  and  N4_13 
REMARK    7  A    between atoms: N4_13  and  C8_14 
REMARK    8  A    between atoms: C11_17  and  O3_18 
REMARK    9  A    between atoms: C13_20  and  O4_21 
ROOT
HETATM    1  N2  UNL     1      26.926   3.182  51.541  1.00  0.00    -0.268 N 
HETATM    2  H8  UNL     1      27.229   3.942  52.206  1.00  0.00     0.190 HD
ENDROOT
BRANCH   1   3
HETATM    3  C6  UNL     1      26.668   2.003  52.294  1.00  0.00     0.065 A 
HETATM    4  C5  UNL     1      26.577   0.726  51.598  1.00  0.00     0.032 A 
HETATM    5  C4  UNL     1      26.337  -0.317  52.359  1.00  0.00     0.022 A 
HETATM    6  C3  UNL     1      26.145  -0.381  53.824  1.00  0.00     0.209 A 
HETATM    7  N5  UNL     1      26.265   0.964  54.349  1.00  0.00    -0.373 N 
HETATM    8  C16 UNL     1      26.524   2.146  53.602  1.00  0.00     0.116 A 
HETATM    9  H19 UNL     1      26.145   1.037  55.382  1.00  0.00     0.161 HD
BRANCH   6  10
HETATM   10  N1  UNL     1      24.782  -0.830  54.114  1.00  0.00    -0.312 N 
HETATM   11  C2  UNL     1      24.500  -1.143  55.457  1.00  0.00     0.361 C 
HETATM   12  O2  UNL     1      25.352  -1.052  56.376  1.00  0.00    -0.238 OA
HETATM   13  H4  UNL     1      24.130  -0.881  53.300  1.00  0.00     0.167 HD
BRANCH  11  14
HETATM   14  O1  UNL     1      23.228  -1.568  55.765  1.00  0.00    -0.309 OA
HETATM   15  C1  UNL     1      22.172  -1.278  54.846  1.00  0.00     0.215 C 
ENDBRANCH  11  14
ENDBRANCH   6  10
ENDBRANCH   1   3
BRANCH   1  16
HETATM   16  N3  UNL     1      26.690   2.935  50.164  1.00  0.00    -0.109 NA
BRANCH  16  17
HETATM   17  C7  UNL     1      26.756   4.001  49.440  1.00  0.00     0.121 C 
BRANCH  17  18
HETATM   18  N4  UNL     1      26.563   5.062  48.743  1.00  0.00    -0.186 NA
BRANCH  18  19
HETATM   19  C8  UNL     1      27.688   5.903  48.412  1.00  0.00     0.071 A 
HETATM   20  C9  UNL     1      27.674   7.236  48.056  1.00  0.00     0.035 A 
HETATM   21  C10 UNL     1      28.882   7.846  47.779  1.00  0.00     0.042 A 
HETATM   22  C11 UNL     1      30.070   7.145  47.857  1.00  0.00     0.101 A 
HETATM   23  C13 UNL     1      30.106   5.816  48.211  1.00  0.00     0.103 A 
HETATM   24  C15 UNL     1      28.893   5.210  48.486  1.00  0.00     0.072 A 
BRANCH  22  25
HETATM   25  O3  UNL     1      31.275   7.777  47.576  1.00  0.00    -0.353 OA
HETATM   26  C12 UNL     1      31.736   8.116  46.305  1.00  0.00     0.210 C 
ENDBRANCH  22  25
BRANCH  23  27
HETATM   27  O4  UNL     1      31.327   5.158  48.275  1.00  0.00    -0.353 OA
HETATM   28  C14 UNL     1      31.602   4.191  47.267  1.00  0.00     0.210 C 
ENDBRANCH  23  27
ENDBRANCH  18  19
ENDBRANCH  17  18
ENDBRANCH  16  17
ENDBRANCH   1  16
TORSDOF 9
ENDMDL
MODEL 4
REMARK VINA RESULT:      -6.7      1.796      9.072
REMARK  9 active torsions:
REMARK  status: ('A' for Active; 'I' for Inactive)
REMARK    1  A    between atoms: O1_2  and  C2_3 
REMARK       I    between atoms: C2_3  and  N1_5 
REMARK    2  A    between atoms: N1_5  and  C3_6 
REMARK    3  A    between atoms: C6_9  and  N2_10 
REMARK    4  A    between atoms: N2_10  and  N3_11 
REMARK    5  A    between atoms: N3_11  and  C7_12 
REMARK    6  A    between atoms: C7_12  and  N4_13 
REMARK    7  A    between atoms: N4_13  and  C8_14 
REMARK    8  A    between atoms: C11_17  and  O3_18 
REMARK    9  A    between atoms: C13_20  and  O4_21 
ROOT
HETATM    1  N2  UNL     1      26.610   3.211  51.232  1.00  0.00    -0.268 N 
HETATM    2  H8  UNL     1      27.640   3.420  51.153  1.00  0.00     0.190 HD
ENDROOT
BRANCH   1   3
HETATM    3  C6  UNL     1      26.443   2.083  52.082  1.00  0.00     0.065 A 
HETATM    4  C5  UNL     1      26.511   0.747  51.504  1.00  0.00     0.032 A 
HETATM    5  C4  UNL     1      26.348  -0.244  52.351  1.00  0.00     0.022 A 
HETATM    6  C3  UNL     1      26.105  -0.198  53.809  1.00  0.00     0.209 A 
HETATM    7  N5  UNL     1      26.067   1.193  54.211  1.00  0.00    -0.373 N 
HETATM    8  C16 UNL     1      26.233   2.325  53.366  1.00  0.00     0.116 A 
HETATM    9  H19 UNL     1      25.900   1.345  55.229  1.00  0.00     0.161 HD
BRANCH   6  10
HETATM   10  N1  UNL     1      24.785  -0.759  54.097  1.00  0.00    -0.312 N 
HETATM   11  C2  UNL     1      24.546  -1.141  55.432  1.00  0.00     0.361 C 
HETATM   12  O2  UNL     1      25.401  -1.017  56.343  1.00  0.00    -0.238 OA
HETATM   13  H4  UNL     1      24.127  -0.832  53.289  1.00  0.00     0.167 HD
BRANCH  11  14
HETATM   14  O1  UNL     1      23.314  -1.673  55.737  1.00  0.00    -0.309 OA
HETATM   15  C1  UNL     1      22.171  -1.200  55.021  1.00  0.00     0.215 C 
ENDBRANCH  11  14
ENDBRANCH   6  10
ENDBRANCH   1   3
BRANCH   1  16
HETATM   16  N3  UNL     1      25.344   3.667  50.783  1.00  0.00    -0.109 NA
BRANCH  16  17
HETATM   17  C7  UNL     1      25.420   4.440  49.753  1.00  0.00     0.121 C 
BRANCH  17  18
HETATM   18  N4  UNL     1      25.669   5.338  48.870  1.00  0.00    -0.186 NA
BRANCH  18  19
HETATM   19  C8  UNL     1      27.033   5.755  48.652  1.00  0.00     0.071 A 
HETATM   20  C9  UNL     1      28.154   4.959  48.529  1.00  0.00     0.035 A 
HETATM   21  C10 UNL     1      29.370   5.580  48.323  1.00  0.00     0.042 A 
HETATM   22  C11 UNL     1      29.465   6.956  48.243  1.00  0.00     0.101 A 
HETATM   23  C13 UNL     1      28.361   7.767  48.363  1.00  0.00     0.103 A 
HETATM   24  C15 UNL     1      27.145   7.140  48.569  1.00  0.00     0.072 A 
BRANCH  22  25
HETATM   25  O3  UNL     1      30.699   7.561  48.035  1.00  0.00    -0.353 OA
HETATM   26  C12 UNL     1      31.696   7.721  48.995  1.00  0.00     0.210 C 
ENDBRANCH  22  25
BRANCH  23  27
HETATM   27  O4  UNL     1      28.512   9.144  48.274  1.00  0.00    -0.353 OA
HETATM   28  C14 UNL     1      28.447   9.888  49.486  1.00  0.00     0.210 C 
ENDBRANCH  23  27
ENDBRANCH  18  19
ENDBRANCH  17  18
ENDBRANCH  16  17
ENDBRANCH   1  16
TORSDOF 9
ENDMDL
MODEL 5
REMARK VINA RESULT:      -6.6      2.384      9.336
REMARK  9 active torsions:
REMARK  status: ('A' for Active; 'I' for Inactive)
REMARK    1  A    between atoms: O1_2  and  C2_3 
REMARK       I    between atoms: C2_3  and  N1_5 
REMARK    2  A    between atoms: N1_5  and  C3_6 
REMARK    3  A    between atoms: C6_9  and  N2_10 
REMARK    4  A    between atoms: N2_10  and  N3_11 
REMARK    5  A    between atoms: N3_11  and  C7_12 
REMARK    6  A    between atoms: C7_12  and  N4_13 
REMARK    7  A    between atoms: N4_13  and  C8_14 
REMARK    8  A    between atoms: C11_17  and  O3_18 
REMARK    9  A    between atoms: C13_20  and  O4_21 
ROOT
HETATM    1  N2  UNL     1      27.290   2.940  51.706  1.00  0.00    -0.268 N 
HETATM    2  H8  UNL     1      28.224   3.274  52.062  1.00  0.00     0.190 HD
ENDROOT
BRANCH   1   3
HETATM    3  C6  UNL     1      26.893   1.809  52.472  1.00  0.00     0.065 A 
HETATM    4  C5  UNL     1      26.740   0.522  51.805  1.00  0.00     0.032 A 
HETATM    5  C4  UNL     1      26.373  -0.474  52.578  1.00  0.00     0.022 A 
HETATM    6  C3  UNL     1      26.091  -0.478  54.029  1.00  0.00     0.209 A 
HETATM    7  N5  UNL     1      26.289   0.869  54.526  1.00  0.00    -0.373 N 
HETATM    8  C16 UNL     1      26.686   2.003  53.765  1.00  0.00     0.116 A 
HETATM    9  H19 UNL     1      26.116   0.983  55.547  1.00  0.00     0.161 HD
BRANCH   6  10
HETATM   10  N1  UNL     1      24.682  -0.808  54.248  1.00  0.00    -0.312 N 
HETATM   11  C2  UNL     1      24.326  -1.187  55.556  1.00  0.00     0.361 C 
HETATM   12  O2  UNL     1      25.150  -1.247  56.502  1.00  0.00    -0.238 OA
HETATM   13  H4  UNL     1      24.057  -0.735  53.415  1.00  0.00     0.167 HD
BRANCH  11  14
HETATM   14  O1  UNL     1      23.008  -1.504  55.796  1.00  0.00    -0.309 OA
HETATM   15  C1  UNL     1      22.023  -1.089  54.847  1.00  0.00     0.215 C 
ENDBRANCH  11  14
ENDBRANCH   6  10
ENDBRANCH   1   3
BRANCH   1  16
HETATM   16  N3  UNL     1      26.302   3.231  50.730  1.00  0.00    -0.109 NA
BRANCH  16  17
HETATM   17  C7  UNL     1      26.779   3.814  49.683  1.00  0.00     0.121 C 
BRANCH  17  18
HETATM   18  N4  UNL     1      27.484   4.340  48.748  1.00  0.00    -0.186 NA
BRANCH  18  19
HETATM   19  C8  UNL     1      27.363   5.753  48.482  1.00  0.00     0.071 A 
HETATM   20  C9  UNL     1      28.325   6.609  47.986  1.00  0.00     0.035 A 
HETATM   21  C10 UNL     1      27.984   7.936  47.810  1.00  0.00     0.042 A 
HETATM   22  C11 UNL     1      26.719   8.395  48.119  1.00  0.00     0.101 A 
HETATM   23  C13 UNL     1      25.745   7.558  48.615  1.00  0.00     0.103 A 
HETATM   24  C15 UNL     1      26.092   6.231  48.789  1.00  0.00     0.072 A 
BRANCH  22  25
HETATM   25  O3  UNL     1      26.395   9.733  47.935  1.00  0.00    -0.353 OA
HETATM   26  C12 UNL     1      27.137  10.653  47.195  1.00  0.00     0.210 C 
ENDBRANCH  22  25
BRANCH  23  27
HETATM   27  O4  UNL     1      24.489   8.072  48.909  1.00  0.00    -0.353 OA
HETATM   28  C14 UNL     1      24.126   8.161  50.283  1.00  0.00     0.210 C 
ENDBRANCH  23  27
ENDBRANCH  18  19
ENDBRANCH  17  18
ENDBRANCH  16  17
ENDBRANCH   1  16
TORSDOF 9
ENDMDL
MODEL 6
REMARK VINA RESULT:      -6.5      2.080      3.258
REMARK  9 active torsions:
REMARK  status: ('A' for Active; 'I' for Inactive)
REMARK    1  A    between atoms: O1_2  and  C2_3 
REMARK       I    between atoms: C2_3  and  N1_5 
REMARK    2  A    between atoms: N1_5  and  C3_6 
REMARK    3  A    between atoms: C6_9  and  N2_10 
REMARK    4  A    between atoms: N2_10  and  N3_11 
REMARK    5  A    between atoms: N3_11  and  C7_12 
REMARK    6  A    between atoms: C7_12  and  N4_13 
REMARK    7  A    between atoms: N4_13  and  C8_14 
REMARK    8  A    between atoms: C11_17  and  O3_18 
REMARK    9  A    between atoms: C13_20  and  O4_21 
ROOT
HETATM    1  N2  UNL     1      22.054   3.558  52.348  1.00  0.00    -0.268 N 
HETATM    2  H8  UNL     1      22.090   4.209  53.177  1.00  0.00     0.190 HD
ENDROOT
BRANCH   1   3
HETATM    3  C6  UNL     1      22.928   4.060  51.344  1.00  0.00     0.065 A 
HETATM    4  C5  UNL     1      22.770   3.593  49.972  1.00  0.00     0.032 A 
HETATM    5  C4  UNL     1      23.613   4.101  49.103  1.00  0.00     0.022 A 
HETATM    6  C3  UNL     1      24.701   5.079  49.315  1.00  0.00     0.209 A 
HETATM    7  N5  UNL     1      24.716   5.431  50.721  1.00  0.00    -0.373 N 
HETATM    8  C16 UNL     1      23.844   4.934  51.729  1.00  0.00     0.116 A 
HETATM    9  H19 UNL     1      25.451   6.121  50.986  1.00  0.00     0.161 HD
BRANCH   6  10
HETATM   10  N1  UNL     1      25.987   4.444  49.023  1.00  0.00    -0.312 N 
HETATM   11  C2  UNL     1      27.083   5.309  48.837  1.00  0.00     0.361 C 
HETATM   12  O2  UNL     1      26.990   6.559  48.913  1.00  0.00    -0.238 OA
HETATM   13  H4  UNL     1      25.987   3.401  48.977  1.00  0.00     0.167 HD
BRANCH  11  14
HETATM   14  O1  UNL     1      28.307   4.744  48.561  1.00  0.00    -0.309 OA
HETATM   15  C1  UNL     1      29.374   5.599  48.146  1.00  0.00     0.215 C 
ENDBRANCH  11  14
ENDBRANCH   6  10
ENDBRANCH   1   3
BRANCH   1  16
HETATM   16  N3  UNL     1      21.435   2.364  51.895  1.00  0.00    -0.109 NA
BRANCH  16  17
HETATM   17  C7  UNL     1      21.856   1.311  52.510  1.00  0.00     0.121 C 
BRANCH  17  18
HETATM   18  N4  UNL     1      22.132   0.136  52.948  1.00  0.00    -0.186 NA
BRANCH  18  19
HETATM   19  C8  UNL     1      23.468  -0.148  53.413  1.00  0.00     0.071 A 
HETATM   20  C9  UNL     1      23.842  -0.832  54.552  1.00  0.00     0.035 A 
HETATM   21  C10 UNL     1      25.192  -0.985  54.802  1.00  0.00     0.042 A 
HETATM   22  C11 UNL     1      26.141  -0.472  53.940  1.00  0.00     0.101 A 
HETATM   23  C13 UNL     1      25.789   0.212  52.799  1.00  0.00     0.103 A 
HETATM   24  C15 UNL     1      24.437   0.364  52.554  1.00  0.00     0.072 A 
BRANCH  22  25
HETATM   25  O3  UNL     1      27.493  -0.638  54.209  1.00  0.00    -0.353 OA
HETATM   26  C12 UNL     1      28.302   0.267  54.894  1.00  0.00     0.210 C 
ENDBRANCH  22  25
BRANCH  23  27
HETATM   27  O4  UNL     1      26.783   0.707  51.966  1.00  0.00    -0.353 OA
HETATM   28  C14 UNL     1      26.721   2.088  51.624  1.00  0.00     0.210 C 
ENDBRANCH  23  27
ENDBRANCH  18  19
ENDBRANCH  17  18
ENDBRANCH  16  17
ENDBRANCH   1  16
TORSDOF 9
ENDMDL
MODEL 7
REMARK VINA RESULT:      -6.5      1.815      2.144
REMARK  9 active torsions:
REMARK  status: ('A' for Active; 'I' for Inactive)
REMARK    1  A    between atoms: O1_2  and  C2_3 
REMARK       I    between atoms: C2_3  and  N1_5 
REMARK    2  A    between atoms: N1_5  and  C3_6 
REMARK    3  A    between atoms: C6_9  and  N2_10 
REMARK    4  A    between atoms: N2_10  and  N3_11 
REMARK    5  A    between atoms: N3_11  and  C7_12 
REMARK    6  A    between atoms: C7_12  and  N4_13 
REMARK    7  A    between atoms: N4_13  and  C8_14 
REMARK    8  A    between atoms: C11_17  and  O3_18 
REMARK    9  A    between atoms: C13_20  and  O4_21 
ROOT
HETATM    1  N2  UNL     1      24.231   6.490  51.478  1.00  0.00    -0.268 N 
HETATM    2  H8  UNL     1      24.585   7.091  52.268  1.00  0.00     0.190 HD
ENDROOT
BRANCH   1   3
HETATM    3  C6  UNL     1      25.263   6.371  50.506  1.00  0.00     0.065 A 
HETATM    4  C5  UNL     1      25.436   5.102  49.810  1.00  0.00     0.032 A 
HETATM    5  C4  UNL     1      26.408   5.070  48.928  1.00  0.00     0.022 A 
HETATM    6  C3  UNL     1      27.354   6.137  48.538  1.00  0.00     0.209 A 
HETATM    7  N5  UNL     1      27.043   7.317  49.320  1.00  0.00    -0.373 N 
HETATM    8  C16 UNL     1      26.012   7.441  50.293  1.00  0.00     0.116 A 
HETATM    9  H19 UNL     1      27.654   8.139  49.125  1.00  0.00     0.161 HD
BRANCH   6  10
HETATM   10  N1  UNL     1      28.714   5.735  48.900  1.00  0.00    -0.312 N 
HETATM   11  C2  UNL     1      29.751   6.243  48.094  1.00  0.00     0.361 C 
HETATM   12  O2  UNL     1      29.548   7.001  47.113  1.00  0.00    -0.238 OA
HETATM   13  H4  UNL     1      28.804   5.103  49.727  1.00  0.00     0.167 HD
BRANCH  11  14
HETATM   14  O1  UNL     1      31.042   5.884  48.407  1.00  0.00    -0.309 OA
HETATM   15  C1  UNL     1      31.665   6.497  49.538  1.00  0.00     0.215 C 
ENDBRANCH  11  14
ENDBRANCH   6  10
ENDBRANCH   1   3
BRANCH   1  16
HETATM   16  N3  UNL     1      23.087   5.766  51.056  1.00  0.00    -0.109 NA
BRANCH  16  17
HETATM   17  C7  UNL     1      22.942   4.643  51.674  1.00  0.00     0.121 C 
BRANCH  17  18
HETATM   18  N4  UNL     1      22.558   3.612  52.337  1.00  0.00    -0.186 NA
BRANCH  18  19
HETATM   19  C8  UNL     1      23.490   2.536  52.571  1.00  0.00     0.071 A 
HETATM   20  C9  UNL     1      24.863   2.557  52.430  1.00  0.00     0.035 A 
HETATM   21  C10 UNL     1      25.561   1.399  52.711  1.00  0.00     0.042 A 
HETATM   22  C11 UNL     1      24.908   0.253  53.121  1.00  0.00     0.101 A 
HETATM   23  C13 UNL     1      23.540   0.211  53.267  1.00  0.00     0.103 A 
HETATM   24  C15 UNL     1      22.846   1.373  52.984  1.00  0.00     0.072 A 
BRANCH  22  25
HETATM   25  O3  UNL     1      25.629  -0.902  53.399  1.00  0.00    -0.353 OA
HETATM   26  C12 UNL     1      26.656  -1.426  52.616  1.00  0.00     0.210 C 
ENDBRANCH  22  25
BRANCH  23  27
HETATM   27  O4  UNL     1      22.934  -0.967  53.682  1.00  0.00    -0.353 OA
HETATM   28  C14 UNL     1      21.512  -0.980  53.757  1.00  0.00     0.210 C 
ENDBRANCH  23  27
ENDBRANCH  18  19
ENDBRANCH  17  18
ENDBRANCH  16  17
ENDBRANCH   1  16
TORSDOF 9
ENDMDL
MODEL 8
REMARK VINA RESULT:      -6.4      4.069      6.779
REMARK  9 active torsions:
REMARK  status: ('A' for Active; 'I' for Inactive)
REMARK    1  A    between atoms: O1_2  and  C2_3 
REMARK       I    between atoms: C2_3  and  N1_5 
REMARK    2  A    between atoms: N1_5  and  C3_6 
REMARK    3  A    between atoms: C6_9  and  N2_10 
REMARK    4  A    between atoms: N2_10  and  N3_11 
REMARK    5  A    between atoms: N3_11  and  C7_12 
REMARK    6  A    between atoms: C7_12  and  N4_13 
REMARK    7  A    between atoms: N4_13  and  C8_14 
REMARK    8  A    between atoms: C11_17  and  O3_18 
REMARK    9  A    between atoms: C13_20  and  O4_21 
ROOT
HETATM    1  N2  UNL     1      24.844   5.077  50.173  1.00  0.00    -0.268 N 
HETATM    2  H8  UNL     1      24.862   6.116  50.352  1.00  0.00     0.190 HD
ENDROOT
BRANCH   1   3
HETATM    3  C6  UNL     1      23.620   4.554  50.675  1.00  0.00     0.065 A 
HETATM    4  C5  UNL     1      23.252   4.821  52.060  1.00  0.00     0.032 A 
HETATM    5  C4  UNL     1      22.109   4.306  52.450  1.00  0.00     0.022 A 
HETATM    6  C3  UNL     1      21.139   3.493  51.685  1.00  0.00     0.209 A 
HETATM    7  N5  UNL     1      21.658   3.326  50.342  1.00  0.00    -0.373 N 
HETATM    8  C16 UNL     1      22.881   3.847  49.835  1.00  0.00     0.116 A 
HETATM    9  H19 UNL     1      21.050   2.763  49.710  1.00  0.00     0.161 HD
BRANCH   6  10
HETATM   10  N1  UNL     1      21.055   2.157  52.276  1.00  0.00    -0.312 N 
HETATM   11  C2  UNL     1      20.009   1.335  51.815  1.00  0.00     0.361 C 
HETATM   12  O2  UNL     1      19.181   1.702  50.944  1.00  0.00    -0.238 OA
HETATM   13  H4  UNL     1      21.777   1.923  52.993  1.00  0.00     0.167 HD
BRANCH  11  14
HETATM   14  O1  UNL     1      19.900   0.072  52.351  1.00  0.00    -0.309 OA
HETATM   15  C1  UNL     1      18.595  -0.471  52.557  1.00  0.00     0.215 C 
ENDBRANCH  11  14
ENDBRANCH   6  10
ENDBRANCH   1   3
BRANCH   1  16
HETATM   16  N3  UNL     1      25.618   4.032  49.608  1.00  0.00    -0.109 NA
BRANCH  16  17
HETATM   17  C7  UNL     1      26.321   3.393  50.481  1.00  0.00     0.121 C 
BRANCH  17  18
HETATM   18  N4  UNL     1      27.077   2.601  51.151  1.00  0.00    -0.186 NA
BRANCH  18  19
HETATM   19  C8  UNL     1      26.485   1.714  52.124  1.00  0.00     0.071 A 
HETATM   20  C9  UNL     1      25.145   1.532  52.400  1.00  0.00     0.035 A 
HETATM   21  C10 UNL     1      24.804   0.622  53.382  1.00  0.00     0.042 A 
HETATM   22  C11 UNL     1      25.771  -0.085  54.068  1.00  0.00     0.101 A 
HETATM   23  C13 UNL     1      27.112   0.082  53.808  1.00  0.00     0.103 A 
HETATM   24  C15 UNL     1      27.448   0.994  52.824  1.00  0.00     0.072 A 
BRANCH  22  25
HETATM   25  O3  UNL     1      25.407  -0.996  55.052  1.00  0.00    -0.353 OA
HETATM   26  C12 UNL     1      24.102  -1.290  55.442  1.00  0.00     0.210 C 
ENDBRANCH  22  25
BRANCH  23  27
HETATM   27  O4  UNL     1      28.044  -0.654  54.527  1.00  0.00    -0.353 OA
HETATM   28  C14 UNL     1      29.381  -0.674  54.036  1.00  0.00     0.210 C 
ENDBRANCH  23  27
ENDBRANCH  18  19
ENDBRANCH  17  18
ENDBRANCH  16  17
ENDBRANCH   1  16
TORSDOF 9
ENDMDL
MODEL 9
REMARK VINA RESULT:      -6.4      1.293      2.381
REMARK  9 active torsions:
REMARK  status: ('A' for Active; 'I' for Inactive)
REMARK    1  A    between atoms: O1_2  and  C2_3 
REMARK       I    between atoms: C2_3  and  N1_5 
REMARK    2  A    between atoms: N1_5  and  C3_6 
REMARK    3  A    between atoms: C6_9  and  N2_10 
REMARK    4  A    between atoms: N2_10  and  N3_11 
REMARK    5  A    between atoms: N3_11  and  C7_12 
REMARK    6  A    between atoms: C7_12  and  N4_13 
REMARK    7  A    between atoms: N4_13  and  C8_14 
REMARK    8  A    between atoms: C11_17  and  O3_18 
REMARK    9  A    between atoms: C13_20  and  O4_21 
ROOT
HETATM    1  N2  UNL     1      24.801   5.305  50.356  1.00  0.00    -0.268 N 
HETATM    2  H8  UNL     1      24.358   5.804  51.172  1.00  0.00     0.190 HD
ENDROOT
BRANCH   1   3
HETATM    3  C6  UNL     1      25.807   6.147  49.805  1.00  0.00     0.065 A 
HETATM    4  C5  UNL     1      26.548   5.691  48.636  1.00  0.00     0.032 A 
HETATM    5  C4  UNL     1      27.459   6.523  48.185  1.00  0.00     0.022 A 
HETATM    6  C3  UNL     1      27.842   7.857  48.695  1.00  0.00     0.209 A 
HETATM    7  N5  UNL     1      27.015   8.148  49.848  1.00  0.00    -0.373 N 
HETATM    8  C16 UNL     1      26.008   7.311  50.403  1.00  0.00     0.116 A 
HETATM    9  H19 UNL     1      27.202   9.073  50.292  1.00  0.00     0.161 HD
BRANCH   6  10
HETATM   10  N1  UNL     1      29.227   7.815  49.165  1.00  0.00    -0.312 N 
HETATM   11  C2  UNL     1      29.862   9.059  49.350  1.00  0.00     0.361 C 
HETATM   12  O2  UNL     1      29.294  10.157  49.131  1.00  0.00    -0.238 OA
HETATM   13  H4  UNL     1      29.632   6.866  49.325  1.00  0.00     0.167 HD
BRANCH  11  14
HETATM   14  O1  UNL     1      31.165   9.055  49.792  1.00  0.00    -0.309 OA
HETATM   15  C1  UNL     1      32.044   8.034  49.315  1.00  0.00     0.215 C 
ENDBRANCH  11  14
ENDBRANCH   6  10
ENDBRANCH   1   3
BRANCH   1  16
HETATM   16  N3  UNL     1      24.737   4.091  49.626  1.00  0.00    -0.109 NA
BRANCH  16  17
HETATM   17  C7  UNL     1      25.429   3.142  50.158  1.00  0.00     0.121 C 
BRANCH  17  18
HETATM   18  N4  UNL     1      26.305   2.376  50.702  1.00  0.00    -0.186 NA
BRANCH  18  19
HETATM   19  C8  UNL     1      25.932   1.573  51.840  1.00  0.00     0.071 A 
HETATM   20  C9  UNL     1      24.825   1.715  52.653  1.00  0.00     0.035 A 
HETATM   21  C10 UNL     1      24.668   0.823  53.696  1.00  0.00     0.042 A 
HETATM   22  C11 UNL     1      25.588  -0.182  53.921  1.00  0.00     0.101 A 
HETATM   23  C13 UNL     1      26.697  -0.341  53.123  1.00  0.00     0.103 A 
HETATM   24  C15 UNL     1      26.850   0.554  52.081  1.00  0.00     0.072 A 
BRANCH  22  25
HETATM   25  O3  UNL     1      25.411  -1.069  54.976  1.00  0.00    -0.353 OA
HETATM   26  C12 UNL     1      24.189  -1.410  55.553  1.00  0.00     0.210 C 
ENDBRANCH  22  25
BRANCH  23  27
HETATM   27  O4  UNL     1      27.591  -1.369  53.394  1.00  0.00    -0.353 OA
HETATM   28  C14 UNL     1      28.959  -1.016  53.567  1.00  0.00     0.210 C 
ENDBRANCH  23  27
ENDBRANCH  18  19
ENDBRANCH  17  18
ENDBRANCH  16  17
ENDBRANCH   1  16
TORSDOF 9
ENDMDL
