MODEL 1
REMARK VINA RESULT:      -6.9      0.000      0.000
REMARK  4 active torsions:
REMARK  status: ('A' for Active; 'I' for Inactive)
REMARK    1  A    between atoms: O1_2  and  C2_3 
REMARK    2  A    between atoms: N1_6  and  C5_7 
REMARK    3  A    between atoms: C8_11  and  N3_12 
REMARK    4  A    between atoms: N3_12  and  C9_13 
ROOT
HETATM    1  C5  UNL     1      25.819   2.482  52.234  1.00  0.00     0.316 A 
HETATM    2  C6  UNL     1      24.928   2.734  53.413  1.00  0.00     0.036 A 
HETATM    3  C7  UNL     1      23.846   3.403  52.999  1.00  0.00     0.117 A 
HETATM    4  N2  UNL     1      23.938   3.632  51.583  1.00  0.00    -0.245 NA
HETATM    5  C8  UNL     1      25.056   3.111  51.148  1.00  0.00     0.141 A 
ENDROOT
BRANCH   5   6
HETATM    6  N3  UNL     1      25.499   3.137  49.792  1.00  0.00    -0.351 N 
HETATM    7  H12 UNL     1      24.882   2.805  48.994  1.00  0.00     0.166 HD
BRANCH   6   8
HETATM    8  C9  UNL     1      26.760   3.592  49.396  1.00  0.00     0.101 C 
HETATM    9  C10 UNL     1      26.942   4.786  48.923  1.00  0.00    -0.021 A 
HETATM   10  C11 UNL     1      25.824   5.704  48.790  1.00  0.00     0.013 A 
HETATM   11  C14 UNL     1      28.259   5.244  48.514  1.00  0.00     0.013 A 
HETATM   12  C12 UNL     1      25.803   6.941  48.340  1.00  0.00     0.009 A 
HETATM   13  P1  UNL     1      27.370   7.695  47.776  1.00  0.00    -0.083 P 
HETATM   14  C13 UNL     1      28.640   6.404  48.019  1.00  0.00     0.009 A 
HETATM   15  H16 UNL     1      27.316   8.014  46.344  1.00  0.00     0.066 HD
ENDBRANCH   6   8
ENDBRANCH   5   6
BRANCH   1  16
HETATM   16  N1  UNL     1      26.024   1.063  52.028  1.00  0.00     0.106 N 
HETATM   17  C4  UNL     1      25.092   0.254  52.751  1.00  0.00     0.276 C 
HETATM   18  C3  UNL     1      25.808  -1.016  53.092  1.00  0.00     0.064 C 
HETATM   19  C2  UNL     1      27.240  -0.610  53.185  1.00  0.00     0.150 C 
HETATM   20  C15 UNL     1      27.348   0.718  52.507  1.00  0.00     0.305 C 
BRANCH  19  21
HETATM   21  O1  UNL     1      27.626  -0.485  54.513  1.00  0.00    -0.389 OA
HETATM   22  C1  UNL     1      28.613   0.507  54.615  1.00  0.00     0.202 C 
ENDBRANCH  19  21
ENDBRANCH   1  16
TORSDOF 4
ENDMDL
MODEL 2
REMARK VINA RESULT:      -6.6      2.064      3.272
REMARK  4 active torsions:
REMARK  status: ('A' for Active; 'I' for Inactive)
REMARK    1  A    between atoms: O1_2  and  C2_3 
REMARK    2  A    between atoms: N1_6  and  C5_7 
REMARK    3  A    between atoms: C8_11  and  N3_12 
REMARK    4  A    between atoms: N3_12  and  C9_13 
ROOT
HETATM    1  C5  UNL     1      23.911   0.729  53.091  1.00  0.00     0.316 A 
HETATM    2  C6  UNL     1      23.460  -0.533  53.760  1.00  0.00     0.036 A 
HETATM    3  C7  UNL     1      22.310  -0.929  53.202  1.00  0.00     0.117 A 
HETATM    4  N2  UNL     1      21.934  -0.001  52.171  1.00  0.00    -0.245 NA
HETATM    5  C8  UNL     1      22.842   0.940  52.107  1.00  0.00     0.141 A 
ENDROOT
BRANCH   5   6
HETATM    6  N3  UNL     1      22.815   2.042  51.202  1.00  0.00    -0.351 N 
HETATM    7  H12 UNL     1      22.810   1.903  50.149  1.00  0.00     0.166 HD
BRANCH   6   8
HETATM    8  C9  UNL     1      22.793   3.380  51.607  1.00  0.00     0.101 C 
HETATM    9  C10 UNL     1      23.580   4.269  51.084  1.00  0.00    -0.021 A 
HETATM   10  C11 UNL     1      24.522   3.897  50.043  1.00  0.00     0.013 A 
HETATM   11  C14 UNL     1      23.546   5.655  51.517  1.00  0.00     0.013 A 
HETATM   12  C12 UNL     1      25.393   4.642  49.394  1.00  0.00     0.009 A 
HETATM   13  P1  UNL     1      25.499   6.421  49.802  1.00  0.00    -0.083 P 
HETATM   14  C13 UNL     1      24.255   6.690  51.113  1.00  0.00     0.009 A 
HETATM   15  H16 UNL     1      26.818   6.757  50.354  1.00  0.00     0.066 HD
ENDBRANCH   6   8
ENDBRANCH   5   6
BRANCH   1  16
HETATM   16  N1  UNL     1      25.212   0.559  52.477  1.00  0.00     0.106 N 
HETATM   17  C4  UNL     1      25.869  -0.645  52.885  1.00  0.00     0.276 C 
HETATM   18  C3  UNL     1      27.337  -0.358  52.859  1.00  0.00     0.064 C 
HETATM   19  C2  UNL     1      27.424   1.106  53.129  1.00  0.00     0.150 C 
HETATM   20  C15 UNL     1      26.058   1.664  52.886  1.00  0.00     0.305 C 
BRANCH  19  21
HETATM   21  O1  UNL     1      27.790   1.337  54.449  1.00  0.00    -0.389 OA
HETATM   22  C1  UNL     1      28.730   0.374  54.843  1.00  0.00     0.202 C 
ENDBRANCH  19  21
ENDBRANCH   1  16
TORSDOF 4
ENDMDL
MODEL 3
REMARK VINA RESULT:      -6.5      3.791      6.850
REMARK  4 active torsions:
REMARK  status: ('A' for Active; 'I' for Inactive)
REMARK    1  A    between atoms: O1_2  and  C2_3 
REMARK    2  A    between atoms: N1_6  and  C5_7 
REMARK    3  A    between atoms: C8_11  and  N3_12 
REMARK    4  A    between atoms: N3_12  and  C9_13 
ROOT
HETATM    1  C5  UNL     1      26.132   1.748  52.978  1.00  0.00     0.316 A 
HETATM    2  C6  UNL     1      27.541   2.177  53.253  1.00  0.00     0.036 A 
HETATM    3  C7  UNL     1      28.247   1.111  53.649  1.00  0.00     0.117 A 
HETATM    4  N2  UNL     1      27.395  -0.047  53.665  1.00  0.00    -0.245 NA
HETATM    5  C8  UNL     1      26.196   0.313  53.284  1.00  0.00     0.141 A 
ENDROOT
BRANCH   5   6
HETATM    6  N3  UNL     1      25.075  -0.563  53.174  1.00  0.00    -0.351 N 
HETATM    7  H12 UNL     1      25.009  -1.294  52.406  1.00  0.00     0.166 HD
BRANCH   6   8
HETATM    8  C9  UNL     1      23.984  -0.542  54.047  1.00  0.00     0.101 C 
HETATM    9  C10 UNL     1      22.776  -0.316  53.631  1.00  0.00    -0.021 A 
HETATM   10  C11 UNL     1      22.515  -0.075  52.223  1.00  0.00     0.013 A 
HETATM   11  C14 UNL     1      21.652  -0.296  54.551  1.00  0.00     0.013 A 
HETATM   12  C12 UNL     1      21.375   0.170  51.610  1.00  0.00     0.009 A 
HETATM   13  P1  UNL     1      19.843   0.235  52.605  1.00  0.00    -0.083 P 
HETATM   14  C13 UNL     1      20.371  -0.088  54.324  1.00  0.00     0.009 A 
HETATM   15  H16 UNL     1      19.242   1.573  52.559  1.00  0.00     0.066 HD
ENDBRANCH   6   8
ENDBRANCH   5   6
BRANCH   1  16
HETATM   16  N1  UNL     1      25.764   2.012  51.603  1.00  0.00     0.106 N 
HETATM   17  C4  UNL     1      26.705   2.851  50.925  1.00  0.00     0.276 C 
HETATM   18  C3  UNL     1      25.923   3.639  49.920  1.00  0.00     0.064 C 
HETATM   19  C2  UNL     1      24.564   3.748  50.524  1.00  0.00     0.150 C 
HETATM   20  C15 UNL     1      24.492   2.708  51.596  1.00  0.00     0.305 C 
BRANCH  19  21
HETATM   21  O1  UNL     1      24.380   5.005  51.086  1.00  0.00    -0.389 OA
HETATM   22  C1  UNL     1      23.517   4.896  52.187  1.00  0.00     0.202 C 
ENDBRANCH  19  21
ENDBRANCH   1  16
TORSDOF 4
ENDMDL
MODEL 4
REMARK VINA RESULT:      -6.4      3.736      6.190
REMARK  4 active torsions:
REMARK  status: ('A' for Active; 'I' for Inactive)
REMARK    1  A    between atoms: O1_2  and  C2_3 
REMARK    2  A    between atoms: N1_6  and  C5_7 
REMARK    3  A    between atoms: C8_11  and  N3_12 
REMARK    4  A    between atoms: N3_12  and  C9_13 
ROOT
HETATM    1  C5  UNL     1      25.936   1.541  52.088  1.00  0.00     0.316 A 
HETATM    2  C6  UNL     1      26.680   2.172  50.950  1.00  0.00     0.036 A 
HETATM    3  C7  UNL     1      25.953   3.188  50.471  1.00  0.00     0.117 A 
HETATM    4  N2  UNL     1      24.732   3.298  51.221  1.00  0.00    -0.245 NA
HETATM    5  C8  UNL     1      24.721   2.365  52.139  1.00  0.00     0.141 A 
ENDROOT
BRANCH   5   6
HETATM    6  N3  UNL     1      23.670   2.155  53.081  1.00  0.00    -0.351 N 
HETATM    7  H12 UNL     1      23.101   2.961  53.474  1.00  0.00     0.166 HD
BRANCH   6   8
HETATM    8  C9  UNL     1      23.300   0.898  53.564  1.00  0.00     0.101 C 
HETATM    9  C10 UNL     1      22.092   0.442  53.441  1.00  0.00    -0.021 A 
HETATM   10  C11 UNL     1      21.070   1.237  52.784  1.00  0.00     0.013 A 
HETATM   11  C14 UNL     1      21.723  -0.867  53.950  1.00  0.00     0.013 A 
HETATM   12  C12 UNL     1      19.802   0.956  52.561  1.00  0.00     0.009 A 
HETATM   13  P1  UNL     1      19.148  -0.653  53.131  1.00  0.00    -0.083 P 
HETATM   14  C13 UNL     1      20.565  -1.495  53.920  1.00  0.00     0.009 A 
HETATM   15  H16 UNL     1      18.107  -0.467  54.149  1.00  0.00     0.066 HD
ENDBRANCH   6   8
ENDBRANCH   5   6
BRANCH   1  16
HETATM   16  N1  UNL     1      26.706   1.601  53.313  1.00  0.00     0.106 N 
HETATM   17  C4  UNL     1      28.075   1.955  53.095  1.00  0.00     0.276 C 
HETATM   18  C3  UNL     1      28.867   1.268  54.164  1.00  0.00     0.064 C 
HETATM   19  C2  UNL     1      28.066   0.050  54.480  1.00  0.00     0.150 C 
HETATM   20  C15 UNL     1      26.699   0.284  53.921  1.00  0.00     0.305 C 
BRANCH  19  21
HETATM   21  O1  UNL     1      28.626  -1.070  53.879  1.00  0.00    -0.389 OA
HETATM   22  C1  UNL     1      30.015  -0.901  53.790  1.00  0.00     0.202 C 
ENDBRANCH  19  21
ENDBRANCH   1  16
TORSDOF 4
ENDMDL
MODEL 5
REMARK VINA RESULT:      -6.4      5.294      7.114
REMARK  4 active torsions:
REMARK  status: ('A' for Active; 'I' for Inactive)
REMARK    1  A    between atoms: O1_2  and  C2_3 
REMARK    2  A    between atoms: N1_6  and  C5_7 
REMARK    3  A    between atoms: C8_11  and  N3_12 
REMARK    4  A    between atoms: N3_12  and  C9_13 
ROOT
HETATM    1  C5  UNL     1      21.796  -0.134  52.702  1.00  0.00     0.316 A 
HETATM    2  C6  UNL     1      20.673  -0.588  53.584  1.00  0.00     0.036 A 
HETATM    3  C7  UNL     1      21.189  -1.195  54.660  1.00  0.00     0.117 A 
HETATM    4  N2  UNL     1      22.624  -1.188  54.571  1.00  0.00    -0.245 NA
HETATM    5  C8  UNL     1      22.969  -0.587  53.461  1.00  0.00     0.141 A 
ENDROOT
BRANCH   5   6
HETATM    6  N3  UNL     1      24.312  -0.385  53.024  1.00  0.00    -0.351 N 
HETATM    7  H12 UNL     1      24.651  -0.729  52.078  1.00  0.00     0.166 HD
BRANCH   6   8
HETATM    8  C9  UNL     1      25.286   0.270  53.783  1.00  0.00     0.101 C 
HETATM    9  C10 UNL     1      26.532  -0.090  53.761  1.00  0.00    -0.021 A 
HETATM   10  C11 UNL     1      26.961  -1.203  52.932  1.00  0.00     0.013 A 
HETATM   11  C14 UNL     1      27.532   0.600  54.557  1.00  0.00     0.013 A 
HETATM   12  C12 UNL     1      28.164  -1.716  52.773  1.00  0.00     0.009 A 
HETATM   13  P1  UNL     1      29.560  -0.979  53.696  1.00  0.00    -0.083 P 
HETATM   14  C13 UNL     1      28.827   0.386  54.666  1.00  0.00     0.009 A 
HETATM   15  H16 UNL     1      30.137  -1.945  54.637  1.00  0.00     0.066 HD
ENDBRANCH   6   8
ENDBRANCH   5   6
BRANCH   1  16
HETATM   16  N1  UNL     1      21.768   1.302  52.516  1.00  0.00     0.106 N 
HETATM   17  C4  UNL     1      20.481   1.872  52.773  1.00  0.00     0.276 C 
HETATM   18  C3  UNL     1      20.356   3.061  51.872  1.00  0.00     0.064 C 
HETATM   19  C2  UNL     1      21.209   2.716  50.698  1.00  0.00     0.150 C 
HETATM   20  C15 UNL     1      22.092   1.590  51.133  1.00  0.00     0.305 C 
BRANCH  19  21
HETATM   21  O1  UNL     1      20.424   2.303  49.630  1.00  0.00    -0.389 OA
HETATM   22  C1  UNL     1      21.072   1.255  48.959  1.00  0.00     0.202 C 
ENDBRANCH  19  21
ENDBRANCH   1  16
TORSDOF 4
ENDMDL
MODEL 6
REMARK VINA RESULT:      -6.3      3.786      5.308
REMARK  4 active torsions:
REMARK  status: ('A' for Active; 'I' for Inactive)
REMARK    1  A    between atoms: O1_2  and  C2_3 
REMARK    2  A    between atoms: N1_6  and  C5_7 
REMARK    3  A    between atoms: C8_11  and  N3_12 
REMARK    4  A    between atoms: N3_12  and  C9_13 
ROOT
HETATM    1  C5  UNL     1      22.840   2.610  52.350  1.00  0.00     0.316 A 
HETATM    2  C6  UNL     1      21.800   3.663  52.109  1.00  0.00     0.036 A 
HETATM    3  C7  UNL     1      22.233   4.482  51.144  1.00  0.00     0.117 A 
HETATM    4  N2  UNL     1      23.529   4.052  50.696  1.00  0.00    -0.245 NA
HETATM    5  C8  UNL     1      23.875   2.990  51.380  1.00  0.00     0.141 A 
ENDROOT
BRANCH   5   6
HETATM    6  N3  UNL     1      25.099   2.276  51.218  1.00  0.00    -0.351 N 
HETATM    7  H12 UNL     1      25.191   1.469  50.534  1.00  0.00     0.166 HD
BRANCH   6   8
HETATM    8  C9  UNL     1      26.266   2.564  51.931  1.00  0.00     0.101 C 
HETATM    9  C10 UNL     1      27.014   1.631  52.432  1.00  0.00    -0.021 A 
HETATM   10  C11 UNL     1      26.658   0.233  52.264  1.00  0.00     0.013 A 
HETATM   11  C14 UNL     1      28.224   1.947  53.170  1.00  0.00     0.013 A 
HETATM   12  C12 UNL     1      27.277  -0.849  52.689  1.00  0.00     0.009 A 
HETATM   13  P1  UNL     1      28.825  -0.653  53.643  1.00  0.00    -0.083 P 
HETATM   14  C13 UNL     1      29.102   1.150  53.745  1.00  0.00     0.009 A 
HETATM   15  H16 UNL     1      28.670  -1.166  55.009  1.00  0.00     0.066 HD
ENDBRANCH   6   8
ENDBRANCH   5   6
BRANCH   1  16
HETATM   16  N1  UNL     1      22.307   1.285  52.111  1.00  0.00     0.106 N 
HETATM   17  C4  UNL     1      20.910   1.184  52.405  1.00  0.00     0.276 C 
HETATM   18  C3  UNL     1      20.673  -0.220  52.865  1.00  0.00     0.064 C 
HETATM   19  C2  UNL     1      21.973  -0.625  53.474  1.00  0.00     0.150 C 
HETATM   20  C15 UNL     1      22.993   0.353  52.985  1.00  0.00     0.305 C 
BRANCH  19  21
HETATM   21  O1  UNL     1      21.903  -0.565  54.859  1.00  0.00    -0.389 OA
HETATM   22  C1  UNL     1      22.940  -1.332  55.409  1.00  0.00     0.202 C 
ENDBRANCH  19  21
ENDBRANCH   1  16
TORSDOF 4
ENDMDL
MODEL 7
REMARK VINA RESULT:      -6.2      1.897      2.556
REMARK  4 active torsions:
REMARK  status: ('A' for Active; 'I' for Inactive)
REMARK    1  A    between atoms: O1_2  and  C2_3 
REMARK    2  A    between atoms: N1_6  and  C5_7 
REMARK    3  A    between atoms: C8_11  and  N3_12 
REMARK    4  A    between atoms: N3_12  and  C9_13 
ROOT
HETATM    1  C5  UNL     1      24.767   2.554  52.177  1.00  0.00     0.316 A 
HETATM    2  C6  UNL     1      24.049   3.268  53.282  1.00  0.00     0.036 A 
HETATM    3  C7  UNL     1      23.631   4.456  52.828  1.00  0.00     0.117 A 
HETATM    4  N2  UNL     1      24.024   4.607  51.453  1.00  0.00    -0.245 NA
HETATM    5  C8  UNL     1      24.668   3.529  51.083  1.00  0.00     0.141 A 
ENDROOT
BRANCH   5   6
HETATM    6  N3  UNL     1      25.215   3.308  49.784  1.00  0.00    -0.351 N 
HETATM    7  H12 UNL     1      24.637   2.892  48.997  1.00  0.00     0.166 HD
BRANCH   6   8
HETATM    8  C9  UNL     1      26.534   3.612  49.435  1.00  0.00     0.101 C 
HETATM    9  C10 UNL     1      26.865   4.764  48.939  1.00  0.00    -0.021 A 
HETATM   10  C11 UNL     1      25.861   5.792  48.731  1.00  0.00     0.013 A 
HETATM   11  C14 UNL     1      28.240   5.064  48.580  1.00  0.00     0.013 A 
HETATM   12  C12 UNL     1      25.993   7.010  48.247  1.00  0.00     0.009 A 
HETATM   13  P1  UNL     1      27.656   7.573  47.736  1.00  0.00    -0.083 P 
HETATM   14  C13 UNL     1      28.766   6.160  48.072  1.00  0.00     0.009 A 
HETATM   15  H16 UNL     1      27.699   7.850  46.295  1.00  0.00     0.066 HD
ENDBRANCH   6   8
ENDBRANCH   5   6
BRANCH   1  16
HETATM   16  N1  UNL     1      24.124   1.294  51.865  1.00  0.00     0.106 N 
HETATM   17  C4  UNL     1      22.697   1.388  51.834  1.00  0.00     0.276 C 
HETATM   18  C3  UNL     1      22.174   0.056  52.272  1.00  0.00     0.064 C 
HETATM   19  C2  UNL     1      23.238  -0.471  53.175  1.00  0.00     0.150 C 
HETATM   20  C15 UNL     1      24.465   0.339  52.901  1.00  0.00     0.305 C 
BRANCH  19  21
HETATM   21  O1  UNL     1      22.869  -0.316  54.504  1.00  0.00    -0.389 OA
HETATM   22  C1  UNL     1      21.524  -0.687  54.657  1.00  0.00     0.202 C 
ENDBRANCH  19  21
ENDBRANCH   1  16
TORSDOF 4
ENDMDL
MODEL 8
REMARK VINA RESULT:      -6.1      5.308      8.203
REMARK  4 active torsions:
REMARK  status: ('A' for Active; 'I' for Inactive)
REMARK    1  A    between atoms: O1_2  and  C2_3 
REMARK    2  A    between atoms: N1_6  and  C5_7 
REMARK    3  A    between atoms: C8_11  and  N3_12 
REMARK    4  A    between atoms: N3_12  and  C9_13 
ROOT
HETATM    1  C5  UNL     1      32.417   6.559  47.635  1.00  0.00     0.316 A 
HETATM    2  C6  UNL     1      33.215   7.424  48.562  1.00  0.00     0.036 A 
HETATM    3  C7  UNL     1      32.376   8.053  49.394  1.00  0.00     0.117 A 
HETATM    4  N2  UNL     1      31.025   7.668  49.091  1.00  0.00    -0.245 NA
HETATM    5  C8  UNL     1      31.046   6.821  48.094  1.00  0.00     0.141 A 
ENDROOT
BRANCH   5   6
HETATM    6  N3  UNL     1      29.894   6.215  47.510  1.00  0.00    -0.351 N 
HETATM    7  H12 UNL     1      29.544   6.491  46.546  1.00  0.00     0.166 HD
BRANCH   6   8
HETATM    8  C9  UNL     1      29.136   5.223  48.137  1.00  0.00     0.101 C 
HETATM    9  C10 UNL     1      27.892   5.408  48.456  1.00  0.00    -0.021 A 
HETATM   10  C11 UNL     1      27.237   6.671  48.164  1.00  0.00     0.013 A 
HETATM   11  C14 UNL     1      27.117   4.367  49.109  1.00  0.00     0.013 A 
HETATM   12  C12 UNL     1      25.999   7.050  48.404  1.00  0.00     0.009 A 
HETATM   13  P1  UNL     1      24.866   5.872  49.224  1.00  0.00    -0.083 P 
HETATM   14  C13 UNL     1      25.860   4.365  49.504  1.00  0.00     0.009 A 
HETATM   15  H16 UNL     1      24.434   6.380  50.531  1.00  0.00     0.066 HD
ENDBRANCH   6   8
ENDBRANCH   5   6
BRANCH   1  16
HETATM   16  N1  UNL     1      32.794   5.167  47.763  1.00  0.00     0.106 N 
HETATM   17  C4  UNL     1      34.105   4.992  48.311  1.00  0.00     0.276 C 
HETATM   18  C3  UNL     1      34.654   3.737  47.708  1.00  0.00     0.064 C 
HETATM   19  C2  UNL     1      33.979   3.649  46.381  1.00  0.00     0.150 C 
HETATM   20  C15 UNL     1      32.805   4.573  46.440  1.00  0.00     0.305 C 
BRANCH  19  21
HETATM   21  O1  UNL     1      34.838   4.057  45.369  1.00  0.00    -0.389 OA
HETATM   22  C1  UNL     1      34.140   4.882  44.475  1.00  0.00     0.202 C 
ENDBRANCH  19  21
ENDBRANCH   1  16
TORSDOF 4
ENDMDL
MODEL 9
REMARK VINA RESULT:      -6.0      3.625      6.336
REMARK  4 active torsions:
REMARK  status: ('A' for Active; 'I' for Inactive)
REMARK    1  A    between atoms: O1_2  and  C2_3 
REMARK    2  A    between atoms: N1_6  and  C5_7 
REMARK    3  A    between atoms: C8_11  and  N3_12 
REMARK    4  A    between atoms: N3_12  and  C9_13 
ROOT
HETATM    1  C5  UNL     1      22.866   1.917  51.225  1.00  0.00     0.316 A 
HETATM    2  C6  UNL     1      21.735   1.728  50.260  1.00  0.00     0.036 A 
HETATM    3  C7  UNL     1      21.040   0.642  50.619  1.00  0.00     0.117 A 
HETATM    4  N2  UNL     1      21.633   0.061  51.792  1.00  0.00    -0.245 NA
HETATM    5  C8  UNL     1      22.669   0.783  52.137  1.00  0.00     0.141 A 
ENDROOT
BRANCH   5   6
HETATM    6  N3  UNL     1      23.514   0.519  53.255  1.00  0.00    -0.351 N 
HETATM    7  H12 UNL     1      23.356   0.980  54.198  1.00  0.00     0.166 HD
BRANCH   6   8
HETATM    8  C9  UNL     1      24.607  -0.351  53.214  1.00  0.00     0.101 C 
HETATM    9  C10 UNL     1      25.828   0.072  53.337  1.00  0.00    -0.021 A 
HETATM   10  C11 UNL     1      26.101   1.486  53.526  1.00  0.00     0.013 A 
HETATM   11  C14 UNL     1      26.953  -0.846  53.292  1.00  0.00     0.013 A 
HETATM   12  C12 UNL     1      27.254   2.106  53.669  1.00  0.00     0.009 A 
HETATM   13  P1  UNL     1      28.791   1.116  53.639  1.00  0.00    -0.083 P 
HETATM   14  C13 UNL     1      28.245  -0.611  53.397  1.00  0.00     0.009 A 
HETATM   15  H16 UNL     1      29.635   1.489  52.497  1.00  0.00     0.066 HD
ENDBRANCH   6   8
ENDBRANCH   5   6
BRANCH   1  16
HETATM   16  N1  UNL     1      22.774   3.198  51.894  1.00  0.00     0.106 N 
HETATM   17  C4  UNL     1      21.679   3.993  51.429  1.00  0.00     0.276 C 
HETATM   18  C3  UNL     1      22.106   5.422  51.559  1.00  0.00     0.064 C 
HETATM   19  C2  UNL     1      23.590   5.370  51.413  1.00  0.00     0.150 C 
HETATM   20  C15 UNL     1      23.987   3.944  51.623  1.00  0.00     0.305 C 
BRANCH  19  21
HETATM   21  O1  UNL     1      23.968   5.772  50.139  1.00  0.00    -0.389 OA
HETATM   22  C1  UNL     1      25.367   5.855  50.076  1.00  0.00     0.202 C 
ENDBRANCH  19  21
ENDBRANCH   1  16
TORSDOF 4
ENDMDL
