MODEL 1
REMARK VINA RESULT:      -7.3      0.000      0.000
REMARK  6 active torsions:
REMARK  status: ('A' for Active; 'I' for Inactive)
REMARK    1  A    between atoms: N1_1  and  C1_2 
REMARK    2  A    between atoms: C1_2  and  N2_4 
REMARK    3  A    between atoms: N2_4  and  C2_5 
REMARK    4  A    between atoms: C7_11  and  C8_12 
REMARK    5  A    between atoms: C9_13  and  N3_14 
REMARK    6  A    between atoms: N3_14  and  C10_15 
ROOT
HETATM    1  C2  UNL     1      25.535   0.690  52.514  1.00  0.00     0.047 A 
HETATM    2  C3  UNL     1      25.201  -0.222  53.481  1.00  0.00     0.072 A 
HETATM    3  C4  UNL     1      23.926  -0.410  53.956  1.00  0.00     0.118 A 
HETATM    4  F1  UNL     1      23.723  -1.338  54.909  1.00  0.00    -0.206 F 
HETATM    5  C5  UNL     1      22.941   0.399  53.391  1.00  0.00     0.043 A 
HETATM    6  C6  UNL     1      23.254   1.332  52.409  1.00  0.00     0.017 A 
HETATM    7  C7  UNL     1      24.572   1.491  51.953  1.00  0.00    -0.008 A 
ENDROOT
BRANCH   7   8
HETATM    8  C8  UNL     1      24.579   2.534  50.947  1.00  0.00     0.030 C 
HETATM    9  C9  UNL     1      24.885   3.809  50.855  1.00  0.00     0.089 C 
BRANCH   9  10
HETATM   10  N3  UNL     1      24.708   4.440  49.568  1.00  0.00    -0.366 N 
HETATM   11  H9  UNL     1      23.804   4.369  49.089  1.00  0.00     0.165 HD
BRANCH  10  12
HETATM   12  C10 UNL     1      25.850   5.119  49.068  1.00  0.00     0.031 A 
HETATM   13  C11 UNL     1      27.071   4.475  48.997  1.00  0.00     0.029 A 
HETATM   14  C12 UNL     1      28.236   5.055  48.531  1.00  0.00     0.002 A 
HETATM   15  C13 UNL     1      28.188   6.385  48.101  1.00  0.00     0.000 A 
HETATM   16  C14 UNL     1      26.988   7.063  48.154  1.00  0.00     0.002 A 
HETATM   17  C15 UNL     1      25.865   6.431  48.628  1.00  0.00     0.029 A 
ENDBRANCH  10  12
ENDBRANCH   9  10
ENDBRANCH   7   8
BRANCH   1  18
HETATM   18  N2  UNL     1      26.815   0.957  51.967  1.00  0.00    -0.333 N 
HETATM   19  H3  UNL     1      27.367   0.900  51.097  1.00  0.00     0.168 HD
BRANCH  18  20
HETATM   20  C1  UNL     1      27.547   1.485  53.060  1.00  0.00     0.170 C 
HETATM   21  S1  UNL     1      28.847   1.042  53.941  1.00  0.00    -0.041 SA
BRANCH  20  22
HETATM   22  N1  UNL     1      27.415   2.663  53.836  1.00  0.00    -0.376 N 
HETATM   23  H1  UNL     1      26.970   2.722  54.796  1.00  0.00     0.158 HD
HETATM   24  H2  UNL     1      27.595   3.666  53.880  1.00  0.00     0.158 HD
ENDBRANCH  20  22
ENDBRANCH  18  20
ENDBRANCH   1  18
TORSDOF 6
ENDMDL
MODEL 2
REMARK VINA RESULT:      -7.2      0.174      1.068
REMARK  6 active torsions:
REMARK  status: ('A' for Active; 'I' for Inactive)
REMARK    1  A    between atoms: N1_1  and  C1_2 
REMARK    2  A    between atoms: C1_2  and  N2_4 
REMARK    3  A    between atoms: N2_4  and  C2_5 
REMARK    4  A    between atoms: C7_11  and  C8_12 
REMARK    5  A    between atoms: C9_13  and  N3_14 
REMARK    6  A    between atoms: N3_14  and  C10_15 
ROOT
HETATM    1  C2  UNL     1      25.597   0.570  52.546  1.00  0.00     0.047 A 
HETATM    2  C3  UNL     1      25.255  -0.308  53.539  1.00  0.00     0.072 A 
HETATM    3  C4  UNL     1      23.979  -0.471  54.020  1.00  0.00     0.118 A 
HETATM    4  F1  UNL     1      23.768  -1.367  55.001  1.00  0.00    -0.206 F 
HETATM    5  C5  UNL     1      23.001   0.329  53.431  1.00  0.00     0.043 A 
HETATM    6  C6  UNL     1      23.322   1.230  52.421  1.00  0.00     0.017 A 
HETATM    7  C7  UNL     1      24.641   1.363  51.961  1.00  0.00    -0.008 A 
ENDROOT
BRANCH   7   8
HETATM    8  C8  UNL     1      24.657   2.374  50.923  1.00  0.00     0.030 C 
HETATM    9  C9  UNL     1      24.820   3.675  50.820  1.00  0.00     0.089 C 
BRANCH   9  10
HETATM   10  N3  UNL     1      24.740   4.248  49.497  1.00  0.00    -0.366 N 
HETATM   11  H9  UNL     1      23.887   4.125  48.941  1.00  0.00     0.165 HD
BRANCH  10  12
HETATM   12  C10 UNL     1      25.900   4.950  49.074  1.00  0.00     0.031 A 
HETATM   13  C11 UNL     1      25.819   6.282  48.716  1.00  0.00     0.029 A 
HETATM   14  C12 UNL     1      26.890   7.045  48.288  1.00  0.00     0.002 A 
HETATM   15  C13 UNL     1      28.146   6.436  48.207  1.00  0.00     0.000 A 
HETATM   16  C14 UNL     1      28.270   5.107  48.558  1.00  0.00     0.002 A 
HETATM   17  C15 UNL     1      27.168   4.404  48.975  1.00  0.00     0.029 A 
ENDBRANCH  10  12
ENDBRANCH   9  10
ENDBRANCH   7   8
BRANCH   1  18
HETATM   18  N2  UNL     1      26.879   0.809  51.990  1.00  0.00    -0.333 N 
HETATM   19  H3  UNL     1      27.419   0.761  51.112  1.00  0.00     0.168 HD
BRANCH  18  20
HETATM   20  C1  UNL     1      27.643   1.275  53.089  1.00  0.00     0.170 C 
HETATM   21  S1  UNL     1      28.858   0.705  54.017  1.00  0.00    -0.041 SA
BRANCH  20  22
HETATM   22  N1  UNL     1      27.636   2.482  53.833  1.00  0.00    -0.376 N 
HETATM   23  H1  UNL     1      28.081   3.395  53.529  1.00  0.00     0.158 HD
HETATM   24  H2  UNL     1      27.332   2.939  54.692  1.00  0.00     0.158 HD
ENDBRANCH  20  22
ENDBRANCH  18  20
ENDBRANCH   1  18
TORSDOF 6
ENDMDL
MODEL 3
REMARK VINA RESULT:      -7.0      3.881      5.340
REMARK  6 active torsions:
REMARK  status: ('A' for Active; 'I' for Inactive)
REMARK    1  A    between atoms: N1_1  and  C1_2 
REMARK    2  A    between atoms: C1_2  and  N2_4 
REMARK    3  A    between atoms: N2_4  and  C2_5 
REMARK    4  A    between atoms: C7_11  and  C8_12 
REMARK    5  A    between atoms: C9_13  and  N3_14 
REMARK    6  A    between atoms: N3_14  and  C10_15 
ROOT
HETATM    1  C2  UNL     1      22.897   0.581  52.795  1.00  0.00     0.047 A 
HETATM    2  C3  UNL     1      21.542   0.664  52.979  1.00  0.00     0.072 A 
HETATM    3  C4  UNL     1      20.843  -0.074  53.903  1.00  0.00     0.118 A 
HETATM    4  F1  UNL     1      19.511   0.096  53.990  1.00  0.00    -0.206 F 
HETATM    5  C5  UNL     1      21.600  -0.949  54.681  1.00  0.00     0.043 A 
HETATM    6  C6  UNL     1      22.976  -1.053  54.513  1.00  0.00     0.017 A 
HETATM    7  C7  UNL     1      23.650  -0.280  53.555  1.00  0.00    -0.008 A 
ENDROOT
BRANCH   7   8
HETATM    8  C8  UNL     1      25.058  -0.615  53.613  1.00  0.00     0.030 C 
HETATM    9  C9  UNL     1      25.911  -1.393  52.984  1.00  0.00     0.089 C 
BRANCH   9  10
HETATM   10  N3  UNL     1      27.281  -1.378  53.441  1.00  0.00    -0.366 N 
HETATM   11  H9  UNL     1      27.757  -2.263  53.644  1.00  0.00     0.165 HD
BRANCH  10  12
HETATM   12  C10 UNL     1      27.857  -0.087  53.574  1.00  0.00     0.031 A 
HETATM   13  C11 UNL     1      27.472   0.940  52.734  1.00  0.00     0.029 A 
HETATM   14  C12 UNL     1      27.979   2.225  52.784  1.00  0.00     0.002 A 
HETATM   15  C13 UNL     1      28.950   2.516  53.748  1.00  0.00     0.000 A 
HETATM   16  C14 UNL     1      29.360   1.519  54.608  1.00  0.00     0.002 A 
HETATM   17  C15 UNL     1      28.817   0.262  54.507  1.00  0.00     0.029 A 
ENDBRANCH  10  12
ENDBRANCH   9  10
ENDBRANCH   7   8
BRANCH   1  18
HETATM   18  N2  UNL     1      23.700   1.294  51.870  1.00  0.00    -0.333 N 
HETATM   19  H3  UNL     1      24.223   1.197  50.986  1.00  0.00     0.168 HD
BRANCH  18  20
HETATM   20  C1  UNL     1      23.773   2.599  52.420  1.00  0.00     0.170 C 
HETATM   21  S1  UNL     1      23.013   4.025  52.197  1.00  0.00    -0.041 SA
BRANCH  20  22
HETATM   22  N1  UNL     1      24.579   3.181  53.431  1.00  0.00    -0.376 N 
HETATM   23  H1  UNL     1      25.106   2.649  54.181  1.00  0.00     0.158 HD
HETATM   24  H2  UNL     1      24.938   4.051  53.823  1.00  0.00     0.158 HD
ENDBRANCH  20  22
ENDBRANCH  18  20
ENDBRANCH   1  18
TORSDOF 6
ENDMDL
MODEL 4
REMARK VINA RESULT:      -7.0      3.740      6.122
REMARK  6 active torsions:
REMARK  status: ('A' for Active; 'I' for Inactive)
REMARK    1  A    between atoms: N1_1  and  C1_2 
REMARK    2  A    between atoms: C1_2  and  N2_4 
REMARK    3  A    between atoms: N2_4  and  C2_5 
REMARK    4  A    between atoms: C7_11  and  C8_12 
REMARK    5  A    between atoms: C9_13  and  N3_14 
REMARK    6  A    between atoms: N3_14  and  C10_15 
ROOT
HETATM    1  C2  UNL     1      23.052   4.288  52.372  1.00  0.00     0.047 A 
HETATM    2  C3  UNL     1      21.756   4.206  51.937  1.00  0.00     0.072 A 
HETATM    3  C4  UNL     1      21.132   3.034  51.585  1.00  0.00     0.118 A 
HETATM    4  F1  UNL     1      19.852   3.083  51.172  1.00  0.00    -0.206 F 
HETATM    5  C5  UNL     1      21.905   1.879  51.693  1.00  0.00     0.043 A 
HETATM    6  C6  UNL     1      23.223   1.934  52.131  1.00  0.00     0.017 A 
HETATM    7  C7  UNL     1      23.821   3.155  52.479  1.00  0.00    -0.008 A 
ENDROOT
BRANCH   7   8
HETATM    8  C8  UNL     1      25.187   2.890  52.883  1.00  0.00     0.030 C 
HETATM    9  C9  UNL     1      25.824   2.210  53.810  1.00  0.00     0.089 C 
BRANCH   9  10
HETATM   10  N3  UNL     1      27.266   2.266  53.797  1.00  0.00    -0.366 N 
HETATM   11  H9  UNL     1      27.740   3.168  53.914  1.00  0.00     0.165 HD
BRANCH  10  12
HETATM   12  C10 UNL     1      27.916   1.017  53.611  1.00  0.00     0.031 A 
HETATM   13  C11 UNL     1      27.191  -0.098  53.235  1.00  0.00     0.029 A 
HETATM   14  C12 UNL     1      27.733  -1.354  53.035  1.00  0.00     0.002 A 
HETATM   15  C13 UNL     1      29.108  -1.519  53.226  1.00  0.00     0.000 A 
HETATM   16  C14 UNL     1      29.868  -0.431  53.600  1.00  0.00     0.002 A 
HETATM   17  C15 UNL     1      29.270   0.791  53.783  1.00  0.00     0.029 A 
ENDBRANCH  10  12
ENDBRANCH   9  10
ENDBRANCH   7   8
BRANCH   1  18
HETATM   18  N2  UNL     1      23.778   5.445  52.751  1.00  0.00    -0.333 N 
HETATM   19  H3  UNL     1      24.223   5.911  53.557  1.00  0.00     0.168 HD
BRANCH  18  20
HETATM   20  C1  UNL     1      23.896   6.181  51.545  1.00  0.00     0.170 C 
HETATM   21  S1  UNL     1      24.543   5.941  50.067  1.00  0.00    -0.041 SA
BRANCH  20  22
HETATM   22  N1  UNL     1      23.468   7.475  51.154  1.00  0.00    -0.376 N 
HETATM   23  H1  UNL     1      22.521   7.900  51.367  1.00  0.00     0.158 HD
HETATM   24  H2  UNL     1      23.722   8.332  50.665  1.00  0.00     0.158 HD
ENDBRANCH  20  22
ENDBRANCH  18  20
ENDBRANCH   1  18
TORSDOF 6
ENDMDL
MODEL 5
REMARK VINA RESULT:      -6.8      3.825      7.091
REMARK  6 active torsions:
REMARK  status: ('A' for Active; 'I' for Inactive)
REMARK    1  A    between atoms: N1_1  and  C1_2 
REMARK    2  A    between atoms: C1_2  and  N2_4 
REMARK    3  A    between atoms: N2_4  and  C2_5 
REMARK    4  A    between atoms: C7_11  and  C8_12 
REMARK    5  A    between atoms: C9_13  and  N3_14 
REMARK    6  A    between atoms: N3_14  and  C10_15 
ROOT
HETATM    1  C2  UNL     1      24.980   4.955  49.515  1.00  0.00     0.047 A 
HETATM    2  C3  UNL     1      25.331   6.052  48.774  1.00  0.00     0.072 A 
HETATM    3  C4  UNL     1      26.586   6.266  48.258  1.00  0.00     0.118 A 
HETATM    4  F1  UNL     1      26.809   7.385  47.546  1.00  0.00    -0.206 F 
HETATM    5  C5  UNL     1      27.531   5.277  48.531  1.00  0.00     0.043 A 
HETATM    6  C6  UNL     1      27.201   4.154  49.280  1.00  0.00     0.017 A 
HETATM    7  C7  UNL     1      25.904   3.977  49.789  1.00  0.00    -0.008 A 
ENDROOT
BRANCH   7   8
HETATM    8  C8  UNL     1      25.875   2.731  50.526  1.00  0.00     0.030 C 
HETATM    9  C9  UNL     1      25.907   2.326  51.776  1.00  0.00     0.089 C 
BRANCH   9  10
HETATM   10  N3  UNL     1      25.852   0.903  52.013  1.00  0.00    -0.366 N 
HETATM   11  H9  UNL     1      25.002   0.382  51.775  1.00  0.00     0.165 HD
BRANCH  10  12
HETATM   12  C10 UNL     1      27.027   0.341  52.580  1.00  0.00     0.031 A 
HETATM   13  C11 UNL     1      28.022   1.160  53.078  1.00  0.00     0.029 A 
HETATM   14  C12 UNL     1      29.200   0.706  53.643  1.00  0.00     0.002 A 
HETATM   15  C13 UNL     1      29.409  -0.674  53.719  1.00  0.00     0.000 A 
HETATM   16  C14 UNL     1      28.438  -1.527  53.235  1.00  0.00     0.002 A 
HETATM   17  C15 UNL     1      27.289  -1.013  52.685  1.00  0.00     0.029 A 
ENDBRANCH  10  12
ENDBRANCH   9  10
ENDBRANCH   7   8
BRANCH   1  18
HETATM   18  N2  UNL     1      23.720   4.651  50.088  1.00  0.00    -0.333 N 
HETATM   19  H3  UNL     1      22.983   3.930  50.125  1.00  0.00     0.168 HD
BRANCH  18  20
HETATM   20  C1  UNL     1      23.425   5.790  50.879  1.00  0.00     0.170 C 
HETATM   21  S1  UNL     1      22.321   6.991  50.865  1.00  0.00    -0.041 SA
BRANCH  20  22
HETATM   22  N1  UNL     1      24.014   6.339  52.047  1.00  0.00    -0.376 N 
HETATM   23  H1  UNL     1      25.052   6.477  52.205  1.00  0.00     0.158 HD
HETATM   24  H2  UNL     1      23.839   6.730  52.972  1.00  0.00     0.158 HD
ENDBRANCH  20  22
ENDBRANCH  18  20
ENDBRANCH   1  18
TORSDOF 6
ENDMDL
MODEL 6
REMARK VINA RESULT:      -6.7      4.348      5.934
REMARK  6 active torsions:
REMARK  status: ('A' for Active; 'I' for Inactive)
REMARK    1  A    between atoms: N1_1  and  C1_2 
REMARK    2  A    between atoms: C1_2  and  N2_4 
REMARK    3  A    between atoms: N2_4  and  C2_5 
REMARK    4  A    between atoms: C7_11  and  C8_12 
REMARK    5  A    between atoms: C9_13  and  N3_14 
REMARK    6  A    between atoms: N3_14  and  C10_15 
ROOT
HETATM    1  C2  UNL     1      21.414   1.001  52.718  1.00  0.00     0.047 A 
HETATM    2  C3  UNL     1      20.297   0.258  52.994  1.00  0.00     0.072 A 
HETATM    3  C4  UNL     1      20.317  -0.954  53.640  1.00  0.00     0.118 A 
HETATM    4  F1  UNL     1      19.151  -1.591  53.852  1.00  0.00    -0.206 F 
HETATM    5  C5  UNL     1      21.575  -1.419  54.021  1.00  0.00     0.043 A 
HETATM    6  C6  UNL     1      22.725  -0.684  53.753  1.00  0.00     0.017 A 
HETATM    7  C7  UNL     1      22.657   0.551  53.089  1.00  0.00    -0.008 A 
ENDROOT
BRANCH   7   8
HETATM    8  C8  UNL     1      24.005   1.063  52.950  1.00  0.00     0.030 C 
HETATM    9  C9  UNL     1      24.982   1.035  52.071  1.00  0.00     0.089 C 
BRANCH   9  10
HETATM   10  N3  UNL     1      26.200   1.732  52.413  1.00  0.00    -0.366 N 
HETATM   11  H9  UNL     1      26.234   2.755  52.349  1.00  0.00     0.165 HD
BRANCH  10  12
HETATM   12  C10 UNL     1      27.277   0.899  52.816  1.00  0.00     0.031 A 
HETATM   13  C11 UNL     1      27.193  -0.472  52.667  1.00  0.00     0.029 A 
HETATM   14  C12 UNL     1      28.186  -1.362  53.034  1.00  0.00     0.002 A 
HETATM   15  C13 UNL     1      29.359  -0.850  53.597  1.00  0.00     0.000 A 
HETATM   16  C14 UNL     1      29.483   0.514  53.762  1.00  0.00     0.002 A 
HETATM   17  C15 UNL     1      28.460   1.345  53.377  1.00  0.00     0.029 A 
ENDBRANCH  10  12
ENDBRANCH   9  10
ENDBRANCH   7   8
BRANCH   1  18
HETATM   18  N2  UNL     1      21.493   2.253  52.058  1.00  0.00    -0.333 N 
HETATM   19  H3  UNL     1      21.756   3.241  52.194  1.00  0.00     0.168 HD
BRANCH  18  20
HETATM   20  C1  UNL     1      21.025   1.975  50.749  1.00  0.00     0.170 C 
HETATM   21  S1  UNL     1      21.577   1.181  49.435  1.00  0.00    -0.041 SA
BRANCH  20  22
HETATM   22  N1  UNL     1      19.832   2.302  50.056  1.00  0.00    -0.376 N 
HETATM   23  H1  UNL     1      18.851   2.046  50.365  1.00  0.00     0.158 HD
HETATM   24  H2  UNL     1      19.434   2.762  49.238  1.00  0.00     0.158 HD
ENDBRANCH  20  22
ENDBRANCH  18  20
ENDBRANCH   1  18
TORSDOF 6
ENDMDL
MODEL 7
REMARK VINA RESULT:      -6.7      3.861      7.262
REMARK  6 active torsions:
REMARK  status: ('A' for Active; 'I' for Inactive)
REMARK    1  A    between atoms: N1_1  and  C1_2 
REMARK    2  A    between atoms: C1_2  and  N2_4 
REMARK    3  A    between atoms: N2_4  and  C2_5 
REMARK    4  A    between atoms: C7_11  and  C8_12 
REMARK    5  A    between atoms: C9_13  and  N3_14 
REMARK    6  A    between atoms: N3_14  and  C10_15 
ROOT
HETATM    1  C2  UNL     1      24.600   0.978  52.255  1.00  0.00     0.047 A 
HETATM    2  C3  UNL     1      25.964   0.939  52.134  1.00  0.00     0.072 A 
HETATM    3  C4  UNL     1      26.788   0.183  52.933  1.00  0.00     0.118 A 
HETATM    4  F1  UNL     1      28.115   0.229  52.716  1.00  0.00    -0.206 F 
HETATM    5  C5  UNL     1      26.153  -0.576  53.914  1.00  0.00     0.043 A 
HETATM    6  C6  UNL     1      24.771  -0.554  54.058  1.00  0.00     0.017 A 
HETATM    7  C7  UNL     1      23.967   0.234  53.220  1.00  0.00    -0.008 A 
ENDROOT
BRANCH   7   8
HETATM    8  C8  UNL     1      22.586   0.053  53.618  1.00  0.00     0.030 C 
HETATM    9  C9  UNL     1      21.701  -0.916  53.688  1.00  0.00     0.089 C 
BRANCH   9  10
HETATM   10  N3  UNL     1      20.385  -0.577  54.175  1.00  0.00    -0.366 N 
HETATM   11  H9  UNL     1      20.240  -0.420  55.178  1.00  0.00     0.165 HD
BRANCH  10  12
HETATM   12  C10 UNL     1      19.377  -0.495  53.178  1.00  0.00     0.031 A 
HETATM   13  C11 UNL     1      18.188  -1.185  53.328  1.00  0.00     0.029 A 
HETATM   14  C12 UNL     1      17.154  -1.170  52.411  1.00  0.00     0.002 A 
HETATM   15  C13 UNL     1      17.310  -0.410  51.248  1.00  0.00     0.000 A 
HETATM   16  C14 UNL     1      18.481   0.295  51.061  1.00  0.00     0.002 A 
HETATM   17  C15 UNL     1      19.472   0.240  52.010  1.00  0.00     0.029 A 
ENDBRANCH  10  12
ENDBRANCH   9  10
ENDBRANCH   7   8
BRANCH   1  18
HETATM   18  N2  UNL     1      23.673   1.724  51.485  1.00  0.00    -0.333 N 
HETATM   19  H3  UNL     1      22.855   1.632  50.864  1.00  0.00     0.168 HD
BRANCH  18  20
HETATM   20  C1  UNL     1      24.076   3.069  51.681  1.00  0.00     0.170 C 
HETATM   21  S1  UNL     1      24.591   4.302  50.745  1.00  0.00    -0.041 SA
BRANCH  20  22
HETATM   22  N1  UNL     1      24.186   3.890  52.832  1.00  0.00    -0.376 N 
HETATM   23  H1  UNL     1      23.373   4.265  53.400  1.00  0.00     0.158 HD
HETATM   24  H2  UNL     1      24.825   4.365  53.468  1.00  0.00     0.158 HD
ENDBRANCH  20  22
ENDBRANCH  18  20
ENDBRANCH   1  18
TORSDOF 6
ENDMDL
MODEL 8
REMARK VINA RESULT:      -6.6      3.517      6.761
REMARK  6 active torsions:
REMARK  status: ('A' for Active; 'I' for Inactive)
REMARK    1  A    between atoms: N1_1  and  C1_2 
REMARK    2  A    between atoms: C1_2  and  N2_4 
REMARK    3  A    between atoms: N2_4  and  C2_5 
REMARK    4  A    between atoms: C7_11  and  C8_12 
REMARK    5  A    between atoms: C9_13  and  N3_14 
REMARK    6  A    between atoms: N3_14  and  C10_15 
ROOT
HETATM    1  C2  UNL     1      24.608   4.176  51.128  1.00  0.00     0.047 A 
HETATM    2  C3  UNL     1      24.886   5.081  50.139  1.00  0.00     0.072 A 
HETATM    3  C4  UNL     1      25.928   4.960  49.253  1.00  0.00     0.118 A 
HETATM    4  F1  UNL     1      26.099   5.918  48.323  1.00  0.00    -0.206 F 
HETATM    5  C5  UNL     1      26.729   3.830  49.407  1.00  0.00     0.043 A 
HETATM    6  C6  UNL     1      26.469   2.895  50.403  1.00  0.00     0.017 A 
HETATM    7  C7  UNL     1      25.392   3.060  51.288  1.00  0.00    -0.008 A 
ENDROOT
BRANCH   7   8
HETATM    8  C8  UNL     1      25.388   1.940  52.207  1.00  0.00     0.030 C 
HETATM    9  C9  UNL     1      24.817   0.762  52.319  1.00  0.00     0.089 C 
BRANCH   9  10
HETATM   10  N3  UNL     1      25.150  -0.027  53.481  1.00  0.00    -0.366 N 
HETATM   11  H9  UNL     1      24.400  -0.383  54.085  1.00  0.00     0.165 HD
BRANCH  10  12
HETATM   12  C10 UNL     1      26.539  -0.238  53.688  1.00  0.00     0.031 A 
HETATM   13  C11 UNL     1      27.230  -1.150  52.914  1.00  0.00     0.029 A 
HETATM   14  C12 UNL     1      28.578  -1.426  53.045  1.00  0.00     0.002 A 
HETATM   15  C13 UNL     1      29.302  -0.741  54.026  1.00  0.00     0.000 A 
HETATM   16  C14 UNL     1      28.650   0.179  54.819  1.00  0.00     0.002 A 
HETATM   17  C15 UNL     1      27.308   0.408  54.639  1.00  0.00     0.029 A 
ENDBRANCH  10  12
ENDBRANCH   9  10
ENDBRANCH   7   8
BRANCH   1  18
HETATM   18  N2  UNL     1      23.564   4.217  52.086  1.00  0.00    -0.333 N 
HETATM   19  H3  UNL     1      23.375   4.308  53.096  1.00  0.00     0.168 HD
BRANCH  18  20
HETATM   20  C1  UNL     1      22.387   4.072  51.309  1.00  0.00     0.170 C 
HETATM   21  S1  UNL     1      21.686   2.894  50.425  1.00  0.00    -0.041 SA
BRANCH  20  22
HETATM   22  N1  UNL     1      21.317   4.949  50.997  1.00  0.00    -0.376 N 
HETATM   23  H1  UNL     1      20.458   5.110  51.596  1.00  0.00     0.158 HD
HETATM   24  H2  UNL     1      20.947   5.616  50.321  1.00  0.00     0.158 HD
ENDBRANCH  20  22
ENDBRANCH  18  20
ENDBRANCH   1  18
TORSDOF 6
ENDMDL
MODEL 9
REMARK VINA RESULT:      -6.6      3.758      7.456
REMARK  6 active torsions:
REMARK  status: ('A' for Active; 'I' for Inactive)
REMARK    1  A    between atoms: N1_1  and  C1_2 
REMARK    2  A    between atoms: C1_2  and  N2_4 
REMARK    3  A    between atoms: N2_4  and  C2_5 
REMARK    4  A    between atoms: C7_11  and  C8_12 
REMARK    5  A    between atoms: C9_13  and  N3_14 
REMARK    6  A    between atoms: N3_14  and  C10_15 
ROOT
HETATM    1  C2  UNL     1      24.817   4.979  49.536  1.00  0.00     0.047 A 
HETATM    2  C3  UNL     1      25.811   5.729  48.966  1.00  0.00     0.072 A 
HETATM    3  C4  UNL     1      27.078   5.263  48.707  1.00  0.00     0.118 A 
HETATM    4  F1  UNL     1      27.969   6.098  48.143  1.00  0.00    -0.206 F 
HETATM    5  C5  UNL     1      27.322   3.938  49.064  1.00  0.00     0.043 A 
HETATM    6  C6  UNL     1      26.330   3.155  49.645  1.00  0.00     0.017 A 
HETATM    7  C7  UNL     1      25.049   3.674  49.892  1.00  0.00    -0.008 A 
ENDROOT
BRANCH   7   8
HETATM    8  C8  UNL     1      24.251   2.632  50.505  1.00  0.00     0.030 C 
HETATM    9  C9  UNL     1      24.093   2.081  51.688  1.00  0.00     0.089 C 
BRANCH   9  10
HETATM   10  N3  UNL     1      23.124   1.016  51.798  1.00  0.00    -0.366 N 
HETATM   11  H9  UNL     1      22.449   0.864  51.041  1.00  0.00     0.165 HD
BRANCH  10  12
HETATM   12  C10 UNL     1      23.199   0.256  52.995  1.00  0.00     0.031 A 
HETATM   13  C11 UNL     1      24.427  -0.092  53.526  1.00  0.00     0.029 A 
HETATM   14  C12 UNL     1      24.599  -0.833  54.680  1.00  0.00     0.002 A 
HETATM   15  C13 UNL     1      23.460  -1.266  55.366  1.00  0.00     0.000 A 
HETATM   16  C14 UNL     1      22.215  -0.938  54.870  1.00  0.00     0.002 A 
HETATM   17  C15 UNL     1      22.111  -0.199  53.718  1.00  0.00     0.029 A 
ENDBRANCH  10  12
ENDBRANCH   9  10
ENDBRANCH   7   8
BRANCH   1  18
HETATM   18  N2  UNL     1      23.490   5.372  49.842  1.00  0.00    -0.333 N 
HETATM   19  H3  UNL     1      22.501   5.115  49.699  1.00  0.00     0.168 HD
BRANCH  18  20
HETATM   20  C1  UNL     1      23.655   6.544  50.621  1.00  0.00     0.170 C 
HETATM   21  S1  UNL     1      23.355   8.138  50.445  1.00  0.00    -0.041 SA
BRANCH  20  22
HETATM   22  N1  UNL     1      24.170   6.779  51.921  1.00  0.00    -0.376 N 
HETATM   23  H1  UNL     1      24.915   7.491  52.169  1.00  0.00     0.158 HD
HETATM   24  H2  UNL     1      24.127   6.511  52.904  1.00  0.00     0.158 HD
ENDBRANCH  20  22
ENDBRANCH  18  20
ENDBRANCH   1  18
TORSDOF 6
ENDMDL
