MODEL 1
REMARK VINA RESULT:      -7.7      0.000      0.000
REMARK  6 active torsions:
REMARK  status: ('A' for Active; 'I' for Inactive)
REMARK    1  A    between atoms: C5_7  and  N3_8 
REMARK    2  A    between atoms: N3_8  and  C6_9 
REMARK    3  A    between atoms: C6_9  and  C7_10 
REMARK    4  A    between atoms: C15_19  and  N4_20 
REMARK    5  A    between atoms: N4_20  and  C16_21 
REMARK    6  A    between atoms: C17_22  and  O1_23 
ROOT
HETATM    1  C1  UNL     1      27.108  -2.305  52.490  1.00  0.00     0.040 C 
HETATM    2  C2  UNL     1      26.377  -1.216  52.722  1.00  0.00     0.025 C 
HETATM    3  N1  UNL     1      25.073  -0.901  53.127  1.00  0.00    -0.346 N 
HETATM    4  C3  UNL     1      24.758   0.459  52.995  1.00  0.00     0.109 C 
HETATM    5  N2  UNL     1      23.724   1.215  53.051  1.00  0.00    -0.270 NA
HETATM    6  C4  UNL     1      23.917   2.649  52.830  1.00  0.00     0.207 C 
HETATM    7  C5  UNL     1      24.752   2.739  51.581  1.00  0.00     0.022 C 
HETATM    8  C13 UNL     1      25.835   1.983  51.498  1.00  0.00     0.014 C 
HETATM    9  C14 UNL     1      26.065   1.123  52.699  1.00  0.00     0.108 C 
HETATM   10  C15 UNL     1      27.097   0.081  52.520  1.00  0.00     0.145 C 
HETATM   11  H3  UNL     1      24.462  -1.666  53.490  1.00  0.00     0.167 HD
ENDROOT
BRANCH   7  12
HETATM   12  N3  UNL     1      24.226   3.658  50.662  1.00  0.00    -0.388 N 
HETATM   13  H6  UNL     1      23.348   3.870  51.237  1.00  0.00     0.159 HD
BRANCH  12  14
HETATM   14  C6  UNL     1      24.196   4.448  49.452  1.00  0.00     0.161 C 
BRANCH  14  15
HETATM   15  C7  UNL     1      25.523   4.969  49.073  1.00  0.00    -0.002 A 
HETATM   16  C8  UNL     1      26.721   4.301  49.020  1.00  0.00     0.012 A 
HETATM   17  C9  UNL     1      27.920   4.881  48.660  1.00  0.00     0.001 A 
HETATM   18  C10 UNL     1      27.924   6.223  48.333  1.00  0.00     0.003 A 
HETATM   19  C11 UNL     1      26.722   6.932  48.378  1.00  0.00     0.043 A 
HETATM   20  C12 UNL     1      25.562   6.317  48.736  1.00  0.00     0.124 A 
HETATM   21  F1  UNL     1      24.462   7.120  48.735  1.00  0.00    -0.205 F 
ENDBRANCH  14  15
ENDBRANCH  12  14
ENDBRANCH   7  12
BRANCH  10  22
HETATM   22  N4  UNL     1      28.011   0.171  53.672  1.00  0.00    -0.386 N 
HETATM   23  H16 UNL     1      27.730  -0.109  54.646  1.00  0.00     0.159 HD
BRANCH  22  24
HETATM   24  C16 UNL     1      29.351   0.590  53.862  1.00  0.00     0.107 C 
HETATM   25  C17 UNL     1      29.388   1.907  54.134  1.00  0.00     0.147 C 
BRANCH  25  26
HETATM   26  O1  UNL     1      28.377   2.850  54.254  1.00  0.00    -0.371 OA
HETATM   27  H19 UNL     1      27.777   3.115  53.509  1.00  0.00     0.216 HD
ENDBRANCH  25  26
ENDBRANCH  22  24
ENDBRANCH  10  22
TORSDOF 6
ENDMDL
MODEL 2
REMARK VINA RESULT:      -7.4      5.299      7.780
REMARK  6 active torsions:
REMARK  status: ('A' for Active; 'I' for Inactive)
REMARK    1  A    between atoms: C5_7  and  N3_8 
REMARK    2  A    between atoms: N3_8  and  C6_9 
REMARK    3  A    between atoms: C6_9  and  C7_10 
REMARK    4  A    between atoms: C15_19  and  N4_20 
REMARK    5  A    between atoms: N4_20  and  C16_21 
REMARK    6  A    between atoms: C17_22  and  O1_23 
ROOT
HETATM    1  C1  UNL     1      33.591   2.279  47.807  1.00  0.00     0.040 C 
HETATM    2  C2  UNL     1      33.075   3.505  47.886  1.00  0.00     0.025 C 
HETATM    3  N1  UNL     1      33.277   4.676  48.629  1.00  0.00    -0.346 N 
HETATM    4  C3  UNL     1      32.271   5.636  48.446  1.00  0.00     0.109 C 
HETATM    5  N2  UNL     1      31.891   6.741  48.973  1.00  0.00    -0.270 NA
HETATM    6  C4  UNL     1      30.720   7.403  48.397  1.00  0.00     0.207 C 
HETATM    7  C5  UNL     1      29.682   6.319  48.278  1.00  0.00     0.022 C 
HETATM    8  C13 UNL     1      30.038   5.171  47.724  1.00  0.00     0.014 C 
HETATM    9  C14 UNL     1      31.468   5.127  47.291  1.00  0.00     0.108 C 
HETATM   10  C15 UNL     1      31.960   3.782  46.927  1.00  0.00     0.145 C 
HETATM   11  H3  UNL     1      34.127   4.748  49.231  1.00  0.00     0.167 HD
ENDROOT
BRANCH   7  12
HETATM   12  N3  UNL     1      28.442   6.720  48.795  1.00  0.00    -0.388 N 
HETATM   13  H6  UNL     1      28.849   7.150  49.686  1.00  0.00     0.159 HD
BRANCH  12  14
HETATM   14  C6  UNL     1      27.006   6.884  48.809  1.00  0.00     0.161 C 
BRANCH  14  15
HETATM   15  C7  UNL     1      26.287   5.622  49.071  1.00  0.00    -0.002 A 
HETATM   16  C8  UNL     1      26.807   4.378  49.329  1.00  0.00     0.012 A 
HETATM   17  C9  UNL     1      26.047   3.248  49.554  1.00  0.00     0.001 A 
HETATM   18  C10 UNL     1      24.671   3.369  49.515  1.00  0.00     0.003 A 
HETATM   19  C11 UNL     1      24.111   4.619  49.253  1.00  0.00     0.043 A 
HETATM   20  C12 UNL     1      24.900   5.707  49.040  1.00  0.00     0.124 A 
HETATM   21  F1  UNL     1      24.227   6.867  48.801  1.00  0.00    -0.205 F 
ENDBRANCH  14  15
ENDBRANCH  12  14
ENDBRANCH   7  12
BRANCH  10  22
HETATM   22  N4  UNL     1      32.628   3.902  45.620  1.00  0.00    -0.386 N 
HETATM   23  H16 UNL     1      32.970   3.070  45.075  1.00  0.00     0.159 HD
BRANCH  22  24
HETATM   24  C16 UNL     1      32.993   4.978  44.773  1.00  0.00     0.107 C 
HETATM   25  C17 UNL     1      34.333   5.043  44.662  1.00  0.00     0.147 C 
BRANCH  25  26
HETATM   26  O1  UNL     1      35.340   4.263  45.211  1.00  0.00    -0.371 OA
HETATM   27  H19 UNL     1      35.457   3.296  45.022  1.00  0.00     0.216 HD
ENDBRANCH  25  26
ENDBRANCH  22  24
ENDBRANCH  10  22
TORSDOF 6
ENDMDL
MODEL 3
REMARK VINA RESULT:      -7.2      7.623     10.041
REMARK  6 active torsions:
REMARK  status: ('A' for Active; 'I' for Inactive)
REMARK    1  A    between atoms: C5_7  and  N3_8 
REMARK    2  A    between atoms: N3_8  and  C6_9 
REMARK    3  A    between atoms: C6_9  and  C7_10 
REMARK    4  A    between atoms: C15_19  and  N4_20 
REMARK    5  A    between atoms: N4_20  and  C16_21 
REMARK    6  A    between atoms: C17_22  and  O1_23 
ROOT
HETATM    1  C1  UNL     1      29.401  12.523  48.932  1.00  0.00     0.040 C 
HETATM    2  C2  UNL     1      29.803  11.257  49.031  1.00  0.00     0.025 C 
HETATM    3  N1  UNL     1      30.646  10.489  49.846  1.00  0.00    -0.346 N 
HETATM    4  C3  UNL     1      30.879   9.197  49.352  1.00  0.00     0.109 C 
HETATM    5  N2  UNL     1      31.653   8.204  49.589  1.00  0.00    -0.270 NA
HETATM    6  C4  UNL     1      31.505   7.010  48.755  1.00  0.00     0.207 C 
HETATM    7  C5  UNL     1      31.484   7.527  47.341  1.00  0.00     0.022 C 
HETATM    8  C13 UNL     1      30.683   8.543  47.059  1.00  0.00     0.014 C 
HETATM    9  C14 UNL     1      29.900   9.038  48.233  1.00  0.00     0.108 C 
HETATM   10  C15 UNL     1      29.214  10.329  48.013  1.00  0.00     0.145 C 
HETATM   11  H3  UNL     1      31.016  10.913  50.725  1.00  0.00     0.167 HD
ENDROOT
BRANCH   7  12
HETATM   12  N3  UNL     1      32.355   6.813  46.507  1.00  0.00    -0.388 N 
HETATM   13  H6  UNL     1      33.182   7.479  46.647  1.00  0.00     0.159 HD
BRANCH  12  14
HETATM   14  C6  UNL     1      32.759   5.746  45.619  1.00  0.00     0.161 C 
BRANCH  14  15
HETATM   15  C7  UNL     1      32.947   4.461  46.317  1.00  0.00    -0.002 A 
HETATM   16  C8  UNL     1      32.150   3.343  46.284  1.00  0.00     0.012 A 
HETATM   17  C9  UNL     1      32.408   2.182  46.985  1.00  0.00     0.001 A 
HETATM   18  C10 UNL     1      33.539   2.135  47.777  1.00  0.00     0.003 A 
HETATM   19  C11 UNL     1      34.370   3.255  47.833  1.00  0.00     0.043 A 
HETATM   20  C12 UNL     1      34.078   4.377  47.122  1.00  0.00     0.124 A 
HETATM   21  F1  UNL     1      34.972   5.395  47.263  1.00  0.00    -0.205 F 
ENDBRANCH  14  15
ENDBRANCH  12  14
ENDBRANCH   7  12
BRANCH  10  22
HETATM   22  N4  UNL     1      27.817  10.158  48.445  1.00  0.00    -0.386 N 
HETATM   23  H16 UNL     1      27.142  10.961  48.527  1.00  0.00     0.159 HD
BRANCH  22  24
HETATM   24  C16 UNL     1      27.014   9.059  48.840  1.00  0.00     0.107 C 
HETATM   25  C17 UNL     1      27.062   8.909  50.176  1.00  0.00     0.147 C 
BRANCH  25  26
HETATM   26  O1  UNL     1      27.731   9.625  51.158  1.00  0.00    -0.371 OA
HETATM   27  H19 UNL     1      27.695   9.404  52.125  1.00  0.00     0.216 HD
ENDBRANCH  25  26
ENDBRANCH  22  24
ENDBRANCH  10  22
TORSDOF 6
ENDMDL
MODEL 4
REMARK VINA RESULT:      -7.2      2.998      7.041
REMARK  6 active torsions:
REMARK  status: ('A' for Active; 'I' for Inactive)
REMARK    1  A    between atoms: C5_7  and  N3_8 
REMARK    2  A    between atoms: N3_8  and  C6_9 
REMARK    3  A    between atoms: C6_9  and  C7_10 
REMARK    4  A    between atoms: C15_19  and  N4_20 
REMARK    5  A    between atoms: N4_20  and  C16_21 
REMARK    6  A    between atoms: C17_22  and  O1_23 
ROOT
HETATM    1  C1  UNL     1      22.771   8.442  49.727  1.00  0.00     0.040 C 
HETATM    2  C2  UNL     1      23.317   7.228  49.680  1.00  0.00     0.025 C 
HETATM    3  N1  UNL     1      23.365   6.139  48.798  1.00  0.00    -0.346 N 
HETATM    4  C3  UNL     1      23.926   4.985  49.362  1.00  0.00     0.109 C 
HETATM    5  N2  UNL     1      24.050   3.741  49.081  1.00  0.00    -0.270 NA
HETATM    6  C4  UNL     1      24.756   2.891  50.042  1.00  0.00     0.207 C 
HETATM    7  C5  UNL     1      24.142   3.224  51.375  1.00  0.00     0.022 C 
HETATM    8  C13 UNL     1      24.014   4.500  51.704  1.00  0.00     0.014 C 
HETATM    9  C14 UNL     1      24.513   5.445  50.659  1.00  0.00     0.108 C 
HETATM   10  C15 UNL     1      24.136   6.857  50.877  1.00  0.00     0.145 C 
HETATM   11  H3  UNL     1      23.003   6.264  47.826  1.00  0.00     0.167 HD
ENDROOT
BRANCH   7  12
HETATM   12  N3  UNL     1      23.790   2.073  52.094  1.00  0.00    -0.388 N 
HETATM   13  H6  UNL     1      22.904   1.878  51.525  1.00  0.00     0.159 HD
BRANCH  12  14
HETATM   14  C6  UNL     1      23.934   1.048  53.103  1.00  0.00     0.161 C 
BRANCH  14  15
HETATM   15  C7  UNL     1      25.303   0.503  53.175  1.00  0.00    -0.002 A 
HETATM   16  C8  UNL     1      25.763  -0.718  52.748  1.00  0.00     0.012 A 
HETATM   17  C9  UNL     1      27.070  -1.144  52.868  1.00  0.00     0.001 A 
HETATM   18  C10 UNL     1      27.982  -0.291  53.460  1.00  0.00     0.003 A 
HETATM   19  C11 UNL     1      27.546   0.957  53.907  1.00  0.00     0.043 A 
HETATM   20  C12 UNL     1      26.247   1.336  53.764  1.00  0.00     0.124 A 
HETATM   21  F1  UNL     1      25.956   2.579  54.239  1.00  0.00    -0.205 F 
ENDBRANCH  14  15
ENDBRANCH  12  14
ENDBRANCH   7  12
BRANCH  10  22
HETATM   22  N4  UNL     1      25.362   7.662  50.739  1.00  0.00    -0.386 N 
HETATM   23  H16 UNL     1      25.699   8.321  51.486  1.00  0.00     0.159 HD
BRANCH  22  24
HETATM   24  C16 UNL     1      26.353   7.820  49.738  1.00  0.00     0.107 C 
HETATM   25  C17 UNL     1      27.157   8.854  50.046  1.00  0.00     0.147 C 
BRANCH  25  26
HETATM   26  O1  UNL     1      27.163   9.726  51.125  1.00  0.00    -0.371 OA
HETATM   27  H19 UNL     1      26.443   9.767  51.807  1.00  0.00     0.216 HD
ENDBRANCH  25  26
ENDBRANCH  22  24
ENDBRANCH  10  22
TORSDOF 6
ENDMDL
MODEL 5
REMARK VINA RESULT:      -7.1      3.510      7.417
REMARK  6 active torsions:
REMARK  status: ('A' for Active; 'I' for Inactive)
REMARK    1  A    between atoms: C5_7  and  N3_8 
REMARK    2  A    between atoms: N3_8  and  C6_9 
REMARK    3  A    between atoms: C6_9  and  C7_10 
REMARK    4  A    between atoms: C15_19  and  N4_20 
REMARK    5  A    between atoms: N4_20  and  C16_21 
REMARK    6  A    between atoms: C17_22  and  O1_23 
ROOT
HETATM    1  C1  UNL     1      24.840   8.018  50.117  1.00  0.00     0.040 C 
HETATM    2  C2  UNL     1      24.446   6.902  50.729  1.00  0.00     0.025 C 
HETATM    3  N1  UNL     1      24.083   6.491  52.019  1.00  0.00    -0.346 N 
HETATM    4  C3  UNL     1      23.958   5.100  52.150  1.00  0.00     0.109 C 
HETATM    5  N2  UNL     1      23.826   4.232  53.083  1.00  0.00    -0.270 NA
HETATM    6  C4  UNL     1      23.734   2.823  52.695  1.00  0.00     0.207 C 
HETATM    7  C5  UNL     1      24.872   2.613  51.732  1.00  0.00     0.022 C 
HETATM    8  C13 UNL     1      25.027   3.484  50.747  1.00  0.00     0.014 C 
HETATM    9  C14 UNL     1      24.014   4.582  50.748  1.00  0.00     0.108 C 
HETATM   10  C15 UNL     1      24.324   5.705  49.838  1.00  0.00     0.145 C 
HETATM   11  H3  UNL     1      23.932   7.218  52.753  1.00  0.00     0.167 HD
ENDROOT
BRANCH   7  12
HETATM   12  N3  UNL     1      25.621   1.469  52.045  1.00  0.00    -0.388 N 
HETATM   13  H6  UNL     1      26.565   1.907  51.794  1.00  0.00     0.159 HD
BRANCH  12  14
HETATM   14  C6  UNL     1      25.839   0.114  52.497  1.00  0.00     0.161 C 
BRANCH  14  15
HETATM   15  C7  UNL     1      27.233  -0.136  52.908  1.00  0.00    -0.002 A 
HETATM   16  C8  UNL     1      28.154   0.756  53.402  1.00  0.00     0.012 A 
HETATM   17  C9  UNL     1      29.447   0.426  53.753  1.00  0.00     0.001 A 
HETATM   18  C10 UNL     1      29.850  -0.886  53.598  1.00  0.00     0.003 A 
HETATM   19  C11 UNL     1      28.940  -1.818  53.097  1.00  0.00     0.043 A 
HETATM   20  C12 UNL     1      27.673  -1.447  52.767  1.00  0.00     0.124 A 
HETATM   21  F1  UNL     1      26.885  -2.453  52.295  1.00  0.00    -0.205 F 
ENDBRANCH  14  15
ENDBRANCH  12  14
ENDBRANCH   7  12
BRANCH  10  22
HETATM   22  N4  UNL     1      23.112   5.968  49.043  1.00  0.00    -0.386 N 
HETATM   23  H16 UNL     1      23.063   6.720  48.308  1.00  0.00     0.159 HD
BRANCH  22  24
HETATM   24  C16 UNL     1      21.809   5.415  48.984  1.00  0.00     0.107 C 
HETATM   25  C17 UNL     1      20.982   6.095  49.798  1.00  0.00     0.147 C 
BRANCH  25  26
HETATM   26  O1  UNL     1      21.200   7.186  50.627  1.00  0.00    -0.371 OA
HETATM   27  H19 UNL     1      21.652   8.021  50.336  1.00  0.00     0.216 HD
ENDBRANCH  25  26
ENDBRANCH  22  24
ENDBRANCH  10  22
TORSDOF 6
ENDMDL
MODEL 6
REMARK VINA RESULT:      -7.1      4.224      7.097
REMARK  6 active torsions:
REMARK  status: ('A' for Active; 'I' for Inactive)
REMARK    1  A    between atoms: C5_7  and  N3_8 
REMARK    2  A    between atoms: N3_8  and  C6_9 
REMARK    3  A    between atoms: C6_9  and  C7_10 
REMARK    4  A    between atoms: C15_19  and  N4_20 
REMARK    5  A    between atoms: N4_20  and  C16_21 
REMARK    6  A    between atoms: C17_22  and  O1_23 
ROOT
HETATM    1  C1  UNL     1      22.029   1.840  47.855  1.00  0.00     0.040 C 
HETATM    2  C2  UNL     1      22.341   2.356  49.043  1.00  0.00     0.025 C 
HETATM    3  N1  UNL     1      22.634   3.613  49.591  1.00  0.00    -0.346 N 
HETATM    4  C3  UNL     1      23.119   3.552  50.906  1.00  0.00     0.109 C 
HETATM    5  N2  UNL     1      23.667   4.330  51.764  1.00  0.00    -0.270 NA
HETATM    6  C4  UNL     1      24.010   3.769  53.071  1.00  0.00     0.207 C 
HETATM    7  C5  UNL     1      24.736   2.487  52.763  1.00  0.00     0.022 C 
HETATM    8  C13 UNL     1      24.189   1.653  51.892  1.00  0.00     0.014 C 
HETATM    9  C14 UNL     1      22.892   2.135  51.327  1.00  0.00     0.108 C 
HETATM   10  C15 UNL     1      22.404   1.365  50.164  1.00  0.00     0.145 C 
HETATM   11  H3  UNL     1      22.469   4.464  49.009  1.00  0.00     0.167 HD
ENDROOT
BRANCH   7  12
HETATM   12  N3  UNL     1      25.932   2.372  53.486  1.00  0.00    -0.388 N 
HETATM   13  H6  UNL     1      25.460   2.402  54.447  1.00  0.00     0.159 HD
BRANCH  12  14
HETATM   14  C6  UNL     1      27.359   2.235  53.668  1.00  0.00     0.161 C 
BRANCH  14  15
HETATM   15  C7  UNL     1      27.830   0.850  53.481  1.00  0.00    -0.002 A 
HETATM   16  C8  UNL     1      27.152  -0.222  52.954  1.00  0.00     0.012 A 
HETATM   17  C9  UNL     1      27.680  -1.491  52.827  1.00  0.00     0.001 A 
HETATM   18  C10 UNL     1      28.974  -1.706  53.260  1.00  0.00     0.003 A 
HETATM   19  C11 UNL     1      29.690  -0.637  53.802  1.00  0.00     0.043 A 
HETATM   20  C12 UNL     1      29.130   0.598  53.904  1.00  0.00     0.124 A 
HETATM   21  F1  UNL     1      29.938   1.552  54.447  1.00  0.00    -0.205 F 
ENDBRANCH  14  15
ENDBRANCH  12  14
ENDBRANCH   7  12
BRANCH  10  22
HETATM   22  N4  UNL     1      20.994   1.026  50.426  1.00  0.00    -0.386 N 
HETATM   23  H16 UNL     1      20.534   0.162  50.042  1.00  0.00     0.159 HD
BRANCH  22  24
HETATM   24  C16 UNL     1      19.935   1.625  51.153  1.00  0.00     0.107 C 
HETATM   25  C17 UNL     1      18.872   1.811  50.349  1.00  0.00     0.147 C 
BRANCH  25  26
HETATM   26  O1  UNL     1      18.671   1.520  49.008  1.00  0.00    -0.371 OA
HETATM   27  H19 UNL     1      18.117   0.763  48.683  1.00  0.00     0.216 HD
ENDBRANCH  25  26
ENDBRANCH  22  24
ENDBRANCH  10  22
TORSDOF 6
ENDMDL
MODEL 7
REMARK VINA RESULT:      -7.1      4.165      7.449
REMARK  6 active torsions:
REMARK  status: ('A' for Active; 'I' for Inactive)
REMARK    1  A    between atoms: C5_7  and  N3_8 
REMARK    2  A    between atoms: N3_8  and  C6_9 
REMARK    3  A    between atoms: C6_9  and  C7_10 
REMARK    4  A    between atoms: C15_19  and  N4_20 
REMARK    5  A    between atoms: N4_20  and  C16_21 
REMARK    6  A    between atoms: C17_22  and  O1_23 
ROOT
HETATM    1  C1  UNL     1      24.290   7.427  50.558  1.00  0.00     0.040 C 
HETATM    2  C2  UNL     1      23.978   6.292  49.934  1.00  0.00     0.025 C 
HETATM    3  N1  UNL     1      23.210   5.881  48.836  1.00  0.00    -0.346 N 
HETATM    4  C3  UNL     1      23.052   4.490  48.751  1.00  0.00     0.109 C 
HETATM    5  N2  UNL     1      22.353   3.642  48.092  1.00  0.00    -0.270 NA
HETATM    6  C4  UNL     1      22.558   2.221  48.378  1.00  0.00     0.207 C 
HETATM    7  C5  UNL     1      22.508   2.118  49.879  1.00  0.00     0.022 C 
HETATM    8  C13 UNL     1      23.231   2.970  50.589  1.00  0.00     0.014 C 
HETATM    9  C14 UNL     1      24.009   3.939  49.759  1.00  0.00     0.108 C 
HETATM   10  C15 UNL     1      24.600   5.061  50.517  1.00  0.00     0.145 C 
HETATM   11  H3  UNL     1      22.836   6.608  48.186  1.00  0.00     0.167 HD
ENDROOT
BRANCH   7  12
HETATM   12  N3  UNL     1      21.665   1.082  50.307  1.00  0.00    -0.388 N 
HETATM   13  H6  UNL     1      21.735   0.525  49.396  1.00  0.00     0.159 HD
BRANCH  12  14
HETATM   14  C6  UNL     1      20.809   0.369  51.228  1.00  0.00     0.161 C 
BRANCH  14  15
HETATM   15  C7  UNL     1      21.523  -0.097  52.431  1.00  0.00    -0.002 A 
HETATM   16  C8  UNL     1      22.867  -0.041  52.705  1.00  0.00     0.012 A 
HETATM   17  C9  UNL     1      23.445  -0.515  53.865  1.00  0.00     0.001 A 
HETATM   18  C10 UNL     1      22.624  -1.089  54.817  1.00  0.00     0.003 A 
HETATM   19  C11 UNL     1      21.253  -1.163  54.568  1.00  0.00     0.043 A 
HETATM   20  C12 UNL     1      20.726  -0.679  53.411  1.00  0.00     0.124 A 
HETATM   21  F1  UNL     1      19.375  -0.810  53.296  1.00  0.00    -0.205 F 
ENDBRANCH  14  15
ENDBRANCH  12  14
ENDBRANCH   7  12
BRANCH  10  22
HETATM   22  N4  UNL     1      26.017   5.153  50.126  1.00  0.00    -0.386 N 
HETATM   23  H16 UNL     1      26.773   5.469  50.785  1.00  0.00     0.159 HD
BRANCH  22  24
HETATM   24  C16 UNL     1      26.750   4.901  48.939  1.00  0.00     0.107 C 
HETATM   25  C17 UNL     1      27.504   5.971  48.627  1.00  0.00     0.147 C 
BRANCH  25  26
HETATM   26  O1  UNL     1      27.663   7.198  49.253  1.00  0.00    -0.371 OA
HETATM   27  H19 UNL     1      27.002   7.588  49.883  1.00  0.00     0.216 HD
ENDBRANCH  25  26
ENDBRANCH  22  24
ENDBRANCH  10  22
TORSDOF 6
ENDMDL
MODEL 8
REMARK VINA RESULT:      -7.1      3.757      6.243
REMARK  6 active torsions:
REMARK  status: ('A' for Active; 'I' for Inactive)
REMARK    1  A    between atoms: C5_7  and  N3_8 
REMARK    2  A    between atoms: N3_8  and  C6_9 
REMARK    3  A    between atoms: C6_9  and  C7_10 
REMARK    4  A    between atoms: C15_19  and  N4_20 
REMARK    5  A    between atoms: N4_20  and  C16_21 
REMARK    6  A    between atoms: C17_22  and  O1_23 
ROOT
HETATM    1  C1  UNL     1      28.544   2.061  53.928  1.00  0.00     0.040 C 
HETATM    2  C2  UNL     1      27.558   2.054  53.031  1.00  0.00     0.025 C 
HETATM    3  N1  UNL     1      27.237   2.698  51.828  1.00  0.00    -0.346 N 
HETATM    4  C3  UNL     1      25.924   2.460  51.398  1.00  0.00     0.109 C 
HETATM    5  N2  UNL     1      25.106   2.905  50.518  1.00  0.00    -0.270 NA
HETATM    6  C4  UNL     1      23.774   2.302  50.458  1.00  0.00     0.207 C 
HETATM    7  C5  UNL     1      23.291   2.290  51.883  1.00  0.00     0.022 C 
HETATM    8  C13 UNL     1      24.105   1.821  52.816  1.00  0.00     0.014 C 
HETATM    9  C14 UNL     1      25.427   1.365  52.288  1.00  0.00     0.108 C 
HETATM   10  C15 UNL     1      26.444   1.098  53.327  1.00  0.00     0.145 C 
HETATM   11  H3  UNL     1      27.969   3.275  51.357  1.00  0.00     0.167 HD
ENDROOT
BRANCH   7  12
HETATM   12  N3  UNL     1      21.989   2.799  52.002  1.00  0.00    -0.388 N 
HETATM   13  H6  UNL     1      22.074   3.462  51.166  1.00  0.00     0.159 HD
BRANCH  12  14
HETATM   14  C6  UNL     1      20.666   2.927  52.570  1.00  0.00     0.161 C 
BRANCH  14  15
HETATM   15  C7  UNL     1      19.870   1.691  52.452  1.00  0.00    -0.002 A 
HETATM   16  C8  UNL     1      18.817   1.427  51.611  1.00  0.00     0.012 A 
HETATM   17  C9  UNL     1      18.125   0.234  51.581  1.00  0.00     0.001 A 
HETATM   18  C10 UNL     1      18.507  -0.765  52.456  1.00  0.00     0.003 A 
HETATM   19  C11 UNL     1      19.572  -0.527  53.326  1.00  0.00     0.043 A 
HETATM   20  C12 UNL     1      20.229   0.664  53.317  1.00  0.00     0.124 A 
HETATM   21  F1  UNL     1      21.251   0.763  54.213  1.00  0.00    -0.205 F 
ENDBRANCH  14  15
ENDBRANCH  12  14
ENDBRANCH   7  12
BRANCH  10  22
HETATM   22  N4  UNL     1      27.020  -0.227  53.042  1.00  0.00    -0.386 N 
HETATM   23  H16 UNL     1      28.007  -0.488  53.295  1.00  0.00     0.159 HD
BRANCH  22  24
HETATM   24  C16 UNL     1      26.550  -1.418  52.433  1.00  0.00     0.107 C 
HETATM   25  C17 UNL     1      27.423  -2.420  52.645  1.00  0.00     0.147 C 
BRANCH  25  26
HETATM   26  O1  UNL     1      28.629  -2.459  53.328  1.00  0.00    -0.371 OA
HETATM   27  H19 UNL     1      29.512  -2.310  52.900  1.00  0.00     0.216 HD
ENDBRANCH  25  26
ENDBRANCH  22  24
ENDBRANCH  10  22
TORSDOF 6
ENDMDL
MODEL 9
REMARK VINA RESULT:      -7.0      4.007      7.188
REMARK  6 active torsions:
REMARK  status: ('A' for Active; 'I' for Inactive)
REMARK    1  A    between atoms: C5_7  and  N3_8 
REMARK    2  A    between atoms: N3_8  and  C6_9 
REMARK    3  A    between atoms: C6_9  and  C7_10 
REMARK    4  A    between atoms: C15_19  and  N4_20 
REMARK    5  A    between atoms: N4_20  and  C16_21 
REMARK    6  A    between atoms: C17_22  and  O1_23 
ROOT
HETATM    1  C1  UNL     1      28.494   7.044  47.392  1.00  0.00     0.040 C 
HETATM    2  C2  UNL     1      27.876   6.161  48.176  1.00  0.00     0.025 C 
HETATM    3  N1  UNL     1      28.076   4.852  48.634  1.00  0.00    -0.346 N 
HETATM    4  C3  UNL     1      26.962   4.312  49.292  1.00  0.00     0.109 C 
HETATM    5  N2  UNL     1      26.563   3.175  49.729  1.00  0.00    -0.270 NA
HETATM    6  C4  UNL     1      25.252   3.116  50.378  1.00  0.00     0.207 C 
HETATM    7  C5  UNL     1      24.324   3.844  49.441  1.00  0.00     0.022 C 
HETATM    8  C13 UNL     1      24.700   5.028  48.984  1.00  0.00     0.014 C 
HETATM    9  C14 UNL     1      26.037   5.472  49.484  1.00  0.00     0.108 C 
HETATM   10  C15 UNL     1      26.596   6.646  48.783  1.00  0.00     0.145 C 
HETATM   11  H3  UNL     1      29.002   4.398  48.467  1.00  0.00     0.167 HD
ENDROOT
BRANCH   7  12
HETATM   12  N3  UNL     1      23.151   3.117  49.194  1.00  0.00    -0.388 N 
HETATM   13  H6  UNL     1      22.537   3.982  49.051  1.00  0.00     0.159 HD
BRANCH  12  14
HETATM   14  C6  UNL     1      22.340   1.933  49.021  1.00  0.00     0.161 C 
BRANCH  14  15
HETATM   15  C7  UNL     1      21.918   1.336  50.301  1.00  0.00    -0.002 A 
HETATM   16  C8  UNL     1      22.658   1.140  51.441  1.00  0.00     0.012 A 
HETATM   17  C9  UNL     1      22.173   0.560  52.595  1.00  0.00     0.001 A 
HETATM   18  C10 UNL     1      20.856   0.142  52.611  1.00  0.00     0.003 A 
HETATM   19  C11 UNL     1      20.076   0.325  51.468  1.00  0.00     0.043 A 
HETATM   20  C12 UNL     1      20.597   0.905  50.353  1.00  0.00     0.124 A 
HETATM   21  F1  UNL     1      19.729   1.028  49.311  1.00  0.00    -0.205 F 
ENDBRANCH  14  15
ENDBRANCH  12  14
ENDBRANCH   7  12
BRANCH  10  22
HETATM   22  N4  UNL     1      27.027   7.605  49.816  1.00  0.00    -0.386 N 
HETATM   23  H16 UNL     1      27.678   7.346  50.600  1.00  0.00     0.159 HD
BRANCH  22  24
HETATM   24  C16 UNL     1      26.770   8.972  50.087  1.00  0.00     0.107 C 
HETATM   25  C17 UNL     1      27.929   9.653  50.160  1.00  0.00     0.147 C 
BRANCH  25  26
HETATM   26  O1  UNL     1      29.246   9.244  50.015  1.00  0.00    -0.371 OA
HETATM   27  H19 UNL     1      29.537   8.521  49.400  1.00  0.00     0.216 HD
ENDBRANCH  25  26
ENDBRANCH  22  24
ENDBRANCH  10  22
TORSDOF 6
ENDMDL
