MODEL 1
REMARK VINA RESULT:      -7.8      0.000      0.000
REMARK  6 active torsions:
REMARK  status: ('A' for Active; 'I' for Inactive)
REMARK    1  A    between atoms: N1_2  and  C2_3 
REMARK    2  A    between atoms: C2_3  and  C3_4 
REMARK    3  A    between atoms: C3_4  and  C4_5 
REMARK    4  A    between atoms: C4_5  and  N2_6 
REMARK    5  A    between atoms: C11_13  and  C12_14 
REMARK    6  A    between atoms: C14_17  and  C16_19 
ROOT
HETATM    1  N2  UNL     1      23.575   1.300  51.870  1.00  0.00    -0.363 N 
HETATM    2  C5  UNL     1      22.915   1.591  50.631  1.00  0.00     0.042 A 
HETATM    3  C6  UNL     1      21.753   1.029  50.206  1.00  0.00     0.030 A 
HETATM    4  C7  UNL     1      21.136   1.323  49.011  1.00  0.00     0.002 A 
HETATM    5  C8  UNL     1      21.703   2.246  48.156  1.00  0.00     0.001 A 
HETATM    6  C9  UNL     1      22.880   2.840  48.547  1.00  0.00     0.014 A 
HETATM    7  C10 UNL     1      23.450   2.509  49.748  1.00  0.00     0.004 A 
HETATM    8  C11 UNL     1      24.683   3.201  50.067  1.00  0.00     0.013 A 
HETATM    9  C13 UNL     1      25.235   2.921  51.217  1.00  0.00     0.024 A 
HETATM   10  C14 UNL     1      24.794   1.983  52.298  1.00  0.00     0.075 A 
HETATM   11  C15 UNL     1      24.440   2.892  53.470  1.00  0.00     0.048 C 
ENDROOT
BRANCH  10  12
HETATM   12  C16 UNL     1      25.846   1.043  52.671  1.00  0.00    -0.026 A 
HETATM   13  C17 UNL     1      26.485  -0.029  52.095  1.00  0.00     0.010 A 
HETATM   14  C18 UNL     1      27.469  -0.753  52.719  1.00  0.00     0.001 A 
HETATM   15  C19 UNL     1      27.893  -0.445  53.995  1.00  0.00     0.000 A 
HETATM   16  C20 UNL     1      27.283   0.632  54.630  1.00  0.00     0.001 A 
HETATM   17  C21 UNL     1      26.282   1.347  53.962  1.00  0.00     0.010 A 
ENDBRANCH  10  12
BRANCH   1  18
HETATM   18  C4  UNL     1      22.977   0.253  52.661  1.00  0.00     0.126 C 
BRANCH  18  19
HETATM   19  C3  UNL     1      21.796   0.636  53.482  1.00  0.00     0.050 C 
BRANCH  19  20
HETATM   20  C2  UNL     1      21.554  -0.317  54.644  1.00  0.00     0.270 C 
BRANCH  20  21
HETATM   21  N1  UNL     1      20.450  -1.220  54.329  1.00  0.00     0.079 N 
HETATM   22  C1  UNL     1      19.545  -0.595  53.402  1.00  0.00     0.306 C 
HETATM   23  H4  UNL     1      19.906  -1.482  55.186  1.00  0.00     0.315 HD
ENDBRANCH  20  21
ENDBRANCH  19  20
ENDBRANCH  18  19
ENDBRANCH   1  18
BRANCH   8  24
HETATM   24  C12 UNL     1      25.395   4.168  49.286  1.00  0.00     0.270 C 
HETATM   25  O1  UNL     1      26.574   4.415  48.964  1.00  0.00    -0.301 OA
ENDBRANCH   8  24
TORSDOF 6
ENDMDL
MODEL 2
REMARK VINA RESULT:      -7.6      2.627      6.643
REMARK  6 active torsions:
REMARK  status: ('A' for Active; 'I' for Inactive)
REMARK    1  A    between atoms: N1_2  and  C2_3 
REMARK    2  A    between atoms: C2_3  and  C3_4 
REMARK    3  A    between atoms: C3_4  and  C4_5 
REMARK    4  A    between atoms: C4_5  and  N2_6 
REMARK    5  A    between atoms: C11_13  and  C12_14 
REMARK    6  A    between atoms: C14_17  and  C16_19 
ROOT
HETATM    1  N2  UNL     1      25.034   2.695  51.524  1.00  0.00    -0.363 N 
HETATM    2  C5  UNL     1      25.518   1.472  52.094  1.00  0.00     0.042 A 
HETATM    3  C6  UNL     1      26.826   1.114  52.197  1.00  0.00     0.030 A 
HETATM    4  C7  UNL     1      27.269  -0.067  52.749  1.00  0.00     0.002 A 
HETATM    5  C8  UNL     1      26.358  -0.978  53.242  1.00  0.00     0.001 A 
HETATM    6  C9  UNL     1      25.023  -0.655  53.157  1.00  0.00     0.014 A 
HETATM    7  C10 UNL     1      24.638   0.535  52.599  1.00  0.00     0.004 A 
HETATM    8  C11 UNL     1      23.210   0.780  52.570  1.00  0.00     0.013 A 
HETATM    9  C13 UNL     1      22.817   1.918  52.063  1.00  0.00     0.024 A 
HETATM   10  C14 UNL     1      23.617   3.050  51.496  1.00  0.00     0.075 A 
HETATM   11  C15 UNL     1      23.397   4.198  52.475  1.00  0.00     0.048 C 
ENDROOT
BRANCH  10  12
HETATM   12  C16 UNL     1      23.171   3.419  50.156  1.00  0.00    -0.026 A 
HETATM   13  C17 UNL     1      22.984   4.580  49.444  1.00  0.00     0.010 A 
HETATM   14  C18 UNL     1      22.526   4.613  48.151  1.00  0.00     0.001 A 
HETATM   15  C19 UNL     1      22.217   3.458  47.465  1.00  0.00     0.000 A 
HETATM   16  C20 UNL     1      22.387   2.250  48.134  1.00  0.00     0.001 A 
HETATM   17  C21 UNL     1      22.856   2.255  49.453  1.00  0.00     0.010 A 
ENDBRANCH  10  12
BRANCH   1  18
HETATM   18  C4  UNL     1      26.039   3.549  50.939  1.00  0.00     0.126 C 
BRANCH  18  19
HETATM   19  C3  UNL     1      26.437   3.240  49.539  1.00  0.00     0.050 C 
BRANCH  19  20
HETATM   20  C2  UNL     1      27.205   4.377  48.881  1.00  0.00     0.270 C 
BRANCH  20  21
HETATM   21  N1  UNL     1      26.868   5.645  49.523  1.00  0.00     0.079 N 
HETATM   22  C1  UNL     1      26.156   6.494  48.605  1.00  0.00     0.306 C 
HETATM   23  H4  UNL     1      27.725   6.159  49.840  1.00  0.00     0.315 HD
ENDBRANCH  20  21
ENDBRANCH  19  20
ENDBRANCH  18  19
ENDBRANCH   1  18
BRANCH   8  24
HETATM   24  C12 UNL     1      22.147  -0.065  53.028  1.00  0.00     0.270 C 
HETATM   25  O1  UNL     1      21.568  -0.329  54.100  1.00  0.00    -0.301 OA
ENDBRANCH   8  24
TORSDOF 6
ENDMDL
MODEL 3
REMARK VINA RESULT:      -7.4      2.334      5.298
REMARK  6 active torsions:
REMARK  status: ('A' for Active; 'I' for Inactive)
REMARK    1  A    between atoms: N1_2  and  C2_3 
REMARK    2  A    between atoms: C2_3  and  C3_4 
REMARK    3  A    between atoms: C3_4  and  C4_5 
REMARK    4  A    between atoms: C4_5  and  N2_6 
REMARK    5  A    between atoms: C11_13  and  C12_14 
REMARK    6  A    between atoms: C14_17  and  C16_19 
ROOT
HETATM    1  N2  UNL     1      24.453   2.447  52.565  1.00  0.00    -0.363 N 
HETATM    2  C5  UNL     1      23.743   1.227  52.813  1.00  0.00     0.042 A 
HETATM    3  C6  UNL     1      24.076   0.298  53.748  1.00  0.00     0.030 A 
HETATM    4  C7  UNL     1      23.380  -0.869  53.970  1.00  0.00     0.002 A 
HETATM    5  C8  UNL     1      22.262  -1.155  53.213  1.00  0.00     0.001 A 
HETATM    6  C9  UNL     1      21.890  -0.241  52.254  1.00  0.00     0.014 A 
HETATM    7  C10 UNL     1      22.620   0.905  52.077  1.00  0.00     0.004 A 
HETATM    8  C11 UNL     1      22.135   1.802  51.049  1.00  0.00     0.013 A 
HETATM    9  C13 UNL     1      22.799   2.913  50.874  1.00  0.00     0.024 A 
HETATM   10  C14 UNL     1      24.011   3.436  51.584  1.00  0.00     0.075 A 
HETATM   11  C15 UNL     1      23.509   4.661  52.339  1.00  0.00     0.048 C 
ENDROOT
BRANCH  10  12
HETATM   12  C16 UNL     1      25.075   3.799  50.654  1.00  0.00    -0.026 A 
HETATM   13  C17 UNL     1      26.119   3.163  50.026  1.00  0.00     0.010 A 
HETATM   14  C18 UNL     1      26.996   3.796  49.180  1.00  0.00     0.001 A 
HETATM   15  C19 UNL     1      26.884   5.140  48.897  1.00  0.00     0.000 A 
HETATM   16  C20 UNL     1      25.845   5.839  49.505  1.00  0.00     0.001 A 
HETATM   17  C21 UNL     1      24.970   5.160  50.362  1.00  0.00     0.010 A 
ENDBRANCH  10  12
BRANCH   1  18
HETATM   18  C4  UNL     1      25.666   2.626  53.325  1.00  0.00     0.126 C 
BRANCH  18  19
HETATM   19  C3  UNL     1      26.786   1.696  53.014  1.00  0.00     0.050 C 
BRANCH  19  20
HETATM   20  C2  UNL     1      28.146   2.271  53.382  1.00  0.00     0.270 C 
BRANCH  20  21
HETATM   21  N1  UNL     1      28.707   1.540  54.516  1.00  0.00     0.079 N 
HETATM   22  C1  UNL     1      28.119   0.230  54.604  1.00  0.00     0.306 C 
HETATM   23  H4  UNL     1      28.530   2.036  55.422  1.00  0.00     0.315 HD
ENDBRANCH  20  21
ENDBRANCH  19  20
ENDBRANCH  18  19
ENDBRANCH   1  18
BRANCH   8  24
HETATM   24  C12 UNL     1      21.007   1.643  50.179  1.00  0.00     0.270 C 
HETATM   25  O1  UNL     1      20.717   1.016  49.141  1.00  0.00    -0.301 OA
ENDBRANCH   8  24
TORSDOF 6
ENDMDL
MODEL 4
REMARK VINA RESULT:      -7.3      2.813      6.399
REMARK  6 active torsions:
REMARK  status: ('A' for Active; 'I' for Inactive)
REMARK    1  A    between atoms: N1_2  and  C2_3 
REMARK    2  A    between atoms: C2_3  and  C3_4 
REMARK    3  A    between atoms: C3_4  and  C4_5 
REMARK    4  A    between atoms: C4_5  and  N2_6 
REMARK    5  A    between atoms: C11_13  and  C12_14 
REMARK    6  A    between atoms: C14_17  and  C16_19 
ROOT
HETATM    1  N2  UNL     1      22.424   1.806  52.440  1.00  0.00    -0.363 N 
HETATM    2  C5  UNL     1      22.222   0.611  53.205  1.00  0.00     0.042 A 
HETATM    3  C6  UNL     1      23.149   0.022  54.005  1.00  0.00     0.030 A 
HETATM    4  C7  UNL     1      22.934  -1.128  54.732  1.00  0.00     0.002 A 
HETATM    5  C8  UNL     1      21.708  -1.757  54.672  1.00  0.00     0.001 A 
HETATM    6  C9  UNL     1      20.739  -1.194  53.873  1.00  0.00     0.014 A 
HETATM    7  C10 UNL     1      21.009  -0.048  53.172  1.00  0.00     0.004 A 
HETATM    8  C11 UNL     1      19.917   0.466  52.371  1.00  0.00     0.013 A 
HETATM    9  C13 UNL     1      20.139   1.571  51.710  1.00  0.00     0.024 A 
HETATM   10  C14 UNL     1      21.368   2.426  51.643  1.00  0.00     0.075 A 
HETATM   11  C15 UNL     1      20.962   3.728  52.324  1.00  0.00     0.048 C 
ENDROOT
BRANCH  10  12
HETATM   12  C16 UNL     1      21.790   2.670  50.268  1.00  0.00    -0.026 A 
HETATM   13  C17 UNL     1      22.293   3.726  49.545  1.00  0.00     0.010 A 
HETATM   14  C18 UNL     1      22.599   3.655  48.209  1.00  0.00     0.001 A 
HETATM   15  C19 UNL     1      22.420   2.494  47.488  1.00  0.00     0.000 A 
HETATM   16  C20 UNL     1      21.914   1.390  48.166  1.00  0.00     0.001 A 
HETATM   17  C21 UNL     1      21.612   1.499  49.529  1.00  0.00     0.010 A 
ENDBRANCH  10  12
BRANCH   1  18
HETATM   18  C4  UNL     1      23.761   2.348  52.474  1.00  0.00     0.126 C 
BRANCH  18  19
HETATM   19  C3  UNL     1      24.733   1.774  51.504  1.00  0.00     0.050 C 
BRANCH  19  20
HETATM   20  C2  UNL     1      26.180   1.992  51.923  1.00  0.00     0.270 C 
BRANCH  20  21
HETATM   21  N1  UNL     1      26.719   3.177  51.260  1.00  0.00     0.079 N 
HETATM   22  C1  UNL     1      26.289   3.219  49.888  1.00  0.00     0.306 C 
HETATM   23  H4  UNL     1      27.768   3.183  51.271  1.00  0.00     0.315 HD
ENDBRANCH  20  21
ENDBRANCH  19  20
ENDBRANCH  18  19
ENDBRANCH   1  18
BRANCH   8  24
HETATM   24  C12 UNL     1      18.600  -0.074  52.198  1.00  0.00     0.270 C 
HETATM   25  O1  UNL     1      17.916  -0.576  51.285  1.00  0.00    -0.301 OA
ENDBRANCH   8  24
TORSDOF 6
ENDMDL
MODEL 5
REMARK VINA RESULT:      -6.9      2.777      5.151
REMARK  6 active torsions:
REMARK  status: ('A' for Active; 'I' for Inactive)
REMARK    1  A    between atoms: N1_2  and  C2_3 
REMARK    2  A    between atoms: C2_3  and  C3_4 
REMARK    3  A    between atoms: C3_4  and  C4_5 
REMARK    4  A    between atoms: C4_5  and  N2_6 
REMARK    5  A    between atoms: C11_13  and  C12_14 
REMARK    6  A    between atoms: C14_17  and  C16_19 
ROOT
HETATM    1  N2  UNL     1      24.239   3.808  50.136  1.00  0.00    -0.363 N 
HETATM    2  C5  UNL     1      23.178   2.933  49.733  1.00  0.00     0.042 A 
HETATM    3  C6  UNL     1      22.866   1.748  50.323  1.00  0.00     0.030 A 
HETATM    4  C7  UNL     1      21.842   0.921  49.918  1.00  0.00     0.002 A 
HETATM    5  C8  UNL     1      21.054   1.282  48.845  1.00  0.00     0.001 A 
HETATM    6  C9  UNL     1      21.334   2.474  48.218  1.00  0.00     0.014 A 
HETATM    7  C10 UNL     1      22.366   3.258  48.664  1.00  0.00     0.004 A 
HETATM    8  C11 UNL     1      22.568   4.496  47.940  1.00  0.00     0.013 A 
HETATM    9  C13 UNL     1      23.531   5.274  48.358  1.00  0.00     0.024 A 
HETATM   10  C14 UNL     1      24.487   5.099  49.499  1.00  0.00     0.075 A 
HETATM   11  C15 UNL     1      24.104   6.196  50.486  1.00  0.00     0.048 C 
ENDROOT
BRANCH  10  12
HETATM   12  C16 UNL     1      25.876   5.243  49.076  1.00  0.00    -0.026 A 
HETATM   13  C17 UNL     1      26.989   4.440  48.995  1.00  0.00     0.010 A 
HETATM   14  C18 UNL     1      28.211   4.878  48.548  1.00  0.00     0.001 A 
HETATM   15  C19 UNL     1      28.407   6.180  48.141  1.00  0.00     0.000 A 
HETATM   16  C20 UNL     1      27.315   7.041  48.200  1.00  0.00     0.001 A 
HETATM   17  C21 UNL     1      26.084   6.560  48.662  1.00  0.00     0.010 A 
ENDBRANCH  10  12
BRANCH   1  18
HETATM   18  C4  UNL     1      25.081   3.315  51.199  1.00  0.00     0.126 C 
BRANCH  18  19
HETATM   19  C3  UNL     1      24.475   3.269  52.557  1.00  0.00     0.050 C 
BRANCH  19  20
HETATM   20  C2  UNL     1      25.111   2.212  53.449  1.00  0.00     0.270 C 
BRANCH  20  21
HETATM   21  N1  UNL     1      26.418   2.670  53.913  1.00  0.00     0.079 N 
HETATM   22  C1  UNL     1      27.417   1.668  53.650  1.00  0.00     0.306 C 
HETATM   23  H4  UNL     1      26.418   2.865  54.943  1.00  0.00     0.315 HD
ENDBRANCH  20  21
ENDBRANCH  19  20
ENDBRANCH  18  19
ENDBRANCH   1  18
BRANCH   8  24
HETATM   24  C12 UNL     1      21.847   5.001  46.809  1.00  0.00     0.270 C 
HETATM   25  O1  UNL     1      21.882   4.901  45.567  1.00  0.00    -0.301 OA
ENDBRANCH   8  24
TORSDOF 6
ENDMDL
MODEL 6
REMARK VINA RESULT:      -6.8      2.276      5.132
REMARK  6 active torsions:
REMARK  status: ('A' for Active; 'I' for Inactive)
REMARK    1  A    between atoms: N1_2  and  C2_3 
REMARK    2  A    between atoms: C2_3  and  C3_4 
REMARK    3  A    between atoms: C3_4  and  C4_5 
REMARK    4  A    between atoms: C4_5  and  N2_6 
REMARK    5  A    between atoms: C11_13  and  C12_14 
REMARK    6  A    between atoms: C14_17  and  C16_19 
ROOT
HETATM    1  N2  UNL     1      21.931   1.896  52.096  1.00  0.00    -0.363 N 
HETATM    2  C5  UNL     1      22.110   0.878  53.089  1.00  0.00     0.042 A 
HETATM    3  C6  UNL     1      21.143   0.414  53.924  1.00  0.00     0.030 A 
HETATM    4  C7  UNL     1      21.336  -0.565  54.873  1.00  0.00     0.002 A 
HETATM    5  C8  UNL     1      22.582  -1.141  55.019  1.00  0.00     0.001 A 
HETATM    6  C9  UNL     1      23.591  -0.700  54.193  1.00  0.00     0.014 A 
HETATM    7  C10 UNL     1      23.341   0.277  53.266  1.00  0.00     0.004 A 
HETATM    8  C11 UNL     1      24.469   0.660  52.441  1.00  0.00     0.013 A 
HETATM    9  C13 UNL     1      24.253   1.574  51.534  1.00  0.00     0.024 A 
HETATM   10  C14 UNL     1      22.996   2.311  51.186  1.00  0.00     0.075 A 
HETATM   11  C15 UNL     1      22.642   1.820  49.787  1.00  0.00     0.048 C 
ENDROOT
BRANCH  10  12
HETATM   12  C16 UNL     1      23.190   3.758  51.193  1.00  0.00    -0.026 A 
HETATM   13  C17 UNL     1      23.489   4.725  52.123  1.00  0.00     0.010 A 
HETATM   14  C18 UNL     1      23.601   6.060  51.822  1.00  0.00     0.001 A 
HETATM   15  C19 UNL     1      23.417   6.528  50.538  1.00  0.00     0.000 A 
HETATM   16  C20 UNL     1      23.112   5.595  49.553  1.00  0.00     0.001 A 
HETATM   17  C21 UNL     1      23.006   4.241  49.897  1.00  0.00     0.010 A 
ENDBRANCH  10  12
BRANCH   1  18
HETATM   18  C4  UNL     1      20.630   2.520  52.073  1.00  0.00     0.126 C 
BRANCH  18  19
HETATM   19  C3  UNL     1      19.696   2.065  51.007  1.00  0.00     0.050 C 
BRANCH  19  20
HETATM   20  C2  UNL     1      18.473   1.351  51.564  1.00  0.00     0.270 C 
BRANCH  20  21
HETATM   21  N1  UNL     1      18.585  -0.087  51.334  1.00  0.00     0.079 N 
HETATM   22  C1  UNL     1      17.938  -0.812  52.395  1.00  0.00     0.306 C 
HETATM   23  H4  UNL     1      19.586  -0.397  51.293  1.00  0.00     0.315 HD
ENDBRANCH  20  21
ENDBRANCH  19  20
ENDBRANCH  18  19
ENDBRANCH   1  18
BRANCH   8  24
HETATM   24  C12 UNL     1      25.814   0.167  52.479  1.00  0.00     0.270 C 
HETATM   25  O1  UNL     1      26.787   0.065  51.706  1.00  0.00    -0.301 OA
ENDBRANCH   8  24
TORSDOF 6
ENDMDL
MODEL 7
REMARK VINA RESULT:      -6.6      2.636      5.746
REMARK  6 active torsions:
REMARK  status: ('A' for Active; 'I' for Inactive)
REMARK    1  A    between atoms: N1_2  and  C2_3 
REMARK    2  A    between atoms: C2_3  and  C3_4 
REMARK    3  A    between atoms: C3_4  and  C4_5 
REMARK    4  A    between atoms: C4_5  and  N2_6 
REMARK    5  A    between atoms: C11_13  and  C12_14 
REMARK    6  A    between atoms: C14_17  and  C16_19 
ROOT
HETATM    1  N2  UNL     1      23.890   2.924  49.884  1.00  0.00    -0.363 N 
HETATM    2  C5  UNL     1      23.182   1.929  50.633  1.00  0.00     0.042 A 
HETATM    3  C6  UNL     1      22.028   1.324  50.245  1.00  0.00     0.030 A 
HETATM    4  C7  UNL     1      21.363   0.369  50.981  1.00  0.00     0.002 A 
HETATM    5  C8  UNL     1      21.868  -0.030  52.201  1.00  0.00     0.001 A 
HETATM    6  C9  UNL     1      23.036   0.557  52.633  1.00  0.00     0.014 A 
HETATM    7  C10 UNL     1      23.656   1.502  51.858  1.00  0.00     0.004 A 
HETATM    8  C11 UNL     1      24.883   2.048  52.401  1.00  0.00     0.013 A 
HETATM    9  C13 UNL     1      25.507   2.935  51.673  1.00  0.00     0.024 A 
HETATM   10  C14 UNL     1      25.161   3.495  50.327  1.00  0.00     0.075 A 
HETATM   11  C15 UNL     1      26.260   2.978  49.406  1.00  0.00     0.048 C 
ENDROOT
BRANCH  10  12
HETATM   12  C16 UNL     1      25.133   4.955  50.332  1.00  0.00    -0.026 A 
HETATM   13  C17 UNL     1      24.454   5.943  51.003  1.00  0.00     0.010 A 
HETATM   14  C18 UNL     1      24.643   7.283  50.777  1.00  0.00     0.001 A 
HETATM   15  C19 UNL     1      25.548   7.737  49.841  1.00  0.00     0.000 A 
HETATM   16  C20 UNL     1      26.267   6.782  49.130  1.00  0.00     0.001 A 
HETATM   17  C21 UNL     1      26.048   5.423  49.387  1.00  0.00     0.010 A 
ENDBRANCH  10  12
BRANCH   1  18
HETATM   18  C4  UNL     1      23.248   3.363  48.669  1.00  0.00     0.126 C 
BRANCH  18  19
HETATM   19  C3  UNL     1      22.158   4.365  48.820  1.00  0.00     0.050 C 
BRANCH  19  20
HETATM   20  C2  UNL     1      22.365   5.595  47.948  1.00  0.00     0.270 C 
BRANCH  20  21
HETATM   21  N1  UNL     1      21.667   6.741  48.524  1.00  0.00     0.079 N 
HETATM   22  C1  UNL     1      20.956   6.345  49.710  1.00  0.00     0.306 C 
HETATM   23  H4  UNL     1      20.974   7.151  47.853  1.00  0.00     0.315 HD
ENDBRANCH  20  21
ENDBRANCH  19  20
ENDBRANCH  18  19
ENDBRANCH   1  18
BRANCH   8  24
HETATM   24  C12 UNL     1      25.524   1.746  53.647  1.00  0.00     0.270 C 
HETATM   25  O1  UNL     1      26.387   2.249  54.392  1.00  0.00    -0.301 OA
ENDBRANCH   8  24
TORSDOF 6
ENDMDL
MODEL 8
REMARK VINA RESULT:      -6.6      2.178      5.151
REMARK  6 active torsions:
REMARK  status: ('A' for Active; 'I' for Inactive)
REMARK    1  A    between atoms: N1_2  and  C2_3 
REMARK    2  A    between atoms: C2_3  and  C3_4 
REMARK    3  A    between atoms: C3_4  and  C4_5 
REMARK    4  A    between atoms: C4_5  and  N2_6 
REMARK    5  A    between atoms: C11_13  and  C12_14 
REMARK    6  A    between atoms: C14_17  and  C16_19 
ROOT
HETATM    1  N2  UNL     1      23.191   2.622  50.808  1.00  0.00    -0.363 N 
HETATM    2  C5  UNL     1      24.381   2.108  51.419  1.00  0.00     0.042 A 
HETATM    3  C6  UNL     1      24.416   1.231  52.458  1.00  0.00     0.030 A 
HETATM    4  C7  UNL     1      25.572   0.749  53.032  1.00  0.00     0.002 A 
HETATM    5  C8  UNL     1      26.798   1.159  52.551  1.00  0.00     0.001 A 
HETATM    6  C9  UNL     1      26.808   2.046  51.499  1.00  0.00     0.014 A 
HETATM    7  C10 UNL     1      25.628   2.492  50.967  1.00  0.00     0.004 A 
HETATM    8  C11 UNL     1      25.752   3.415  49.857  1.00  0.00     0.013 A 
HETATM    9  C13 UNL     1      24.641   3.839  49.315  1.00  0.00     0.024 A 
HETATM   10  C14 UNL     1      23.217   3.517  49.653  1.00  0.00     0.075 A 
HETATM   11  C15 UNL     1      22.705   2.745  48.443  1.00  0.00     0.048 C 
ENDROOT
BRANCH  10  12
HETATM   12  C16 UNL     1      22.422   4.721  49.874  1.00  0.00    -0.026 A 
HETATM   13  C17 UNL     1      21.151   5.152  49.579  1.00  0.00     0.010 A 
HETATM   14  C18 UNL     1      20.669   6.390  49.923  1.00  0.00     0.001 A 
HETATM   15  C19 UNL     1      21.445   7.303  50.604  1.00  0.00     0.000 A 
HETATM   16  C20 UNL     1      22.743   6.923  50.932  1.00  0.00     0.001 A 
HETATM   17  C21 UNL     1      23.200   5.652  50.564  1.00  0.00     0.010 A 
ENDBRANCH  10  12
BRANCH   1  18
HETATM   18  C4  UNL     1      21.951   2.228  51.430  1.00  0.00     0.126 C 
BRANCH  18  19
HETATM   19  C3  UNL     1      21.371   0.931  50.988  1.00  0.00     0.050 C 
BRANCH  19  20
HETATM   20  C2  UNL     1      20.903   0.068  52.151  1.00  0.00     0.270 C 
BRANCH  20  21
HETATM   21  N1  UNL     1      20.727   0.891  53.345  1.00  0.00     0.079 N 
HETATM   22  C1  UNL     1      20.982   0.112  54.528  1.00  0.00     0.306 C 
HETATM   23  H4  UNL     1      19.753   1.273  53.413  1.00  0.00     0.315 HD
ENDBRANCH  20  21
ENDBRANCH  19  20
ENDBRANCH  18  19
ENDBRANCH   1  18
BRANCH   8  24
HETATM   24  C12 UNL     1      26.943   3.938  49.256  1.00  0.00     0.270 C 
HETATM   25  O1  UNL     1      27.291   4.947  48.611  1.00  0.00    -0.301 OA
ENDBRANCH   8  24
TORSDOF 6
ENDMDL
MODEL 9
REMARK VINA RESULT:      -6.5      3.012      5.748
REMARK  6 active torsions:
REMARK  status: ('A' for Active; 'I' for Inactive)
REMARK    1  A    between atoms: N1_2  and  C2_3 
REMARK    2  A    between atoms: C2_3  and  C3_4 
REMARK    3  A    between atoms: C3_4  and  C4_5 
REMARK    4  A    between atoms: C4_5  and  N2_6 
REMARK    5  A    between atoms: C11_13  and  C12_14 
REMARK    6  A    between atoms: C14_17  and  C16_19 
ROOT
HETATM    1  N2  UNL     1      23.679   4.779  51.160  1.00  0.00    -0.363 N 
HETATM    2  C5  UNL     1      24.312   5.977  50.692  1.00  0.00     0.042 A 
HETATM    3  C6  UNL     1      23.873   7.243  50.925  1.00  0.00     0.030 A 
HETATM    4  C7  UNL     1      24.496   8.381  50.465  1.00  0.00     0.002 A 
HETATM    5  C8  UNL     1      25.648   8.275  49.712  1.00  0.00     0.001 A 
HETATM    6  C9  UNL     1      26.128   7.012  49.452  1.00  0.00     0.014 A 
HETATM    7  C10 UNL     1      25.466   5.914  49.936  1.00  0.00     0.004 A 
HETATM    8  C11 UNL     1      26.062   4.633  49.614  1.00  0.00     0.013 A 
HETATM    9  C13 UNL     1      25.465   3.570  50.082  1.00  0.00     0.024 A 
HETATM   10  C14 UNL     1      24.233   3.447  50.927  1.00  0.00     0.075 A 
HETATM   11  C15 UNL     1      24.739   2.905  52.259  1.00  0.00     0.048 C 
ENDROOT
BRANCH  10  12
HETATM   12  C16 UNL     1      23.253   2.541  50.338  1.00  0.00    -0.026 A 
HETATM   13  C17 UNL     1      22.445   1.517  50.771  1.00  0.00     0.010 A 
HETATM   14  C18 UNL     1      21.599   0.816  49.948  1.00  0.00     0.001 A 
HETATM   15  C19 UNL     1      21.502   1.099  48.603  1.00  0.00     0.000 A 
HETATM   16  C20 UNL     1      22.297   2.127  48.105  1.00  0.00     0.001 A 
HETATM   17  C21 UNL     1      23.147   2.821  48.974  1.00  0.00     0.010 A 
ENDBRANCH  10  12
BRANCH   1  18
HETATM   18  C4  UNL     1      22.427   4.967  51.852  1.00  0.00     0.126 C 
BRANCH  18  19
HETATM   19  C3  UNL     1      21.190   4.758  51.050  1.00  0.00     0.050 C 
BRANCH  19  20
HETATM   20  C2  UNL     1      20.763   6.007  50.293  1.00  0.00     0.270 C 
BRANCH  20  21
HETATM   21  N1  UNL     1      21.129   5.887  48.884  1.00  0.00     0.079 N 
HETATM   22  C1  UNL     1      21.172   7.187  48.268  1.00  0.00     0.306 C 
HETATM   23  H4  UNL     1      20.441   5.300  48.353  1.00  0.00     0.315 HD
ENDBRANCH  20  21
ENDBRANCH  19  20
ENDBRANCH  18  19
ENDBRANCH   1  18
BRANCH   8  24
HETATM   24  C12 UNL     1      27.238   4.361  48.841  1.00  0.00     0.270 C 
HETATM   25  O1  UNL     1      28.396   4.809  48.724  1.00  0.00    -0.301 OA
ENDBRANCH   8  24
TORSDOF 6
ENDMDL
