MODEL 1
REMARK VINA RESULT:      -7.5      0.000      0.000
REMARK  5 active torsions:
REMARK  status: ('A' for Active; 'I' for Inactive)
REMARK    1  A    between atoms: C2_2  and  O1_3 
REMARK    2  A    between atoms: O1_3  and  C3_4 
REMARK    3  A    between atoms: C13_15  and  C14_16 
REMARK    4  A    between atoms: C15_17  and  C16_19 
REMARK    5  A    between atoms: C16_19  and  O2_20 
ROOT
HETATM    1  C3  UNL     1      26.907   1.193  53.320  1.00  0.00     0.262 C 
HETATM    2  C4  UNL     1      26.671   0.874  54.817  1.00  0.00     0.073 C 
HETATM    3  C5  UNL     1      26.006  -0.501  54.909  1.00  0.00     0.099 C 
HETATM    4  C6  UNL     1      24.748  -0.520  54.260  1.00  0.00    -0.102 C 
HETATM    5  C7  UNL     1      23.738  -0.518  53.748  1.00  0.00    -0.079 C 
HETATM    6  C8  UNL     1      22.482  -0.493  53.126  1.00  0.00     0.060 C 
HETATM    7  C9  UNL     1      21.628   0.482  53.120  1.00  0.00    -0.017 C 
HETATM    8  C10 UNL     1      20.384   1.172  52.798  1.00  0.00     0.035 C 
HETATM    9  C11 UNL     1      20.508   2.417  52.014  1.00  0.00     0.021 C 
HETATM   10  C12 UNL     1      21.543   2.964  51.406  1.00  0.00     0.124 C 
HETATM   11  N1  UNL     1      22.501   3.723  50.694  1.00  0.00    -0.301 N 
HETATM   12  C13 UNL     1      22.352   3.997  49.266  1.00  0.00     0.242 A 
HETATM   13  N2  UNL     1      23.365   4.814  48.735  1.00  0.00    -0.252 NA
HETATM   14  C18 UNL     1      24.399   5.320  49.295  1.00  0.00     0.240 A 
HETATM   15  N3  UNL     1      24.858   5.223  50.648  1.00  0.00    -0.186 NA
HETATM   16  S1  UNL     1      23.923   4.343  51.628  1.00  0.00     0.076 SA
HETATM   17  N4  UNL     1      24.790   3.169  52.734  1.00  0.00    -0.219 NA
HETATM   18  C19 UNL     1      25.152   1.991  51.976  1.00  0.00     0.274 C 
HETATM   19  O3  UNL     1      25.730   0.997  52.668  1.00  0.00    -0.347 OA
HETATM   20  H25 UNL     1      25.680   3.571  53.083  1.00  0.00     0.139 HD
ENDROOT
BRANCH  12  21
HETATM   21  C14 UNL     1      21.045   4.718  49.021  1.00  0.00     0.043 C 
HETATM   22  C15 UNL     1      20.175   4.343  48.074  1.00  0.00     0.035 C 
HETATM   23 CL1  UNL     1      18.642   5.169  47.770  1.00  0.00    -0.087 Cl
BRANCH  22  24
HETATM   24  C16 UNL     1      20.210   3.240  47.091  1.00  0.00     0.218 C 
BRANCH  24  25
HETATM   25  O2  UNL     1      20.561   3.774  45.841  1.00  0.00    -0.391 OA
HETATM   26  C17 UNL     1      21.918   3.608  45.582  1.00  0.00     0.201 C 
ENDBRANCH  24  25
ENDBRANCH  22  24
ENDBRANCH  12  21
BRANCH   1  27
HETATM   27  O1  UNL     1      27.844   0.236  52.829  1.00  0.00    -0.362 OA
BRANCH  27  28
HETATM   28  C2  UNL     1      29.077   0.455  53.445  1.00  0.00     0.166 C 
HETATM   29  C1  UNL     1      29.782  -0.892  53.567  1.00  0.00     0.033 C 
ENDBRANCH  27  28
ENDBRANCH   1  27
TORSDOF 5
ENDMDL
MODEL 2
REMARK VINA RESULT:      -7.2      1.521      2.025
REMARK  5 active torsions:
REMARK  status: ('A' for Active; 'I' for Inactive)
REMARK    1  A    between atoms: C2_2  and  O1_3 
REMARK    2  A    between atoms: O1_3  and  C3_4 
REMARK    3  A    between atoms: C13_15  and  C14_16 
REMARK    4  A    between atoms: C15_17  and  C16_19 
REMARK    5  A    between atoms: C16_19  and  O2_20 
ROOT
HETATM    1  C3  UNL     1      26.928   1.135  53.320  1.00  0.00     0.262 C 
HETATM    2  C4  UNL     1      26.702   0.848  54.825  1.00  0.00     0.073 C 
HETATM    3  C5  UNL     1      26.013  -0.512  54.950  1.00  0.00     0.099 C 
HETATM    4  C6  UNL     1      24.747  -0.520  54.315  1.00  0.00    -0.102 C 
HETATM    5  C7  UNL     1      23.732  -0.507  53.814  1.00  0.00    -0.079 C 
HETATM    6  C8  UNL     1      22.469  -0.470  53.206  1.00  0.00     0.060 C 
HETATM    7  C9  UNL     1      21.634   0.520  53.191  1.00  0.00    -0.017 C 
HETATM    8  C10 UNL     1      20.400   1.227  52.869  1.00  0.00     0.035 C 
HETATM    9  C11 UNL     1      20.538   2.454  52.060  1.00  0.00     0.021 C 
HETATM   10  C12 UNL     1      21.576   2.971  51.431  1.00  0.00     0.124 C 
HETATM   11  N1  UNL     1      22.541   3.697  50.694  1.00  0.00    -0.301 N 
HETATM   12  C13 UNL     1      22.380   3.947  49.263  1.00  0.00     0.242 A 
HETATM   13  N2  UNL     1      23.402   4.735  48.705  1.00  0.00    -0.252 NA
HETATM   14  C18 UNL     1      24.451   5.233  49.244  1.00  0.00     0.240 A 
HETATM   15  N3  UNL     1      24.924   5.152  50.594  1.00  0.00    -0.186 NA
HETATM   16  S1  UNL     1      23.983   4.308  51.600  1.00  0.00     0.076 SA
HETATM   17  N4  UNL     1      24.841   3.139  52.719  1.00  0.00    -0.219 NA
HETATM   18  C19 UNL     1      25.173   1.940  51.980  1.00  0.00     0.274 C 
HETATM   19  O3  UNL     1      25.740   0.949  52.684  1.00  0.00    -0.347 OA
HETATM   20  H25 UNL     1      25.742   3.531  53.051  1.00  0.00     0.139 HD
ENDROOT
BRANCH  12  21
HETATM   21  C14 UNL     1      21.085   4.689  49.019  1.00  0.00     0.043 C 
HETATM   22  C15 UNL     1      20.796   5.859  49.604  1.00  0.00     0.035 C 
HETATM   23 CL1  UNL     1      19.290   6.744  49.333  1.00  0.00    -0.087 Cl
BRANCH  22  24
HETATM   24  C16 UNL     1      21.558   6.694  50.556  1.00  0.00     0.218 C 
BRANCH  24  25
HETATM   25  O2  UNL     1      21.511   8.025  50.112  1.00  0.00    -0.391 OA
HETATM   26  C17 UNL     1      22.766   8.468  49.708  1.00  0.00     0.201 C 
ENDBRANCH  24  25
ENDBRANCH  22  24
ENDBRANCH  12  21
BRANCH   1  27
HETATM   27  O1  UNL     1      27.841   0.152  52.837  1.00  0.00    -0.362 OA
BRANCH  27  28
HETATM   28  C2  UNL     1      29.096   0.388  53.398  1.00  0.00     0.166 C 
HETATM   29  C1  UNL     1      29.794  -0.959  53.561  1.00  0.00     0.033 C 
ENDBRANCH  27  28
ENDBRANCH   1  27
TORSDOF 5
ENDMDL
MODEL 3
REMARK VINA RESULT:      -7.1      3.733      6.640
REMARK  5 active torsions:
REMARK  status: ('A' for Active; 'I' for Inactive)
REMARK    1  A    between atoms: C2_2  and  O1_3 
REMARK    2  A    between atoms: O1_3  and  C3_4 
REMARK    3  A    between atoms: C13_15  and  C14_16 
REMARK    4  A    between atoms: C15_17  and  C16_19 
REMARK    5  A    between atoms: C16_19  and  O2_20 
ROOT
HETATM    1  C3  UNL     1      19.904   1.947  51.272  1.00  0.00     0.262 C 
HETATM    2  C4  UNL     1      19.921   0.405  51.414  1.00  0.00     0.073 C 
HETATM    3  C5  UNL     1      20.477   0.063  52.799  1.00  0.00     0.099 C 
HETATM    4  C6  UNL     1      21.804   0.527  52.961  1.00  0.00    -0.102 C 
HETATM    5  C7  UNL     1      22.870   0.892  53.073  1.00  0.00    -0.079 C 
HETATM    6  C8  UNL     1      24.196   1.334  53.188  1.00  0.00     0.060 C 
HETATM    7  C9  UNL     1      25.106   1.337  52.265  1.00  0.00    -0.017 C 
HETATM    8  C10 UNL     1      26.424   1.563  51.684  1.00  0.00     0.035 C 
HETATM    9  C11 UNL     1      26.485   2.497  50.541  1.00  0.00     0.021 C 
HETATM   10  C12 UNL     1      25.577   3.300  50.023  1.00  0.00     0.124 C 
HETATM   11  N1  UNL     1      24.771   4.221  49.312  1.00  0.00    -0.301 N 
HETATM   12  C13 UNL     1      25.123   5.636  49.225  1.00  0.00     0.242 A 
HETATM   13  N2  UNL     1      24.244   6.393  48.431  1.00  0.00    -0.252 NA
HETATM   14  C18 UNL     1      23.182   6.043  47.808  1.00  0.00     0.240 A 
HETATM   15  N3  UNL     1      22.545   4.764  47.713  1.00  0.00    -0.186 NA
HETATM   16  S1  UNL     1      23.285   3.569  48.510  1.00  0.00     0.076 SA
HETATM   17  N4  UNL     1      22.205   2.464  49.493  1.00  0.00    -0.219 NA
HETATM   18  C19 UNL     1      21.868   3.121  50.736  1.00  0.00     0.274 C 
HETATM   19  O3  UNL     1      21.140   2.404  51.607  1.00  0.00    -0.347 OA
HETATM   20  H25 UNL     1      21.306   2.288  49.007  1.00  0.00     0.139 HD
ENDROOT
BRANCH  12  21
HETATM   21  C14 UNL     1      26.495   5.782  48.606  1.00  0.00     0.043 C 
HETATM   22  C15 UNL     1      27.241   6.887  48.744  1.00  0.00     0.035 C 
HETATM   23 CL1  UNL     1      28.847   7.081  48.031  1.00  0.00    -0.087 Cl
BRANCH  22  24
HETATM   24  C16 UNL     1      26.990   8.156  49.459  1.00  0.00     0.218 C 
BRANCH  24  25
HETATM   25  O2  UNL     1      28.185   8.893  49.483  1.00  0.00    -0.391 OA
HETATM   26  C17 UNL     1      27.953  10.243  49.247  1.00  0.00     0.201 C 
ENDBRANCH  24  25
ENDBRANCH  22  24
ENDBRANCH  12  21
BRANCH   1  27
HETATM   27  O1  UNL     1      18.977   2.447  52.235  1.00  0.00    -0.362 OA
BRANCH  27  28
HETATM   28  C2  UNL     1      17.805   2.822  51.579  1.00  0.00     0.166 C 
HETATM   29  C1  UNL     1      18.029   4.205  50.977  1.00  0.00     0.033 C 
ENDBRANCH  27  28
ENDBRANCH   1  27
TORSDOF 5
ENDMDL
MODEL 4
REMARK VINA RESULT:      -7.0      3.959      7.215
REMARK  5 active torsions:
REMARK  status: ('A' for Active; 'I' for Inactive)
REMARK    1  A    between atoms: C2_2  and  O1_3 
REMARK    2  A    between atoms: O1_3  and  C3_4 
REMARK    3  A    between atoms: C13_15  and  C14_16 
REMARK    4  A    between atoms: C15_17  and  C16_19 
REMARK    5  A    between atoms: C16_19  and  O2_20 
ROOT
HETATM    1  C3  UNL     1      27.627   7.485  48.743  1.00  0.00     0.262 C 
HETATM    2  C4  UNL     1      27.682   7.710  47.212  1.00  0.00     0.073 C 
HETATM    3  C5  UNL     1      26.484   8.578  46.818  1.00  0.00     0.099 C 
HETATM    4  C6  UNL     1      25.255   7.943  47.118  1.00  0.00    -0.102 C 
HETATM    5  C7  UNL     1      24.279   7.417  47.351  1.00  0.00    -0.079 C 
HETATM    6  C8  UNL     1      23.080   6.746  47.629  1.00  0.00     0.060 C 
HETATM    7  C9  UNL     1      22.845   5.477  47.511  1.00  0.00    -0.017 C 
HETATM    8  C10 UNL     1      22.061   4.249  47.570  1.00  0.00     0.035 C 
HETATM    9  C11 UNL     1      22.559   3.196  48.478  1.00  0.00     0.021 C 
HETATM   10  C12 UNL     1      23.520   3.207  49.381  1.00  0.00     0.124 C 
HETATM   11  N1  UNL     1      24.492   2.992  50.386  1.00  0.00    -0.301 N 
HETATM   12  C13 UNL     1      24.114   2.618  51.747  1.00  0.00     0.242 A 
HETATM   13  N2  UNL     1      25.209   2.388  52.598  1.00  0.00    -0.252 NA
HETATM   14  C18 UNL     1      26.466   2.485  52.375  1.00  0.00     0.240 A 
HETATM   15  N3  UNL     1      27.167   2.856  51.181  1.00  0.00    -0.186 NA
HETATM   16  S1  UNL     1      26.227   3.199  49.913  1.00  0.00     0.076 SA
HETATM   17  N4  UNL     1      26.674   4.696  48.958  1.00  0.00    -0.219 NA
HETATM   18  C19 UNL     1      26.195   5.864  49.663  1.00  0.00     0.274 C 
HETATM   19  O3  UNL     1      26.378   7.043  49.049  1.00  0.00    -0.347 OA
HETATM   20  H25 UNL     1      27.703   4.803  48.889  1.00  0.00     0.139 HD
ENDROOT
BRANCH  12  21
HETATM   21  C14 UNL     1      23.316   1.334  51.718  1.00  0.00     0.043 C 
HETATM   22  C15 UNL     1      22.008   1.286  52.006  1.00  0.00     0.035 C 
HETATM   23 CL1  UNL     1      21.053  -0.201  51.978  1.00  0.00    -0.087 Cl
BRANCH  22  24
HETATM   24  C16 UNL     1      21.049   2.342  52.394  1.00  0.00     0.218 C 
BRANCH  24  25
HETATM   25  O2  UNL     1      20.360   2.757  51.243  1.00  0.00    -0.391 OA
HETATM   26  C17 UNL     1      19.326   3.630  51.560  1.00  0.00     0.201 C 
ENDBRANCH  24  25
ENDBRANCH  22  24
ENDBRANCH  12  21
BRANCH   1  27
HETATM   27  O1  UNL     1      27.806   8.757  49.362  1.00  0.00    -0.362 OA
BRANCH  27  28
HETATM   28  C2  UNL     1      29.159   9.093  49.321  1.00  0.00     0.166 C 
HETATM   29  C1  UNL     1      29.261  10.572  48.960  1.00  0.00     0.033 C 
ENDBRANCH  27  28
ENDBRANCH   1  27
TORSDOF 5
ENDMDL
MODEL 5
REMARK VINA RESULT:      -7.0      3.176      5.496
REMARK  5 active torsions:
REMARK  status: ('A' for Active; 'I' for Inactive)
REMARK    1  A    between atoms: C2_2  and  O1_3 
REMARK    2  A    between atoms: O1_3  and  C3_4 
REMARK    3  A    between atoms: C13_15  and  C14_16 
REMARK    4  A    between atoms: C15_17  and  C16_19 
REMARK    5  A    between atoms: C16_19  and  O2_20 
ROOT
HETATM    1  C3  UNL     1      21.326   0.080  52.558  1.00  0.00     0.262 C 
HETATM    2  C4  UNL     1      22.260  -1.145  52.705  1.00  0.00     0.073 C 
HETATM    3  C5  UNL     1      23.286  -0.831  53.796  1.00  0.00     0.099 C 
HETATM    4  C6  UNL     1      24.088   0.286  53.457  1.00  0.00    -0.102 C 
HETATM    5  C7  UNL     1      24.730   1.172  53.167  1.00  0.00    -0.079 C 
HETATM    6  C8  UNL     1      25.529   2.259  52.785  1.00  0.00     0.060 C 
HETATM    7  C9  UNL     1      25.957   2.539  51.595  1.00  0.00    -0.017 C 
HETATM    8  C10 UNL     1      26.669   3.293  50.570  1.00  0.00     0.035 C 
HETATM    9  C11 UNL     1      25.850   3.843  49.471  1.00  0.00     0.021 C 
HETATM   10  C12 UNL     1      24.543   3.910  49.308  1.00  0.00     0.124 C 
HETATM   11  N1  UNL     1      23.192   4.086  48.927  1.00  0.00    -0.301 N 
HETATM   12  C13 UNL     1      22.629   5.415  48.699  1.00  0.00     0.242 A 
HETATM   13  N2  UNL     1      21.291   5.399  48.269  1.00  0.00    -0.252 NA
HETATM   14  C18 UNL     1      20.493   4.416  48.080  1.00  0.00     0.240 A 
HETATM   15  N3  UNL     1      20.707   3.008  48.242  1.00  0.00    -0.186 NA
HETATM   16  S1  UNL     1      22.189   2.592  48.731  1.00  0.00     0.076 SA
HETATM   17  N4  UNL     1      22.278   1.330  50.055  1.00  0.00    -0.219 NA
HETATM   18  C19 UNL     1      22.007   1.963  51.327  1.00  0.00     0.274 C 
HETATM   19  O3  UNL     1      22.112   1.181  52.412  1.00  0.00    -0.347 OA
HETATM   20  H25 UNL     1      21.546   0.605  49.932  1.00  0.00     0.139 HD
ENDROOT
BRANCH  12  21
HETATM   21  C14 UNL     1      23.418   6.123  47.620  1.00  0.00     0.043 C 
HETATM   22  C15 UNL     1      24.197   7.185  47.868  1.00  0.00     0.035 C 
HETATM   23 CL1  UNL     1      25.129   8.028  46.625  1.00  0.00    -0.087 Cl
BRANCH  22  24
HETATM   24  C16 UNL     1      24.496   7.911  49.120  1.00  0.00     0.218 C 
BRANCH  24  25
HETATM   25  O2  UNL     1      25.634   7.333  49.705  1.00  0.00    -0.391 OA
HETATM   26  C17 UNL     1      26.606   8.289  49.974  1.00  0.00     0.201 C 
ENDBRANCH  24  25
ENDBRANCH  22  24
ENDBRANCH  12  21
BRANCH   1  27
HETATM   27  O1  UNL     1      20.610   0.213  53.784  1.00  0.00    -0.362 OA
BRANCH  27  28
HETATM   28  C2  UNL     1      19.457  -0.570  53.721  1.00  0.00     0.166 C 
HETATM   29  C1  UNL     1      18.761  -0.267  52.397  1.00  0.00     0.033 C 
ENDBRANCH  27  28
ENDBRANCH   1  27
TORSDOF 5
ENDMDL
MODEL 6
REMARK VINA RESULT:      -6.8      4.044      5.265
REMARK  5 active torsions:
REMARK  status: ('A' for Active; 'I' for Inactive)
REMARK    1  A    between atoms: C2_2  and  O1_3 
REMARK    2  A    between atoms: O1_3  and  C3_4 
REMARK    3  A    between atoms: C13_15  and  C14_16 
REMARK    4  A    between atoms: C15_17  and  C16_19 
REMARK    5  A    between atoms: C16_19  and  O2_20 
ROOT
HETATM    1  C3  UNL     1      24.076   2.999  51.595  1.00  0.00     0.262 C 
HETATM    2  C4  UNL     1      24.723   3.031  53.001  1.00  0.00     0.073 C 
HETATM    3  C5  UNL     1      25.381   1.672  53.252  1.00  0.00     0.099 C 
HETATM    4  C6  UNL     1      24.433   0.620  53.236  1.00  0.00    -0.102 C 
HETATM    5  C7  UNL     1      23.663  -0.210  53.234  1.00  0.00    -0.079 C 
HETATM    6  C8  UNL     1      22.694  -1.224  53.247  1.00  0.00     0.060 C 
HETATM    7  C9  UNL     1      21.489  -1.152  53.716  1.00  0.00    -0.017 C 
HETATM    8  C10 UNL     1      20.151  -1.626  54.052  1.00  0.00     0.035 C 
HETATM    9  C11 UNL     1      19.024  -0.914  53.417  1.00  0.00     0.021 C 
HETATM   10  C12 UNL     1      18.995  -0.002  52.465  1.00  0.00     0.124 C 
HETATM   11  N1  UNL     1      18.729   0.972  51.474  1.00  0.00    -0.301 N 
HETATM   12  C13 UNL     1      17.918   0.664  50.298  1.00  0.00     0.242 A 
HETATM   13  N2  UNL     1      17.708   1.764  49.449  1.00  0.00    -0.252 NA
HETATM   14  C18 UNL     1      18.137   2.967  49.531  1.00  0.00     0.240 A 
HETATM   15  N3  UNL     1      18.970   3.587  50.519  1.00  0.00    -0.186 NA
HETATM   16  S1  UNL     1      19.435   2.619  51.726  1.00  0.00     0.076 SA
HETATM   17  N4  UNL     1      21.199   2.723  52.209  1.00  0.00    -0.219 NA
HETATM   18  C19 UNL     1      21.990   1.968  51.262  1.00  0.00     0.274 C 
HETATM   19  O3  UNL     1      23.303   1.882  51.525  1.00  0.00    -0.347 OA
HETATM   20  H25 UNL     1      21.544   3.699  52.160  1.00  0.00     0.139 HD
ENDROOT
BRANCH  12  21
HETATM   21  C14 UNL     1      16.550   0.189  50.734  1.00  0.00     0.043 C 
HETATM   22  C15 UNL     1      15.729  -0.498  49.928  1.00  0.00     0.035 C 
HETATM   23 CL1  UNL     1      14.127  -1.064  50.414  1.00  0.00    -0.087 Cl
BRANCH  22  24
HETATM   24  C16 UNL     1      15.882  -0.955  48.531  1.00  0.00     0.218 C 
BRANCH  24  25
HETATM   25  O2  UNL     1      14.953  -1.982  48.298  1.00  0.00    -0.391 OA
HETATM   26  C17 UNL     1      15.524  -3.029  47.583  1.00  0.00     0.201 C 
ENDBRANCH  24  25
ENDBRANCH  22  24
ENDBRANCH  12  21
BRANCH   1  27
HETATM   27  O1  UNL     1      25.133   2.860  50.649  1.00  0.00    -0.362 OA
BRANCH  27  28
HETATM   28  C2  UNL     1      25.453   4.120  50.142  1.00  0.00     0.166 C 
HETATM   29  C1  UNL     1      26.768   3.995  49.378  1.00  0.00     0.033 C 
ENDBRANCH  27  28
ENDBRANCH   1  27
TORSDOF 5
ENDMDL
MODEL 7
REMARK VINA RESULT:      -6.6      4.424      7.498
REMARK  5 active torsions:
REMARK  status: ('A' for Active; 'I' for Inactive)
REMARK    1  A    between atoms: C2_2  and  O1_3 
REMARK    2  A    between atoms: O1_3  and  C3_4 
REMARK    3  A    between atoms: C13_15  and  C14_16 
REMARK    4  A    between atoms: C15_17  and  C16_19 
REMARK    5  A    between atoms: C16_19  and  O2_20 
ROOT
HETATM    1  C3  UNL     1      26.721   9.930  49.247  1.00  0.00     0.262 C 
HETATM    2  C4  UNL     1      28.082   9.824  49.978  1.00  0.00     0.073 C 
HETATM    3  C5  UNL     1      29.073   9.134  49.038  1.00  0.00     0.099 C 
HETATM    4  C6  UNL     1      28.655   7.821  48.707  1.00  0.00    -0.102 C 
HETATM    5  C7  UNL     1      28.316   6.769  48.462  1.00  0.00    -0.079 C 
HETATM    6  C8  UNL     1      27.892   5.462  48.184  1.00  0.00     0.060 C 
HETATM    7  C9  UNL     1      27.306   4.638  48.993  1.00  0.00    -0.017 C 
HETATM    8  C10 UNL     1      26.682   3.388  49.413  1.00  0.00     0.035 C 
HETATM    9  C11 UNL     1      25.275   3.473  49.855  1.00  0.00     0.021 C 
HETATM   10  C12 UNL     1      24.404   4.462  49.803  1.00  0.00     0.124 C 
HETATM   11  N1  UNL     1      23.321   5.371  49.853  1.00  0.00    -0.301 N 
HETATM   12  C13 UNL     1      22.063   5.099  49.162  1.00  0.00     0.242 A 
HETATM   13  N2  UNL     1      21.078   6.080  49.367  1.00  0.00    -0.252 NA
HETATM   14  C18 UNL     1      21.124   7.174  50.031  1.00  0.00     0.240 A 
HETATM   15  N3  UNL     1      22.197   7.753  50.785  1.00  0.00    -0.186 NA
HETATM   16  S1  UNL     1      23.560   6.888  50.812  1.00  0.00     0.076 SA
HETATM   17  N4  UNL     1      25.114   7.822  50.551  1.00  0.00    -0.219 NA
HETATM   18  C19 UNL     1      25.275   8.081  49.138  1.00  0.00     0.274 C 
HETATM   19  O3  UNL     1      26.412   8.694  48.774  1.00  0.00    -0.347 OA
HETATM   20  H25 UNL     1      25.076   8.750  51.012  1.00  0.00     0.139 HD
ENDROOT
BRANCH  12  21
HETATM   21  C14 UNL     1      21.481   3.795  49.661  1.00  0.00     0.043 C 
HETATM   22  C15 UNL     1      21.467   2.677  48.923  1.00  0.00     0.035 C 
HETATM   23 CL1  UNL     1      20.794   1.142  49.485  1.00  0.00    -0.087 Cl
BRANCH  22  24
HETATM   24  C16 UNL     1      21.957   2.396  47.557  1.00  0.00     0.218 C 
BRANCH  24  25
HETATM   25  O2  UNL     1      21.110   3.042  46.643  1.00  0.00    -0.391 OA
HETATM   26  C17 UNL     1      21.837   3.755  45.696  1.00  0.00     0.201 C 
ENDBRANCH  24  25
ENDBRANCH  22  24
ENDBRANCH  12  21
BRANCH   1  27
HETATM   27  O1  UNL     1      26.912  10.793  48.127  1.00  0.00    -0.362 OA
BRANCH  27  28
HETATM   28  C2  UNL     1      25.875  11.725  48.094  1.00  0.00     0.166 C 
HETATM   29  C1  UNL     1      26.500  13.117  48.064  1.00  0.00     0.033 C 
ENDBRANCH  27  28
ENDBRANCH   1  27
TORSDOF 5
ENDMDL
MODEL 8
REMARK VINA RESULT:      -6.6      3.723      6.866
REMARK  5 active torsions:
REMARK  status: ('A' for Active; 'I' for Inactive)
REMARK    1  A    between atoms: C2_2  and  O1_3 
REMARK    2  A    between atoms: O1_3  and  C3_4 
REMARK    3  A    between atoms: C13_15  and  C14_16 
REMARK    4  A    between atoms: C15_17  and  C16_19 
REMARK    5  A    between atoms: C16_19  and  O2_20 
ROOT
HETATM    1  C3  UNL     1      25.232   7.514  48.240  1.00  0.00     0.262 C 
HETATM    2  C4  UNL     1      26.628   7.885  48.796  1.00  0.00     0.073 C 
HETATM    3  C5  UNL     1      27.645   6.896  48.224  1.00  0.00     0.099 C 
HETATM    4  C6  UNL     1      27.363   5.565  48.618  1.00  0.00    -0.102 C 
HETATM    5  C7  UNL     1      27.132   4.508  48.952  1.00  0.00    -0.079 C 
HETATM    6  C8  UNL     1      26.845   3.207  49.389  1.00  0.00     0.060 C 
HETATM    7  C9  UNL     1      26.392   2.851  50.550  1.00  0.00    -0.017 C 
HETATM    8  C10 UNL     1      25.932   1.932  51.583  1.00  0.00     0.035 C 
HETATM    9  C11 UNL     1      24.546   2.119  52.059  1.00  0.00     0.021 C 
HETATM   10  C12 UNL     1      23.568   2.885  51.614  1.00  0.00     0.124 C 
HETATM   11  N1  UNL     1      22.394   3.615  51.316  1.00  0.00    -0.301 N 
HETATM   12  C13 UNL     1      21.144   2.944  50.970  1.00  0.00     0.242 A 
HETATM   13  N2  UNL     1      20.066   3.821  50.762  1.00  0.00    -0.252 NA
HETATM   14  C18 UNL     1      20.020   5.100  50.799  1.00  0.00     0.240 A 
HETATM   15  N3  UNL     1      21.054   6.055  51.068  1.00  0.00    -0.186 NA
HETATM   16  S1  UNL     1      22.506   5.421  51.384  1.00  0.00     0.076 SA
HETATM   17  N4  UNL     1      23.932   6.215  50.554  1.00  0.00    -0.219 NA
HETATM   18  C19 UNL     1      23.997   5.752  49.186  1.00  0.00     0.274 C 
HETATM   19  O3  UNL     1      25.041   6.186  48.463  1.00  0.00    -0.347 OA
HETATM   20  H25 UNL     1      23.811   7.244  50.504  1.00  0.00     0.139 HD
ENDROOT
BRANCH  12  21
HETATM   21  C14 UNL     1      20.735   2.019  52.094  1.00  0.00     0.043 C 
HETATM   22  C15 UNL     1      19.997   0.918  51.898  1.00  0.00     0.035 C 
HETATM   23 CL1  UNL     1      19.508  -0.178  53.195  1.00  0.00    -0.087 Cl
BRANCH  22  24
HETATM   24  C16 UNL     1      19.422   0.329  50.670  1.00  0.00     0.218 C 
BRANCH  24  25
HETATM   25  O2  UNL     1      18.133  -0.142  50.968  1.00  0.00    -0.391 OA
HETATM   26  C17 UNL     1      17.155   0.709  50.465  1.00  0.00     0.201 C 
ENDBRANCH  24  25
ENDBRANCH  22  24
ENDBRANCH  12  21
BRANCH   1  27
HETATM   27  O1  UNL     1      25.273   7.719  46.829  1.00  0.00    -0.362 OA
BRANCH  27  28
HETATM   28  C2  UNL     1      24.937   9.045  46.557  1.00  0.00     0.166 C 
HETATM   29  C1  UNL     1      23.516   9.279  47.063  1.00  0.00     0.033 C 
ENDBRANCH  27  28
ENDBRANCH   1  27
TORSDOF 5
ENDMDL
MODEL 9
REMARK VINA RESULT:      -6.6      3.864      7.123
REMARK  5 active torsions:
REMARK  status: ('A' for Active; 'I' for Inactive)
REMARK    1  A    between atoms: C2_2  and  O1_3 
REMARK    2  A    between atoms: O1_3  and  C3_4 
REMARK    3  A    between atoms: C13_15  and  C14_16 
REMARK    4  A    between atoms: C15_17  and  C16_19 
REMARK    5  A    between atoms: C16_19  and  O2_20 
ROOT
HETATM    1  C3  UNL     1      17.523   1.174  49.925  1.00  0.00     0.262 C 
HETATM    2  C4  UNL     1      17.372  -0.313  50.327  1.00  0.00     0.073 C 
HETATM    3  C5  UNL     1      17.414  -0.399  51.855  1.00  0.00     0.099 C 
HETATM    4  C6  UNL     1      18.648   0.066  52.372  1.00  0.00    -0.102 C 
HETATM    5  C7  UNL     1      19.644   0.427  52.771  1.00  0.00    -0.079 C 
HETATM    6  C8  UNL     1      20.889   0.861  53.248  1.00  0.00     0.060 C 
HETATM    7  C9  UNL     1      22.048   0.674  52.699  1.00  0.00    -0.017 C 
HETATM    8  C10 UNL     1      23.497   0.766  52.565  1.00  0.00     0.035 C 
HETATM    9  C11 UNL     1      24.002   1.467  51.368  1.00  0.00     0.021 C 
HETATM   10  C12 UNL     1      23.381   2.174  50.444  1.00  0.00     0.124 C 
HETATM   11  N1  UNL     1      22.927   2.958  49.357  1.00  0.00    -0.301 N 
HETATM   12  C13 UNL     1      23.398   4.325  49.153  1.00  0.00     0.242 A 
HETATM   13  N2  UNL     1      22.890   4.934  47.992  1.00  0.00    -0.252 NA
HETATM   14  C18 UNL     1      22.067   4.491  47.117  1.00  0.00     0.240 A 
HETATM   15  N3  UNL     1      21.397   3.227  47.035  1.00  0.00    -0.186 NA
HETATM   16  S1  UNL     1      21.739   2.192  48.227  1.00  0.00     0.076 SA
HETATM   17  N4  UNL     1      20.313   1.309  48.963  1.00  0.00    -0.219 NA
HETATM   18  C19 UNL     1      19.640   2.194  49.888  1.00  0.00     0.274 C 
HETATM   19  O3  UNL     1      18.614   1.665  50.572  1.00  0.00    -0.347 OA
HETATM   20  H25 UNL     1      19.612   1.060  48.241  1.00  0.00     0.139 HD
ENDROOT
BRANCH  12  21
HETATM   21  C14 UNL     1      24.904   4.329  49.016  1.00  0.00     0.043 C 
HETATM   22  C15 UNL     1      25.635   5.451  49.064  1.00  0.00     0.035 C 
HETATM   23 CL1  UNL     1      27.396   5.481  48.908  1.00  0.00    -0.087 Cl
BRANCH  22  24
HETATM   24  C16 UNL     1      25.249   6.867  49.246  1.00  0.00     0.218 C 
BRANCH  24  25
HETATM   25  O2  UNL     1      25.069   7.102  50.618  1.00  0.00    -0.391 OA
HETATM   26  C17 UNL     1      23.865   7.752  50.866  1.00  0.00     0.201 C 
ENDBRANCH  24  25
ENDBRANCH  22  24
ENDBRANCH  12  21
BRANCH   1  27
HETATM   27  O1  UNL     1      16.375   1.862  50.419  1.00  0.00    -0.362 OA
BRANCH  27  28
HETATM   28  C2  UNL     1      16.023   2.861  49.512  1.00  0.00     0.166 C 
HETATM   29  C1  UNL     1      15.542   2.182  48.234  1.00  0.00     0.033 C 
ENDBRANCH  27  28
ENDBRANCH   1  27
TORSDOF 5
ENDMDL
