MODEL 1
REMARK VINA RESULT:      -8.5      0.000      0.000
REMARK  4 active torsions:
REMARK  status: ('A' for Active; 'I' for Inactive)
REMARK    1  A    between atoms: C13_17  and  N3_18 
REMARK    2  A    between atoms: N3_18  and  C14_19 
REMARK    3  A    between atoms: C18_23  and  O2_24 
REMARK    4  A    between atoms: O2_24  and  N4_25 
ROOT
HETATM    1  C1  UNL     1      20.574   4.696  49.711  1.00  0.00     0.161 C 
HETATM    2  N1  UNL     1      21.955   4.871  49.505  1.00  0.00    -0.306 N 
HETATM    3  C2  UNL     1      22.896   5.957  49.270  1.00  0.00     0.260 C 
HETATM    4  O1  UNL     1      22.410   7.081  49.094  1.00  0.00    -0.267 OA
HETATM    5  C3  UNL     1      24.360   5.673  49.253  1.00  0.00     0.048 C 
HETATM    6  C4  UNL     1      25.480   6.491  49.152  1.00  0.00     0.002 A 
HETATM    7  C5  UNL     1      26.608   6.306  48.400  1.00  0.00     0.014 A 
HETATM    8  C6  UNL     1      27.622   7.227  48.462  1.00  0.00     0.001 A 
HETATM    9  C7  UNL     1      27.596   8.360  49.245  1.00  0.00     0.002 A 
HETATM   10  C8  UNL     1      26.447   8.553  50.012  1.00  0.00     0.024 A 
HETATM   11  C9  UNL     1      25.415   7.632  49.959  1.00  0.00     0.045 A 
HETATM   12 CL1  UNL     1      24.110   8.136  51.047  1.00  0.00    -0.083 Cl
HETATM   13  C10 UNL     1      24.589   4.406  49.453  1.00  0.00    -0.034 C 
HETATM   14  C11 UNL     1      23.762   3.393  48.608  1.00  0.00     0.115 C 
HETATM   15  C12 UNL     1      22.664   3.668  49.677  1.00  0.00     0.109 C 
HETATM   16  N2  UNL     1      22.858   2.715  50.500  1.00  0.00    -0.249 NA
HETATM   17  C13 UNL     1      24.263   2.568  51.023  1.00  0.00     0.230 C 
HETATM   18  C20 UNL     1      25.293   3.515  50.376  1.00  0.00     0.157 C 
HETATM   19 CL2  UNL     1      26.451   2.558  49.433  1.00  0.00    -0.116 Cl
ENDROOT
BRANCH  17  20
HETATM   20  N3  UNL     1      24.290   2.610  52.431  1.00  0.00    -0.366 N 
HETATM   21  H11 UNL     1      23.692   3.300  52.895  1.00  0.00     0.162 HD
BRANCH  20  22
HETATM   22  C14 UNL     1      25.115   1.732  53.185  1.00  0.00     0.032 A 
HETATM   23  C15 UNL     1      24.625   0.509  53.579  1.00  0.00     0.029 A 
HETATM   24  C16 UNL     1      25.301  -0.465  54.318  1.00  0.00     0.005 A 
HETATM   25  C17 UNL     1      26.605  -0.106  54.663  1.00  0.00     0.039 A 
HETATM   26  C18 UNL     1      27.119   1.111  54.281  1.00  0.00     0.094 A 
HETATM   27  C19 UNL     1      26.400   2.039  53.548  1.00  0.00     0.067 A 
BRANCH  26  28
HETATM   28  O2  UNL     1      28.434   1.369  54.680  1.00  0.00    -0.267 OA
BRANCH  28  29
HETATM   29  N4  UNL     1      29.185   2.424  54.241  1.00  0.00    -0.209 NA
HETATM   30  H15 UNL     1      28.752   2.949  53.468  1.00  0.00     0.150 HD
HETATM   31  H16 UNL     1      29.569   3.001  55.008  1.00  0.00     0.150 HD
ENDBRANCH  28  29
ENDBRANCH  26  28
ENDBRANCH  20  22
ENDBRANCH  17  20
TORSDOF 4
ENDMDL
MODEL 2
REMARK VINA RESULT:      -8.5      1.710      1.967
REMARK  4 active torsions:
REMARK  status: ('A' for Active; 'I' for Inactive)
REMARK    1  A    between atoms: C13_17  and  N3_18 
REMARK    2  A    between atoms: N3_18  and  C14_19 
REMARK    3  A    between atoms: C18_23  and  O2_24 
REMARK    4  A    between atoms: O2_24  and  N4_25 
ROOT
HETATM    1  C1  UNL     1      21.174   4.114  51.156  1.00  0.00     0.161 C 
HETATM    2  N1  UNL     1      22.423   4.417  50.584  1.00  0.00    -0.306 N 
HETATM    3  C2  UNL     1      23.183   5.591  50.181  1.00  0.00     0.260 C 
HETATM    4  O1  UNL     1      22.596   6.678  50.240  1.00  0.00    -0.267 OA
HETATM    5  C3  UNL     1      24.597   5.435  49.729  1.00  0.00     0.048 C 
HETATM    6  C4  UNL     1      25.584   6.350  49.382  1.00  0.00     0.002 A 
HETATM    7  C5  UNL     1      26.458   6.306  48.330  1.00  0.00     0.014 A 
HETATM    8  C6  UNL     1      27.384   7.305  48.177  1.00  0.00     0.001 A 
HETATM    9  C7  UNL     1      27.511   8.384  49.023  1.00  0.00     0.002 A 
HETATM   10  C8  UNL     1      26.621   8.433  50.097  1.00  0.00     0.024 A 
HETATM   11  C9  UNL     1      25.680   7.432  50.264  1.00  0.00     0.045 A 
HETATM   12 CL1  UNL     1      24.713   7.759  51.712  1.00  0.00    -0.083 Cl
HETATM   13  C10 UNL     1      24.955   4.182  49.754  1.00  0.00    -0.034 C 
HETATM   14  C11 UNL     1      23.988   3.153  49.097  1.00  0.00     0.115 C 
HETATM   15  C12 UNL     1      23.228   3.271  50.452  1.00  0.00     0.109 C 
HETATM   16  N2  UNL     1      23.713   2.291  51.107  1.00  0.00    -0.249 NA
HETATM   17  C13 UNL     1      25.215   2.235  51.199  1.00  0.00     0.230 C 
HETATM   18  C20 UNL     1      25.951   3.302  50.366  1.00  0.00     0.157 C 
HETATM   19 CL2  UNL     1      26.849   2.505  49.061  1.00  0.00    -0.116 Cl
ENDROOT
BRANCH  17  20
HETATM   20  N3  UNL     1      25.643   2.197  52.541  1.00  0.00    -0.366 N 
HETATM   21  H11 UNL     1      25.224   2.870  53.190  1.00  0.00     0.162 HD
BRANCH  20  22
HETATM   22  C14 UNL     1      26.620   1.264  52.983  1.00  0.00     0.032 A 
HETATM   23  C15 UNL     1      27.751   1.715  53.621  1.00  0.00     0.029 A 
HETATM   24  C16 UNL     1      28.799   0.936  54.116  1.00  0.00     0.005 A 
HETATM   25  C17 UNL     1      28.626  -0.435  53.915  1.00  0.00     0.039 A 
HETATM   26  C18 UNL     1      27.504  -0.912  53.280  1.00  0.00     0.094 A 
HETATM   27  C19 UNL     1      26.495  -0.090  52.809  1.00  0.00     0.067 A 
BRANCH  26  28
HETATM   28  O2  UNL     1      27.432  -2.300  53.131  1.00  0.00    -0.267 OA
BRANCH  28  29
HETATM   29  N4  UNL     1      28.516  -3.120  52.979  1.00  0.00    -0.209 NA
HETATM   30  H15 UNL     1      28.443  -3.762  52.177  1.00  0.00     0.150 HD
HETATM   31  H16 UNL     1      29.420  -2.626  53.069  1.00  0.00     0.150 HD
ENDBRANCH  28  29
ENDBRANCH  26  28
ENDBRANCH  20  22
ENDBRANCH  17  20
TORSDOF 4
ENDMDL
MODEL 3
REMARK VINA RESULT:      -8.3      3.165      5.436
REMARK  4 active torsions:
REMARK  status: ('A' for Active; 'I' for Inactive)
REMARK    1  A    between atoms: C13_17  and  N3_18 
REMARK    2  A    between atoms: N3_18  and  C14_19 
REMARK    3  A    between atoms: C18_23  and  O2_24 
REMARK    4  A    between atoms: O2_24  and  N4_25 
ROOT
HETATM    1  C1  UNL     1      23.807   5.317  48.002  1.00  0.00     0.161 C 
HETATM    2  N1  UNL     1      23.303   4.640  49.128  1.00  0.00    -0.306 N 
HETATM    3  C2  UNL     1      22.146   3.836  49.492  1.00  0.00     0.260 C 
HETATM    4  O1  UNL     1      21.244   3.749  48.649  1.00  0.00    -0.267 OA
HETATM    5  C3  UNL     1      22.099   3.173  50.828  1.00  0.00     0.048 C 
HETATM    6  C4  UNL     1      21.199   2.289  51.413  1.00  0.00     0.002 A 
HETATM    7  C5  UNL     1      20.698   2.298  52.686  1.00  0.00     0.014 A 
HETATM    8  C6  UNL     1      19.833   1.310  53.080  1.00  0.00     0.001 A 
HETATM    9  C7  UNL     1      19.414   0.276  52.272  1.00  0.00     0.002 A 
HETATM   10  C8  UNL     1      19.922   0.264  50.973  1.00  0.00     0.024 A 
HETATM   11  C9  UNL     1      20.796   1.255  50.561  1.00  0.00     0.045 A 
HETATM   12 CL1  UNL     1      21.278   0.963  48.881  1.00  0.00    -0.083 Cl
HETATM   13  C10 UNL     1      23.171   3.443  51.516  1.00  0.00    -0.034 C 
HETATM   14  C11 UNL     1      23.609   4.935  51.593  1.00  0.00     0.115 C 
HETATM   15  C12 UNL     1      24.223   4.642  50.192  1.00  0.00     0.109 C 
HETATM   16  N2  UNL     1      25.426   4.347  50.493  1.00  0.00    -0.249 NA
HETATM   17  C13 UNL     1      25.604   3.267  51.527  1.00  0.00     0.230 C 
HETATM   18  C20 UNL     1      24.295   2.772  52.172  1.00  0.00     0.157 C 
HETATM   19 CL2  UNL     1      24.279   3.231  53.885  1.00  0.00    -0.116 Cl
ENDROOT
BRANCH  17  20
HETATM   20  N3  UNL     1      26.403   2.216  51.036  1.00  0.00    -0.366 N 
HETATM   21  H11 UNL     1      26.506   2.136  50.020  1.00  0.00     0.162 HD
BRANCH  20  22
HETATM   22  C14 UNL     1      27.044   1.298  51.912  1.00  0.00     0.032 A 
HETATM   23  C15 UNL     1      27.964   1.758  52.824  1.00  0.00     0.029 A 
HETATM   24  C16 UNL     1      28.677   0.994  53.751  1.00  0.00     0.005 A 
HETATM   25  C17 UNL     1      28.385  -0.370  53.700  1.00  0.00     0.039 A 
HETATM   26  C18 UNL     1      27.469  -0.856  52.797  1.00  0.00     0.094 A 
HETATM   27  C19 UNL     1      26.791  -0.049  51.900  1.00  0.00     0.067 A 
BRANCH  26  28
HETATM   28  O2  UNL     1      27.253  -2.236  52.832  1.00  0.00    -0.267 OA
BRANCH  28  29
HETATM   29  N4  UNL     1      28.245  -3.175  52.883  1.00  0.00    -0.209 NA
HETATM   30  H15 UNL     1      28.597  -3.357  53.833  1.00  0.00     0.150 HD
HETATM   31  H16 UNL     1      28.043  -4.017  52.317  1.00  0.00     0.150 HD
ENDBRANCH  28  29
ENDBRANCH  26  28
ENDBRANCH  20  22
ENDBRANCH  17  20
TORSDOF 4
ENDMDL
MODEL 4
REMARK VINA RESULT:      -8.1      1.953      2.401
REMARK  4 active torsions:
REMARK  status: ('A' for Active; 'I' for Inactive)
REMARK    1  A    between atoms: C13_17  and  N3_18 
REMARK    2  A    between atoms: N3_18  and  C14_19 
REMARK    3  A    between atoms: C18_23  and  O2_24 
REMARK    4  A    between atoms: O2_24  and  N4_25 
ROOT
HETATM    1  C1  UNL     1      19.849   2.969  48.138  1.00  0.00     0.161 C 
HETATM    2  N1  UNL     1      21.108   3.484  48.500  1.00  0.00    -0.306 N 
HETATM    3  C2  UNL     1      21.776   4.774  48.589  1.00  0.00     0.260 C 
HETATM    4  O1  UNL     1      21.157   5.750  48.147  1.00  0.00    -0.267 OA
HETATM    5  C3  UNL     1      23.138   4.859  49.193  1.00  0.00     0.048 C 
HETATM    6  C4  UNL     1      23.972   5.930  49.496  1.00  0.00     0.002 A 
HETATM    7  C5  UNL     1      25.318   6.050  49.286  1.00  0.00     0.014 A 
HETATM    8  C6  UNL     1      25.967   7.190  49.687  1.00  0.00     0.001 A 
HETATM    9  C7  UNL     1      25.353   8.257  50.303  1.00  0.00     0.002 A 
HETATM   10  C8  UNL     1      23.980   8.139  50.518  1.00  0.00     0.024 A 
HETATM   11  C9  UNL     1      23.311   6.995  50.119  1.00  0.00     0.045 A 
HETATM   12 CL1  UNL     1      21.595   7.130  50.538  1.00  0.00    -0.083 Cl
HETATM   13  C10 UNL     1      23.555   3.682  49.563  1.00  0.00    -0.034 C 
HETATM   14  C11 UNL     1      23.417   2.522  48.533  1.00  0.00     0.115 C 
HETATM   15  C12 UNL     1      21.944   2.487  49.037  1.00  0.00     0.109 C 
HETATM   16  N2  UNL     1      21.999   1.586  49.936  1.00  0.00    -0.249 NA
HETATM   17  C13 UNL     1      23.052   1.774  50.997  1.00  0.00     0.230 C 
HETATM   18  C20 UNL     1      24.002   2.963  50.757  1.00  0.00     0.157 C 
HETATM   19 CL2  UNL     1      25.636   2.350  50.443  1.00  0.00    -0.116 Cl
ENDROOT
BRANCH  17  20
HETATM   20  N3  UNL     1      22.484   1.778  52.286  1.00  0.00    -0.366 N 
HETATM   21  H11 UNL     1      21.850   2.548  52.520  1.00  0.00     0.162 HD
BRANCH  20  22
HETATM   22  C14 UNL     1      22.775   0.757  53.231  1.00  0.00     0.032 A 
HETATM   23  C15 UNL     1      21.749   0.151  53.916  1.00  0.00     0.029 A 
HETATM   24  C16 UNL     1      21.863  -0.863  54.869  1.00  0.00     0.005 A 
HETATM   25  C17 UNL     1      23.178  -1.262  55.112  1.00  0.00     0.039 A 
HETATM   26  C18 UNL     1      24.223  -0.673  54.440  1.00  0.00     0.094 A 
HETATM   27  C19 UNL     1      24.049   0.331  53.503  1.00  0.00     0.067 A 
BRANCH  26  28
HETATM   28  O2  UNL     1      25.498  -1.148  54.759  1.00  0.00    -0.267 OA
BRANCH  28  29
HETATM   29  N4  UNL     1      26.579  -0.353  55.022  1.00  0.00    -0.209 NA
HETATM   30  H15 UNL     1      27.439  -0.646  54.537  1.00  0.00     0.150 HD
HETATM   31  H16 UNL     1      26.366   0.658  54.974  1.00  0.00     0.150 HD
ENDBRANCH  28  29
ENDBRANCH  26  28
ENDBRANCH  20  22
ENDBRANCH  17  20
TORSDOF 4
ENDMDL
MODEL 5
REMARK VINA RESULT:      -8.1      6.562      9.575
REMARK  4 active torsions:
REMARK  status: ('A' for Active; 'I' for Inactive)
REMARK    1  A    between atoms: C13_17  and  N3_18 
REMARK    2  A    between atoms: N3_18  and  C14_19 
REMARK    3  A    between atoms: C18_23  and  O2_24 
REMARK    4  A    between atoms: O2_24  and  N4_25 
ROOT
HETATM    1  C1  UNL     1      33.416   2.584  47.768  1.00  0.00     0.161 C 
HETATM    2  N1  UNL     1      33.476   3.919  47.325  1.00  0.00    -0.306 N 
HETATM    3  C2  UNL     1      33.989   4.671  46.191  1.00  0.00     0.260 C 
HETATM    4  O1  UNL     1      34.669   4.042  45.371  1.00  0.00    -0.267 OA
HETATM    5  C3  UNL     1      33.682   6.126  46.071  1.00  0.00     0.048 C 
HETATM    6  C4  UNL     1      33.942   7.069  45.081  1.00  0.00     0.002 A 
HETATM    7  C5  UNL     1      34.386   8.354  45.222  1.00  0.00     0.014 A 
HETATM    8  C6  UNL     1      34.555   9.138  44.110  1.00  0.00     0.001 A 
HETATM    9  C7  UNL     1      34.305   8.723  42.821  1.00  0.00     0.002 A 
HETATM   10  C8  UNL     1      33.853   7.411  42.673  1.00  0.00     0.024 A 
HETATM   11  C9  UNL     1      33.678   6.608  43.786  1.00  0.00     0.045 A 
HETATM   12 CL1  UNL     1      33.082   5.017  43.285  1.00  0.00    -0.083 Cl
HETATM   13  C10 UNL     1      32.959   6.531  47.076  1.00  0.00    -0.034 C 
HETATM   14  C11 UNL     1      33.436   6.126  48.502  1.00  0.00     0.115 C 
HETATM   15  C12 UNL     1      32.736   4.777  48.159  1.00  0.00     0.109 C 
HETATM   16  N2  UNL     1      31.581   4.948  48.671  1.00  0.00    -0.249 NA
HETATM   17  C13 UNL     1      30.848   6.194  48.250  1.00  0.00     0.230 C 
HETATM   18  C20 UNL     1      31.666   7.154  47.363  1.00  0.00     0.157 C 
HETATM   19 CL2  UNL     1      31.971   8.655  48.257  1.00  0.00    -0.116 Cl
ENDROOT
BRANCH  17  20
HETATM   20  N3  UNL     1      29.587   5.886  47.703  1.00  0.00    -0.366 N 
HETATM   21  H11 UNL     1      29.570   5.353  46.828  1.00  0.00     0.162 HD
BRANCH  20  22
HETATM   22  C14 UNL     1      28.382   6.295  48.335  1.00  0.00     0.032 A 
HETATM   23  C15 UNL     1      27.381   5.377  48.550  1.00  0.00     0.029 A 
HETATM   24  C16 UNL     1      26.145   5.614  49.155  1.00  0.00     0.005 A 
HETATM   25  C17 UNL     1      25.962   6.936  49.565  1.00  0.00     0.039 A 
HETATM   26  C18 UNL     1      26.948   7.873  49.363  1.00  0.00     0.094 A 
HETATM   27  C19 UNL     1      28.156   7.579  48.755  1.00  0.00     0.067 A 
BRANCH  26  28
HETATM   28  O2  UNL     1      26.660   9.165  49.811  1.00  0.00    -0.267 OA
BRANCH  28  29
HETATM   29  N4  UNL     1      27.139   9.707  50.972  1.00  0.00    -0.209 NA
HETATM   30  H15 UNL     1      27.968   9.224  51.346  1.00  0.00     0.150 HD
HETATM   31  H16 UNL     1      27.201  10.739  50.948  1.00  0.00     0.150 HD
ENDBRANCH  28  29
ENDBRANCH  26  28
ENDBRANCH  20  22
ENDBRANCH  17  20
TORSDOF 4
ENDMDL
MODEL 6
REMARK VINA RESULT:      -8.0      1.732      2.387
REMARK  4 active torsions:
REMARK  status: ('A' for Active; 'I' for Inactive)
REMARK    1  A    between atoms: C13_17  and  N3_18 
REMARK    2  A    between atoms: N3_18  and  C14_19 
REMARK    3  A    between atoms: C18_23  and  O2_24 
REMARK    4  A    between atoms: O2_24  and  N4_25 
ROOT
HETATM    1  C1  UNL     1      20.540   4.424  49.353  1.00  0.00     0.161 C 
HETATM    2  N1  UNL     1      21.924   4.658  49.249  1.00  0.00    -0.306 N 
HETATM    3  C2  UNL     1      22.832   5.783  49.083  1.00  0.00     0.260 C 
HETATM    4  O1  UNL     1      22.313   6.887  48.870  1.00  0.00    -0.267 OA
HETATM    5  C3  UNL     1      24.305   5.562  49.174  1.00  0.00     0.048 C 
HETATM    6  C4  UNL     1      25.393   6.428  49.154  1.00  0.00     0.002 A 
HETATM    7  C5  UNL     1      26.580   6.292  48.488  1.00  0.00     0.014 A 
HETATM    8  C6  UNL     1      27.546   7.256  48.623  1.00  0.00     0.001 A 
HETATM    9  C7  UNL     1      27.414   8.385  49.400  1.00  0.00     0.002 A 
HETATM   10  C8  UNL     1      26.204   8.528  50.080  1.00  0.00     0.024 A 
HETATM   11  C9  UNL     1      25.220   7.564  49.953  1.00  0.00     0.045 A 
HETATM   12 CL1  UNL     1      23.818   8.010  50.941  1.00  0.00    -0.083 Cl
HETATM   13  C10 UNL     1      24.571   4.306  49.392  1.00  0.00    -0.034 C 
HETATM   14  C11 UNL     1      23.854   3.260  48.489  1.00  0.00     0.115 C 
HETATM   15  C12 UNL     1      22.669   3.486  49.474  1.00  0.00     0.109 C 
HETATM   16  N2  UNL     1      22.843   2.540  50.310  1.00  0.00    -0.249 NA
HETATM   17  C13 UNL     1      24.210   2.453  50.936  1.00  0.00     0.230 C 
HETATM   18  C20 UNL     1      25.243   3.444  50.366  1.00  0.00     0.157 C 
HETATM   19 CL2  UNL     1      26.507   2.540  49.511  1.00  0.00    -0.116 Cl
ENDROOT
BRANCH  17  20
HETATM   20  N3  UNL     1      24.132   2.494  52.342  1.00  0.00    -0.366 N 
HETATM   21  H11 UNL     1      23.980   3.407  52.781  1.00  0.00     0.162 HD
BRANCH  20  22
HETATM   22  C14 UNL     1      24.258   1.316  53.128  1.00  0.00     0.032 A 
HETATM   23  C15 UNL     1      25.484   0.975  53.649  1.00  0.00     0.029 A 
HETATM   24  C16 UNL     1      25.777  -0.139  54.438  1.00  0.00     0.005 A 
HETATM   25  C17 UNL     1      24.674  -0.956  54.691  1.00  0.00     0.039 A 
HETATM   26  C18 UNL     1      23.437  -0.638  54.182  1.00  0.00     0.094 A 
HETATM   27  C19 UNL     1      23.206   0.483  53.404  1.00  0.00     0.067 A 
BRANCH  26  28
HETATM   28  O2  UNL     1      22.403  -1.524  54.497  1.00  0.00    -0.267 OA
BRANCH  28  29
HETATM   29  N4  UNL     1      21.155  -1.144  54.910  1.00  0.00    -0.209 NA
HETATM   30  H15 UNL     1      20.982  -0.132  54.832  1.00  0.00     0.150 HD
HETATM   31  H16 UNL     1      20.401  -1.752  54.548  1.00  0.00     0.150 HD
ENDBRANCH  28  29
ENDBRANCH  26  28
ENDBRANCH  20  22
ENDBRANCH  17  20
TORSDOF 4
ENDMDL
MODEL 7
REMARK VINA RESULT:      -7.8      5.853      8.716
REMARK  4 active torsions:
REMARK  status: ('A' for Active; 'I' for Inactive)
REMARK    1  A    between atoms: C13_17  and  N3_18 
REMARK    2  A    between atoms: N3_18  and  C14_19 
REMARK    3  A    between atoms: C18_23  and  O2_24 
REMARK    4  A    between atoms: O2_24  and  N4_25 
ROOT
HETATM    1  C1  UNL     1      32.750   3.596  47.627  1.00  0.00     0.161 C 
HETATM    2  N1  UNL     1      32.724   4.986  47.407  1.00  0.00    -0.306 N 
HETATM    3  C2  UNL     1      33.222   5.947  46.434  1.00  0.00     0.260 C 
HETATM    4  O1  UNL     1      33.979   5.508  45.559  1.00  0.00    -0.267 OA
HETATM    5  C3  UNL     1      32.809   7.378  46.533  1.00  0.00     0.048 C 
HETATM    6  C4  UNL     1      33.034   8.485  45.721  1.00  0.00     0.002 A 
HETATM    7  C5  UNL     1      33.373   9.758  46.089  1.00  0.00     0.014 A 
HETATM    8  C6  UNL     1      33.523  10.722  45.126  1.00  0.00     0.001 A 
HETATM    9  C7  UNL     1      33.356  10.506  43.777  1.00  0.00     0.002 A 
HETATM   10  C8  UNL     1      33.011   9.208  43.398  1.00  0.00     0.024 A 
HETATM   11  C9  UNL     1      32.855   8.225  44.358  1.00  0.00     0.045 A 
HETATM   12 CL1  UNL     1      32.403   6.698  43.580  1.00  0.00    -0.083 Cl
HETATM   13  C10 UNL     1      32.020   7.562  47.554  1.00  0.00    -0.034 C 
HETATM   14  C11 UNL     1      32.471   6.964  48.918  1.00  0.00     0.115 C 
HETATM   15  C12 UNL     1      31.890   5.644  48.329  1.00  0.00     0.109 C 
HETATM   16  N2  UNL     1      30.707   5.648  48.803  1.00  0.00    -0.249 NA
HETATM   17  C13 UNL     1      29.898   6.893  48.551  1.00  0.00     0.230 C 
HETATM   18  C20 UNL     1      30.673   8.038  47.871  1.00  0.00     0.157 C 
HETATM   19 CL2  UNL     1      30.828   9.391  49.008  1.00  0.00    -0.116 Cl
ENDROOT
BRANCH  17  20
HETATM   20  N3  UNL     1      28.685   6.591  47.899  1.00  0.00    -0.366 N 
HETATM   21  H11 UNL     1      28.627   6.790  46.896  1.00  0.00     0.162 HD
BRANCH  20  22
HETATM   22  C14 UNL     1      27.583   6.033  48.601  1.00  0.00     0.032 A 
HETATM   23  C15 UNL     1      27.469   4.667  48.714  1.00  0.00     0.029 A 
HETATM   24  C16 UNL     1      26.455   3.963  49.367  1.00  0.00     0.005 A 
HETATM   25  C17 UNL     1      25.485   4.781  49.948  1.00  0.00     0.039 A 
HETATM   26  C18 UNL     1      25.575   6.150  49.850  1.00  0.00     0.094 A 
HETATM   27  C19 UNL     1      26.606   6.794  49.188  1.00  0.00     0.067 A 
BRANCH  26  28
HETATM   28  O2  UNL     1      24.551   6.873  50.467  1.00  0.00    -0.267 OA
BRANCH  28  29
HETATM   29  N4  UNL     1      24.435   7.055  51.817  1.00  0.00    -0.209 NA
HETATM   30  H15 UNL     1      25.230   7.556  52.239  1.00  0.00     0.150 HD
HETATM   31  H16 UNL     1      23.499   7.385  52.108  1.00  0.00     0.150 HD
ENDBRANCH  28  29
ENDBRANCH  26  28
ENDBRANCH  20  22
ENDBRANCH  17  20
TORSDOF 4
ENDMDL
MODEL 8
REMARK VINA RESULT:      -7.8      3.859      7.846
REMARK  4 active torsions:
REMARK  status: ('A' for Active; 'I' for Inactive)
REMARK    1  A    between atoms: C13_17  and  N3_18 
REMARK    2  A    between atoms: N3_18  and  C14_19 
REMARK    3  A    between atoms: C18_23  and  O2_24 
REMARK    4  A    between atoms: O2_24  and  N4_25 
ROOT
HETATM    1  C1  UNL     1      18.741   3.611  51.444  1.00  0.00     0.161 C 
HETATM    2  N1  UNL     1      20.123   3.517  51.696  1.00  0.00    -0.306 N 
HETATM    3  C2  UNL     1      21.040   2.685  52.460  1.00  0.00     0.260 C 
HETATM    4  O1  UNL     1      20.530   1.844  53.211  1.00  0.00    -0.267 OA
HETATM    5  C3  UNL     1      22.512   2.877  52.307  1.00  0.00     0.048 C 
HETATM    6  C4  UNL     1      23.612   2.193  52.814  1.00  0.00     0.002 A 
HETATM    7  C5  UNL     1      24.767   2.704  53.340  1.00  0.00     0.014 A 
HETATM    8  C6  UNL     1      25.753   1.851  53.764  1.00  0.00     0.001 A 
HETATM    9  C7  UNL     1      25.672   0.478  53.702  1.00  0.00     0.002 A 
HETATM   10  C8  UNL     1      24.495  -0.047  53.167  1.00  0.00     0.024 A 
HETATM   11  C9  UNL     1      23.491   0.801  52.735  1.00  0.00     0.045 A 
HETATM   12 CL1  UNL     1      22.141  -0.151  52.095  1.00  0.00    -0.083 Cl
HETATM   13  C10 UNL     1      22.768   3.835  51.462  1.00  0.00    -0.034 C 
HETATM   14  C11 UNL     1      21.996   5.174  51.651  1.00  0.00     0.115 C 
HETATM   15  C12 UNL     1      20.859   4.418  50.903  1.00  0.00     0.109 C 
HETATM   16  N2  UNL     1      21.054   4.782  49.698  1.00  0.00    -0.249 NA
HETATM   17  C13 UNL     1      22.445   4.574  49.161  1.00  0.00     0.230 C 
HETATM   18  C20 UNL     1      23.468   4.074  50.199  1.00  0.00     0.157 C 
HETATM   19 CL2  UNL     1      24.680   5.338  50.478  1.00  0.00    -0.116 Cl
ENDROOT
BRANCH  17  20
HETATM   20  N3  UNL     1      22.428   3.792  47.989  1.00  0.00    -0.366 N 
HETATM   21  H11 UNL     1      22.683   2.804  48.077  1.00  0.00     0.162 HD
BRANCH  20  22
HETATM   22  C14 UNL     1      22.074   4.347  46.729  1.00  0.00     0.032 A 
HETATM   23  C15 UNL     1      22.244   5.693  46.508  1.00  0.00     0.029 A 
HETATM   24  C16 UNL     1      21.949   6.392  45.335  1.00  0.00     0.005 A 
HETATM   25  C17 UNL     1      21.432   5.590  44.316  1.00  0.00     0.039 A 
HETATM   26  C18 UNL     1      21.253   4.240  44.512  1.00  0.00     0.094 A 
HETATM   27  C19 UNL     1      21.563   3.602  45.699  1.00  0.00     0.067 A 
BRANCH  26  28
HETATM   28  O2  UNL     1      20.729   3.532  43.427  1.00  0.00    -0.267 OA
BRANCH  28  29
HETATM   29  N4  UNL     1      20.715   3.988  42.137  1.00  0.00    -0.209 NA
HETATM   30  H15 UNL     1      19.888   4.556  41.906  1.00  0.00     0.150 HD
HETATM   31  H16 UNL     1      21.621   4.381  41.832  1.00  0.00     0.150 HD
ENDBRANCH  28  29
ENDBRANCH  26  28
ENDBRANCH  20  22
ENDBRANCH  17  20
TORSDOF 4
ENDMDL
MODEL 9
REMARK VINA RESULT:      -7.7      3.323      4.233
REMARK  4 active torsions:
REMARK  status: ('A' for Active; 'I' for Inactive)
REMARK    1  A    between atoms: C13_17  and  N3_18 
REMARK    2  A    between atoms: N3_18  and  C14_19 
REMARK    3  A    between atoms: C18_23  and  O2_24 
REMARK    4  A    between atoms: O2_24  and  N4_25 
ROOT
HETATM    1  C1  UNL     1      19.886   3.025  47.494  1.00  0.00     0.161 C 
HETATM    2  N1  UNL     1      21.085   3.517  48.044  1.00  0.00    -0.306 N 
HETATM    3  C2  UNL     1      21.777   4.788  48.195  1.00  0.00     0.260 C 
HETATM    4  O1  UNL     1      21.279   5.762  47.616  1.00  0.00    -0.267 OA
HETATM    5  C3  UNL     1      23.020   4.858  49.016  1.00  0.00     0.048 C 
HETATM    6  C4  UNL     1      23.831   5.916  49.414  1.00  0.00     0.002 A 
HETATM    7  C5  UNL     1      25.197   5.985  49.431  1.00  0.00     0.014 A 
HETATM    8  C6  UNL     1      25.812   7.120  49.891  1.00  0.00     0.001 A 
HETATM    9  C7  UNL     1      25.145   8.233  50.352  1.00  0.00     0.002 A 
HETATM   10  C8  UNL     1      23.751   8.167  50.336  1.00  0.00     0.024 A 
HETATM   11  C9  UNL     1      23.117   7.028  49.874  1.00  0.00     0.045 A 
HETATM   12 CL1  UNL     1      21.361   7.235  49.991  1.00  0.00    -0.083 Cl
HETATM   13  C10 UNL     1      23.324   3.687  49.498  1.00  0.00    -0.034 C 
HETATM   14  C11 UNL     1      23.317   2.487  48.505  1.00  0.00     0.115 C 
HETATM   15  C12 UNL     1      21.780   2.520  48.753  1.00  0.00     0.109 C 
HETATM   16  N2  UNL     1      21.649   1.659  49.684  1.00  0.00    -0.249 NA
HETATM   17  C13 UNL     1      22.515   1.861  50.899  1.00  0.00     0.230 C 
HETATM   18  C20 UNL     1      23.537   3.009  50.778  1.00  0.00     0.157 C 
HETATM   19 CL2  UNL     1      25.176   2.332  50.769  1.00  0.00    -0.116 Cl
ENDROOT
BRANCH  17  20
HETATM   20  N3  UNL     1      21.739   1.941  52.072  1.00  0.00    -0.366 N 
HETATM   21  H11 UNL     1      21.399   2.866  52.350  1.00  0.00     0.162 HD
BRANCH  20  22
HETATM   22  C14 UNL     1      21.438   0.787  52.845  1.00  0.00     0.032 A 
HETATM   23  C15 UNL     1      22.378   0.289  53.717  1.00  0.00     0.029 A 
HETATM   24  C16 UNL     1      22.241  -0.827  54.545  1.00  0.00     0.005 A 
HETATM   25  C17 UNL     1      21.004  -1.464  54.434  1.00  0.00     0.039 A 
HETATM   26  C18 UNL     1      20.047  -0.986  53.569  1.00  0.00     0.094 A 
HETATM   27  C19 UNL     1      20.239   0.128  52.771  1.00  0.00     0.067 A 
BRANCH  26  28
HETATM   28  O2  UNL     1      18.845  -1.698  53.537  1.00  0.00    -0.267 OA
BRANCH  28  29
HETATM   29  N4  UNL     1      17.638  -1.199  53.942  1.00  0.00    -0.209 NA
HETATM   30  H15 UNL     1      17.103  -1.841  54.544  1.00  0.00     0.150 HD
HETATM   31  H16 UNL     1      17.688  -0.221  54.273  1.00  0.00     0.150 HD
ENDBRANCH  28  29
ENDBRANCH  26  28
ENDBRANCH  20  22
ENDBRANCH  17  20
TORSDOF 4
ENDMDL
