MODEL 1
REMARK VINA RESULT:      -7.1      0.000      0.000
REMARK  8 active torsions:
REMARK  status: ('A' for Active; 'I' for Inactive)
REMARK    1  A    between atoms: C3_5  and  C4_6 
REMARK    2  A    between atoms: C4_6  and  C5_7 
REMARK    3  A    between atoms: C5_7  and  O1_8 
REMARK    4  A    between atoms: N3_12  and  C9_13 
REMARK    5  A    between atoms: C9_13  and  C10_14 
REMARK    6  A    between atoms: C10_14  and  C11_16 
REMARK    7  A    between atoms: C12_17  and  C13_18 
REMARK    8  A    between atoms: C13_18  and  N4_19 
ROOT
HETATM    1  N1  UNL     1      24.415  -0.771  54.834  1.00  0.00    -0.193 NA
HETATM    2  C1  UNL     1      25.113  -0.361  54.014  1.00  0.00     0.108 C 
HETATM    3  C2  UNL     1      26.007   0.152  52.988  1.00  0.00     0.317 C 
HETATM    4  N2  UNL     1      27.299  -0.442  53.016  1.00  0.00    -0.254 NA
HETATM    5  C3  UNL     1      28.424  -0.234  53.598  1.00  0.00     0.037 C 
HETATM    6  C6  UNL     1      28.688   0.856  54.537  1.00  0.00     0.087 C 
HETATM    7  C7  UNL     1      28.346   2.142  53.849  1.00  0.00    -0.004 C 
HETATM    8  C8  UNL     1      27.215   2.390  53.204  1.00  0.00     0.085 C 
HETATM    9  N3  UNL     1      26.066   1.614  52.968  1.00  0.00    -0.349 N 
ENDROOT
BRANCH   9  10
HETATM   10  C9  UNL     1      24.896   2.381  52.693  1.00  0.00     0.208 C 
BRANCH  10  11
HETATM   11  C10 UNL     1      24.577   2.484  51.250  1.00  0.00     0.166 C 
HETATM   12  O2  UNL     1      25.227   2.960  50.282  1.00  0.00    -0.291 OA
BRANCH  11  13
HETATM   13  C11 UNL     1      23.273   1.931  50.911  1.00  0.00     0.049 C 
HETATM   14  C12 UNL     1      22.627   0.923  51.468  1.00  0.00     0.007 C 
BRANCH  14  15
HETATM   15  C13 UNL     1      21.323   0.279  51.216  1.00  0.00     0.300 C 
BRANCH  15  16
HETATM   16  N4  UNL     1      20.341   0.660  52.224  1.00  0.00     0.096 N 
HETATM   17  C14 UNL     1      19.103  -0.069  52.070  1.00  0.00     0.299 C 
HETATM   18  C15 UNL     1      18.718  -0.775  53.346  1.00  0.00     0.198 C 
HETATM   19  O3  UNL     1      19.810  -1.574  53.693  1.00  0.00    -0.388 OA
HETATM   20  C16 UNL     1      20.837  -0.763  54.182  1.00  0.00     0.198 C 
HETATM   21  C17 UNL     1      20.880   0.599  53.552  1.00  0.00     0.299 C 
ENDBRANCH  15  16
ENDBRANCH  14  15
ENDBRANCH  11  13
ENDBRANCH  10  11
ENDBRANCH   9  10
BRANCH   5  22
HETATM   22  C4  UNL     1      29.460  -1.169  53.269  1.00  0.00     0.051 C 
BRANCH  22  23
HETATM   23  C5  UNL     1      29.326  -2.474  53.360  1.00  0.00     0.133 C 
BRANCH  23  24
HETATM   24  O1  UNL     1      28.795  -3.751  53.332  1.00  0.00    -0.373 OA
HETATM   25  H4  UNL     1      28.510  -4.227  54.187  1.00  0.00     0.216 HD
ENDBRANCH  23  24
ENDBRANCH  22  23
ENDBRANCH   5  22
TORSDOF 8
ENDMDL
MODEL 2
REMARK VINA RESULT:      -7.0      1.881      2.378
REMARK  8 active torsions:
REMARK  status: ('A' for Active; 'I' for Inactive)
REMARK    1  A    between atoms: C3_5  and  C4_6 
REMARK    2  A    between atoms: C4_6  and  C5_7 
REMARK    3  A    between atoms: C5_7  and  O1_8 
REMARK    4  A    between atoms: N3_12  and  C9_13 
REMARK    5  A    between atoms: C9_13  and  C10_14 
REMARK    6  A    between atoms: C10_14  and  C11_16 
REMARK    7  A    between atoms: C12_17  and  C13_18 
REMARK    8  A    between atoms: C13_18  and  N4_19 
ROOT
HETATM    1  N1  UNL     1      24.348  -0.321  53.839  1.00  0.00    -0.193 NA
HETATM    2  C1  UNL     1      25.250   0.005  53.201  1.00  0.00     0.108 C 
HETATM    3  C2  UNL     1      26.399   0.411  52.408  1.00  0.00     0.317 C 
HETATM    4  N2  UNL     1      27.589  -0.299  52.732  1.00  0.00    -0.254 NA
HETATM    5  C3  UNL     1      28.565  -0.184  53.557  1.00  0.00     0.037 C 
HETATM    6  C6  UNL     1      28.710   0.897  54.531  1.00  0.00     0.087 C 
HETATM    7  C7  UNL     1      28.659   2.194  53.783  1.00  0.00    -0.004 C 
HETATM    8  C8  UNL     1      27.734   2.532  52.895  1.00  0.00     0.085 C 
HETATM    9  N3  UNL     1      26.601   1.861  52.402  1.00  0.00    -0.349 N 
ENDROOT
BRANCH   9  10
HETATM   10  C9  UNL     1      25.603   2.726  51.866  1.00  0.00     0.208 C 
BRANCH  10  11
HETATM   11  C10 UNL     1      25.771   3.007  50.421  1.00  0.00     0.166 C 
HETATM   12  O2  UNL     1      26.802   3.126  49.708  1.00  0.00    -0.291 OA
BRANCH  11  13
HETATM   13  C11 UNL     1      24.507   3.173  49.717  1.00  0.00     0.049 C 
HETATM   14  C12 UNL     1      23.279   3.153  50.201  1.00  0.00     0.007 C 
BRANCH  14  15
HETATM   15  C13 UNL     1      21.939   3.305  49.598  1.00  0.00     0.300 C 
BRANCH  15  16
HETATM   16  N4  UNL     1      20.988   2.364  50.178  1.00  0.00     0.096 N 
HETATM   17  C14 UNL     1      21.477   1.802  51.416  1.00  0.00     0.299 C 
HETATM   18  C15 UNL     1      20.492   2.008  52.540  1.00  0.00     0.198 C 
HETATM   19  O3  UNL     1      20.248   3.381  52.597  1.00  0.00    -0.388 OA
HETATM   20  C16 UNL     1      19.441   3.751  51.517  1.00  0.00     0.198 C 
HETATM   21  C17 UNL     1      19.672   2.925  50.284  1.00  0.00     0.299 C 
ENDBRANCH  15  16
ENDBRANCH  14  15
ENDBRANCH  11  13
ENDBRANCH  10  11
ENDBRANCH   9  10
BRANCH   5  22
HETATM   22  C4  UNL     1      29.556  -1.217  53.474  1.00  0.00     0.051 C 
BRANCH  22  23
HETATM   23  C5  UNL     1      29.277  -2.484  53.259  1.00  0.00     0.133 C 
BRANCH  23  24
HETATM   24  O1  UNL     1      28.702  -3.740  53.335  1.00  0.00    -0.373 OA
HETATM   25  H4  UNL     1      29.265  -4.587  53.285  1.00  0.00     0.216 HD
ENDBRANCH  23  24
ENDBRANCH  22  23
ENDBRANCH   5  22
TORSDOF 8
ENDMDL
MODEL 3
REMARK VINA RESULT:      -6.9      1.593      2.737
REMARK  8 active torsions:
REMARK  status: ('A' for Active; 'I' for Inactive)
REMARK    1  A    between atoms: C3_5  and  C4_6 
REMARK    2  A    between atoms: C4_6  and  C5_7 
REMARK    3  A    between atoms: C5_7  and  O1_8 
REMARK    4  A    between atoms: N3_12  and  C9_13 
REMARK    5  A    between atoms: C9_13  and  C10_14 
REMARK    6  A    between atoms: C10_14  and  C11_16 
REMARK    7  A    between atoms: C12_17  and  C13_18 
REMARK    8  A    between atoms: C13_18  and  N4_19 
ROOT
HETATM    1  N1  UNL     1      26.761   2.864  50.168  1.00  0.00    -0.193 NA
HETATM    2  C1  UNL     1      26.684   2.507  51.261  1.00  0.00     0.108 C 
HETATM    3  C2  UNL     1      26.593   2.042  52.635  1.00  0.00     0.317 C 
HETATM    4  N2  UNL     1      27.521   1.009  52.945  1.00  0.00    -0.254 NA
HETATM    5  C3  UNL     1      27.565  -0.272  52.889  1.00  0.00     0.037 C 
HETATM    6  C6  UNL     1      26.478  -1.123  52.407  1.00  0.00     0.087 C 
HETATM    7  C7  UNL     1      25.255  -0.796  53.209  1.00  0.00    -0.004 C 
HETATM    8  C8  UNL     1      24.785   0.424  53.429  1.00  0.00     0.085 C 
HETATM    9  N3  UNL     1      25.226   1.698  53.028  1.00  0.00    -0.349 N 
ENDROOT
BRANCH   9  10
HETATM   10  C9  UNL     1      24.203   2.691  53.027  1.00  0.00     0.208 C 
BRANCH  10  11
HETATM   11  C10 UNL     1      23.205   2.518  51.947  1.00  0.00     0.166 C 
HETATM   12  O2  UNL     1      23.249   2.787  50.717  1.00  0.00    -0.291 OA
BRANCH  11  13
HETATM   13  C11 UNL     1      21.955   1.929  52.409  1.00  0.00     0.049 C 
HETATM   14  C12 UNL     1      20.729   2.128  51.963  1.00  0.00     0.007 C 
BRANCH  14  15
HETATM   15  C13 UNL     1      19.403   1.600  52.343  1.00  0.00     0.300 C 
BRANCH  15  16
HETATM   16  N4  UNL     1      19.303   0.172  52.068  1.00  0.00     0.096 N 
HETATM   17  C14 UNL     1      19.335  -0.611  53.283  1.00  0.00     0.299 C 
HETATM   18  C15 UNL     1      18.137  -1.523  53.380  1.00  0.00     0.198 C 
HETATM   19  O3  UNL     1      17.013  -0.703  53.262  1.00  0.00    -0.388 OA
HETATM   20  C16 UNL     1      16.880  -0.293  51.932  1.00  0.00     0.198 C 
HETATM   21  C17 UNL     1      18.191  -0.138  51.217  1.00  0.00     0.299 C 
ENDBRANCH  15  16
ENDBRANCH  14  15
ENDBRANCH  11  13
ENDBRANCH  10  11
ENDBRANCH   9  10
BRANCH   5  22
HETATM   22  C4  UNL     1      28.793  -0.858  53.342  1.00  0.00     0.051 C 
BRANCH  22  23
HETATM   23  C5  UNL     1      29.058  -2.144  53.279  1.00  0.00     0.133 C 
BRANCH  23  24
HETATM   24  O1  UNL     1      29.073  -3.503  53.539  1.00  0.00    -0.373 OA
HETATM   25  H4  UNL     1      28.240  -3.992  53.864  1.00  0.00     0.216 HD
ENDBRANCH  23  24
ENDBRANCH  22  23
ENDBRANCH   5  22
TORSDOF 8
ENDMDL
MODEL 4
REMARK VINA RESULT:      -6.8      4.138      7.700
REMARK  8 active torsions:
REMARK  status: ('A' for Active; 'I' for Inactive)
REMARK    1  A    between atoms: C3_5  and  C4_6 
REMARK    2  A    between atoms: C4_6  and  C5_7 
REMARK    3  A    between atoms: C5_7  and  O1_8 
REMARK    4  A    between atoms: N3_12  and  C9_13 
REMARK    5  A    between atoms: C9_13  and  C10_14 
REMARK    6  A    between atoms: C10_14  and  C11_16 
REMARK    7  A    between atoms: C12_17  and  C13_18 
REMARK    8  A    between atoms: C13_18  and  N4_19 
ROOT
HETATM    1  N1  UNL     1      22.732   5.730  47.461  1.00  0.00    -0.193 NA
HETATM    2  C1  UNL     1      23.414   5.747  48.390  1.00  0.00     0.108 C 
HETATM    3  C2  UNL     1      24.287   5.775  49.551  1.00  0.00     0.317 C 
HETATM    4  N2  UNL     1      25.353   6.709  49.435  1.00  0.00    -0.254 NA
HETATM    5  C3  UNL     1      26.552   6.724  48.977  1.00  0.00     0.037 C 
HETATM    6  C6  UNL     1      27.223   5.582  48.356  1.00  0.00     0.087 C 
HETATM    7  C7  UNL     1      27.177   4.444  49.330  1.00  0.00    -0.004 C 
HETATM    8  C8  UNL     1      26.093   4.019  49.963  1.00  0.00     0.085 C 
HETATM    9  N3  UNL     1      24.753   4.443  49.942  1.00  0.00    -0.349 N 
ENDROOT
BRANCH   9  10
HETATM   10  C9  UNL     1      23.822   3.443  50.347  1.00  0.00     0.208 C 
BRANCH  10  11
HETATM   11  C10 UNL     1      23.430   3.535  51.773  1.00  0.00     0.166 C 
HETATM   12  O2  UNL     1      22.445   4.083  52.334  1.00  0.00    -0.291 OA
BRANCH  11  13
HETATM   13  C11 UNL     1      24.363   2.867  52.669  1.00  0.00     0.049 C 
HETATM   14  C12 UNL     1      24.830   1.634  52.614  1.00  0.00     0.007 C 
BRANCH  14  15
HETATM   15  C13 UNL     1      25.764   0.853  53.450  1.00  0.00     0.300 C 
BRANCH  15  16
HETATM   16  N4  UNL     1      27.122   0.915  52.925  1.00  0.00     0.096 N 
HETATM   17  C14 UNL     1      27.734   2.201  53.170  1.00  0.00     0.299 C 
HETATM   18  C15 UNL     1      29.048   2.056  53.896  1.00  0.00     0.198 C 
HETATM   19  O3  UNL     1      28.773   1.328  55.055  1.00  0.00    -0.388 OA
HETATM   20  C16 UNL     1      28.550  -0.010  54.717  1.00  0.00     0.198 C 
HETATM   21  C17 UNL     1      27.921  -0.192  53.366  1.00  0.00     0.299 C 
ENDBRANCH  15  16
ENDBRANCH  14  15
ENDBRANCH  11  13
ENDBRANCH  10  11
ENDBRANCH   9  10
BRANCH   5  22
HETATM   22  C4  UNL     1      27.237   7.977  49.107  1.00  0.00     0.051 C 
BRANCH  22  23
HETATM   23  C5  UNL     1      27.079   8.796  50.124  1.00  0.00     0.133 C 
BRANCH  23  24
HETATM   24  O1  UNL     1      27.321   9.726  51.120  1.00  0.00    -0.373 OA
HETATM   25  H4  UNL     1      26.603  10.385  51.418  1.00  0.00     0.216 HD
ENDBRANCH  23  24
ENDBRANCH  22  23
ENDBRANCH   5  22
TORSDOF 8
ENDMDL
MODEL 5
REMARK VINA RESULT:      -6.7      3.183      5.818
REMARK  8 active torsions:
REMARK  status: ('A' for Active; 'I' for Inactive)
REMARK    1  A    between atoms: C3_5  and  C4_6 
REMARK    2  A    between atoms: C4_6  and  C5_7 
REMARK    3  A    between atoms: C5_7  and  O1_8 
REMARK    4  A    between atoms: N3_12  and  C9_13 
REMARK    5  A    between atoms: C9_13  and  C10_14 
REMARK    6  A    between atoms: C10_14  and  C11_16 
REMARK    7  A    between atoms: C12_17  and  C13_18 
REMARK    8  A    between atoms: C13_18  and  N4_19 
ROOT
HETATM    1  N1  UNL     1      26.786   2.939  50.204  1.00  0.00    -0.193 NA
HETATM    2  C1  UNL     1      26.768   2.581  51.299  1.00  0.00     0.108 C 
HETATM    3  C2  UNL     1      26.751   2.114  52.675  1.00  0.00     0.317 C 
HETATM    4  N2  UNL     1      27.658   1.047  52.922  1.00  0.00    -0.254 NA
HETATM    5  C3  UNL     1      27.651  -0.235  52.861  1.00  0.00     0.037 C 
HETATM    6  C6  UNL     1      26.503  -1.043  52.451  1.00  0.00     0.087 C 
HETATM    7  C7  UNL     1      25.349  -0.674  53.332  1.00  0.00    -0.004 C 
HETATM    8  C8  UNL     1      24.940   0.561  53.584  1.00  0.00     0.085 C 
HETATM    9  N3  UNL     1      25.400   1.819  53.157  1.00  0.00    -0.349 N 
ENDROOT
BRANCH   9  10
HETATM   10  C9  UNL     1      24.417   2.849  53.226  1.00  0.00     0.208 C 
BRANCH  10  11
HETATM   11  C10 UNL     1      23.207   2.573  52.418  1.00  0.00     0.166 C 
HETATM   12  O2  UNL     1      22.184   1.878  52.656  1.00  0.00    -0.291 OA
BRANCH  11  13
HETATM   13  C11 UNL     1      23.221   3.231  51.118  1.00  0.00     0.049 C 
HETATM   14  C12 UNL     1      23.510   4.485  50.826  1.00  0.00     0.007 C 
BRANCH  14  15
HETATM   15  C13 UNL     1      23.558   5.258  49.569  1.00  0.00     0.300 C 
BRANCH  15  16
HETATM   16  N4  UNL     1      24.072   6.604  49.794  1.00  0.00     0.096 N 
HETATM   17  C14 UNL     1      25.471   6.590  50.156  1.00  0.00     0.299 C 
HETATM   18  C15 UNL     1      26.284   7.470  49.239  1.00  0.00     0.198 C 
HETATM   19  O3  UNL     1      26.028   7.021  47.942  1.00  0.00    -0.388 OA
HETATM   20  C16 UNL     1      24.744   7.421  47.561  1.00  0.00     0.198 C 
HETATM   21  C17 UNL     1      23.771   7.485  48.703  1.00  0.00     0.299 C 
ENDBRANCH  15  16
ENDBRANCH  14  15
ENDBRANCH  11  13
ENDBRANCH  10  11
ENDBRANCH   9  10
BRANCH   5  22
HETATM   22  C4  UNL     1      28.883  -0.868  53.231  1.00  0.00     0.051 C 
BRANCH  22  23
HETATM   23  C5  UNL     1      29.044  -2.171  53.305  1.00  0.00     0.133 C 
BRANCH  23  24
HETATM   24  O1  UNL     1      28.797  -3.526  53.439  1.00  0.00    -0.373 OA
HETATM   25  H4  UNL     1      27.897  -3.872  53.767  1.00  0.00     0.216 HD
ENDBRANCH  23  24
ENDBRANCH  22  23
ENDBRANCH   5  22
TORSDOF 8
ENDMDL
MODEL 6
REMARK VINA RESULT:      -6.6      3.870      7.129
REMARK  8 active torsions:
REMARK  status: ('A' for Active; 'I' for Inactive)
REMARK    1  A    between atoms: C3_5  and  C4_6 
REMARK    2  A    between atoms: C4_6  and  C5_7 
REMARK    3  A    between atoms: C5_7  and  O1_8 
REMARK    4  A    between atoms: N3_12  and  C9_13 
REMARK    5  A    between atoms: C9_13  and  C10_14 
REMARK    6  A    between atoms: C10_14  and  C11_16 
REMARK    7  A    between atoms: C12_17  and  C13_18 
REMARK    8  A    between atoms: C13_18  and  N4_19 
ROOT
HETATM    1  N1  UNL     1      26.846   3.112  50.628  1.00  0.00    -0.193 NA
HETATM    2  C1  UNL     1      26.203   3.800  49.964  1.00  0.00     0.108 C 
HETATM    3  C2  UNL     1      25.398   4.683  49.136  1.00  0.00     0.317 C 
HETATM    4  N2  UNL     1      25.873   6.023  49.111  1.00  0.00    -0.254 NA
HETATM    5  C3  UNL     1      25.710   7.099  49.792  1.00  0.00     0.037 C 
HETATM    6  C6  UNL     1      24.845   7.219  50.965  1.00  0.00     0.087 C 
HETATM    7  C7  UNL     1      23.469   6.786  50.561  1.00  0.00    -0.004 C 
HETATM    8  C8  UNL     1      23.175   5.664  49.920  1.00  0.00     0.085 C 
HETATM    9  N3  UNL     1      23.969   4.604  49.447  1.00  0.00    -0.349 N 
ENDROOT
BRANCH   9  10
HETATM   10  C9  UNL     1      23.260   3.379  49.277  1.00  0.00     0.208 C 
BRANCH  10  11
HETATM   11  C10 UNL     1      22.335   3.067  50.391  1.00  0.00     0.166 C 
HETATM   12  O2  UNL     1      21.088   3.205  50.506  1.00  0.00    -0.291 OA
BRANCH  11  13
HETATM   13  C11 UNL     1      23.007   2.501  51.554  1.00  0.00     0.049 C 
HETATM   14  C12 UNL     1      23.600   1.330  51.681  1.00  0.00     0.007 C 
BRANCH  14  15
HETATM   15  C13 UNL     1      24.304   0.653  52.789  1.00  0.00     0.300 C 
BRANCH  15  16
HETATM   16  N4  UNL     1      25.735   0.929  52.755  1.00  0.00     0.096 N 
HETATM   17  C14 UNL     1      26.252   1.241  54.068  1.00  0.00     0.299 C 
HETATM   18  C15 UNL     1      27.409   0.343  54.429  1.00  0.00     0.198 C 
HETATM   19  O3  UNL     1      26.940  -0.966  54.300  1.00  0.00    -0.388 OA
HETATM   20  C16 UNL     1      26.824  -1.281  52.943  1.00  0.00     0.198 C 
HETATM   21  C17 UNL     1      26.467  -0.104  52.081  1.00  0.00     0.299 C 
ENDBRANCH  15  16
ENDBRANCH  14  15
ENDBRANCH  11  13
ENDBRANCH  10  11
ENDBRANCH   9  10
BRANCH   5  22
HETATM   22  C4  UNL     1      26.456   8.232  49.327  1.00  0.00     0.051 C 
BRANCH  22  23
HETATM   23  C5  UNL     1      27.054   9.091  50.122  1.00  0.00     0.133 C 
BRANCH  23  24
HETATM   24  O1  UNL     1      27.641   9.678  51.229  1.00  0.00    -0.373 OA
HETATM   25  H4  UNL     1      28.378  10.375  51.134  1.00  0.00     0.216 HD
ENDBRANCH  23  24
ENDBRANCH  22  23
ENDBRANCH   5  22
TORSDOF 8
ENDMDL
MODEL 7
REMARK VINA RESULT:      -6.6      3.257      5.628
REMARK  8 active torsions:
REMARK  status: ('A' for Active; 'I' for Inactive)
REMARK    1  A    between atoms: C3_5  and  C4_6 
REMARK    2  A    between atoms: C4_6  and  C5_7 
REMARK    3  A    between atoms: C5_7  and  O1_8 
REMARK    4  A    between atoms: N3_12  and  C9_13 
REMARK    5  A    between atoms: C9_13  and  C10_14 
REMARK    6  A    between atoms: C10_14  and  C11_16 
REMARK    7  A    between atoms: C12_17  and  C13_18 
REMARK    8  A    between atoms: C13_18  and  N4_19 
ROOT
HETATM    1  N1  UNL     1      26.659   3.041  49.839  1.00  0.00    -0.193 NA
HETATM    2  C1  UNL     1      26.414   2.759  50.930  1.00  0.00     0.108 C 
HETATM    3  C2  UNL     1      26.117   2.391  52.304  1.00  0.00     0.317 C 
HETATM    4  N2  UNL     1      27.160   1.654  52.930  1.00  0.00    -0.254 NA
HETATM    5  C3  UNL     1      27.510   0.426  53.052  1.00  0.00     0.037 C 
HETATM    6  C6  UNL     1      26.790  -0.708  52.471  1.00  0.00     0.087 C 
HETATM    7  C7  UNL     1      25.373  -0.642  52.953  1.00  0.00    -0.004 C 
HETATM    8  C8  UNL     1      24.597   0.432  52.911  1.00  0.00     0.085 C 
HETATM    9  N3  UNL     1      24.813   1.742  52.448  1.00  0.00    -0.349 N 
ENDROOT
BRANCH   9  10
HETATM   10  C9  UNL     1      23.617   2.440  52.107  1.00  0.00     0.208 C 
BRANCH  10  11
HETATM   11  C10 UNL     1      22.868   1.827  50.986  1.00  0.00     0.166 C 
HETATM   12  O2  UNL     1      22.184   0.772  50.915  1.00  0.00    -0.291 OA
BRANCH  11  13
HETATM   13  C11 UNL     1      22.950   2.597  49.752  1.00  0.00     0.049 C 
HETATM   14  C12 UNL     1      23.153   3.892  49.593  1.00  0.00     0.007 C 
BRANCH  14  15
HETATM   15  C13 UNL     1      23.254   4.775  48.414  1.00  0.00     0.300 C 
BRANCH  15  16
HETATM   16  N4  UNL     1      23.415   6.169  48.809  1.00  0.00     0.096 N 
HETATM   17  C14 UNL     1      23.458   6.317  50.246  1.00  0.00     0.299 C 
HETATM   18  C15 UNL     1      24.701   7.050  50.686  1.00  0.00     0.198 C 
HETATM   19  O3  UNL     1      25.779   6.338  50.156  1.00  0.00    -0.388 OA
HETATM   20  C16 UNL     1      25.853   6.572  48.780  1.00  0.00     0.198 C 
HETATM   21  C17 UNL     1      24.515   6.797  48.136  1.00  0.00     0.299 C 
ENDBRANCH  15  16
ENDBRANCH  14  15
ENDBRANCH  11  13
ENDBRANCH  10  11
ENDBRANCH   9  10
BRANCH   5  22
HETATM   22  C4  UNL     1      28.700   0.205  53.821  1.00  0.00     0.051 C 
BRANCH  22  23
HETATM   23  C5  UNL     1      29.374   1.163  54.418  1.00  0.00     0.133 C 
BRANCH  23  24
HETATM   24  O1  UNL     1      29.794   2.407  54.854  1.00  0.00    -0.373 OA
HETATM   25  H4  UNL     1      29.849   3.202  54.219  1.00  0.00     0.216 HD
ENDBRANCH  23  24
ENDBRANCH  22  23
ENDBRANCH   5  22
TORSDOF 8
ENDMDL
MODEL 8
REMARK VINA RESULT:      -6.6      2.690      5.388
REMARK  8 active torsions:
REMARK  status: ('A' for Active; 'I' for Inactive)
REMARK    1  A    between atoms: C3_5  and  C4_6 
REMARK    2  A    between atoms: C4_6  and  C5_7 
REMARK    3  A    between atoms: C5_7  and  O1_8 
REMARK    4  A    between atoms: N3_12  and  C9_13 
REMARK    5  A    between atoms: C9_13  and  C10_14 
REMARK    6  A    between atoms: C10_14  and  C11_16 
REMARK    7  A    between atoms: C12_17  and  C13_18 
REMARK    8  A    between atoms: C13_18  and  N4_19 
ROOT
HETATM    1  N1  UNL     1      23.911  -1.218  55.560  1.00  0.00    -0.193 NA
HETATM    2  C1  UNL     1      24.402  -0.814  54.598  1.00  0.00     0.108 C 
HETATM    3  C2  UNL     1      25.037  -0.308  53.393  1.00  0.00     0.317 C 
HETATM    4  N2  UNL     1      26.396  -0.708  53.259  1.00  0.00    -0.254 NA
HETATM    5  C3  UNL     1      27.549  -0.278  53.620  1.00  0.00     0.037 C 
HETATM    6  C6  UNL     1      27.779   0.943  54.393  1.00  0.00     0.087 C 
HETATM    7  C7  UNL     1      27.139   2.077  53.653  1.00  0.00    -0.004 C 
HETATM    8  C8  UNL     1      25.898   2.087  53.188  1.00  0.00     0.085 C 
HETATM    9  N3  UNL     1      24.863   1.135  53.224  1.00  0.00    -0.349 N 
ENDROOT
BRANCH   9  10
HETATM   10  C9  UNL     1      23.559   1.693  53.078  1.00  0.00     0.208 C 
BRANCH  10  11
HETATM   11  C10 UNL     1      23.043   1.648  51.691  1.00  0.00     0.166 C 
HETATM   12  O2  UNL     1      22.445   0.742  51.050  1.00  0.00    -0.291 OA
BRANCH  11  13
HETATM   13  C11 UNL     1      23.278   2.880  50.950  1.00  0.00     0.049 C 
HETATM   14  C12 UNL     1      24.192   3.135  50.032  1.00  0.00     0.007 C 
BRANCH  14  15
HETATM   15  C13 UNL     1      24.526   4.325  49.224  1.00  0.00     0.300 C 
BRANCH  15  16
HETATM   16  N4  UNL     1      25.676   5.032  49.773  1.00  0.00     0.096 N 
HETATM   17  C14 UNL     1      26.848   4.878  48.942  1.00  0.00     0.299 C 
HETATM   18  C15 UNL     1      27.425   6.215  48.552  1.00  0.00     0.198 C 
HETATM   19  O3  UNL     1      26.387   6.923  47.943  1.00  0.00    -0.388 OA
HETATM   20  C16 UNL     1      25.481   7.344  48.921  1.00  0.00     0.198 C 
HETATM   21  C17 UNL     1      25.370   6.399  50.083  1.00  0.00     0.299 C 
ENDBRANCH  15  16
ENDBRANCH  14  15
ENDBRANCH  11  13
ENDBRANCH  10  11
ENDBRANCH   9  10
BRANCH   5  22
HETATM   22  C4  UNL     1      28.657  -1.091  53.212  1.00  0.00     0.051 C 
BRANCH  22  23
HETATM   23  C5  UNL     1      28.614  -2.403  53.135  1.00  0.00     0.133 C 
BRANCH  23  24
HETATM   24  O1  UNL     1      28.853  -3.747  53.362  1.00  0.00    -0.373 OA
HETATM   25  H4  UNL     1      29.424  -4.300  52.724  1.00  0.00     0.216 HD
ENDBRANCH  23  24
ENDBRANCH  22  23
ENDBRANCH   5  22
TORSDOF 8
ENDMDL
MODEL 9
REMARK VINA RESULT:      -6.5      2.877      4.283
REMARK  8 active torsions:
REMARK  status: ('A' for Active; 'I' for Inactive)
REMARK    1  A    between atoms: C3_5  and  C4_6 
REMARK    2  A    between atoms: C4_6  and  C5_7 
REMARK    3  A    between atoms: C5_7  and  O1_8 
REMARK    4  A    between atoms: N3_12  and  C9_13 
REMARK    5  A    between atoms: C9_13  and  C10_14 
REMARK    6  A    between atoms: C10_14  and  C11_16 
REMARK    7  A    between atoms: C12_17  and  C13_18 
REMARK    8  A    between atoms: C13_18  and  N4_19 
ROOT
HETATM    1  N1  UNL     1      26.828   3.007  50.213  1.00  0.00    -0.193 NA
HETATM    2  C1  UNL     1      26.748   2.622  51.297  1.00  0.00     0.108 C 
HETATM    3  C2  UNL     1      26.655   2.122  52.658  1.00  0.00     0.317 C 
HETATM    4  N2  UNL     1      27.597   1.097  52.950  1.00  0.00    -0.254 NA
HETATM    5  C3  UNL     1      27.663  -0.181  52.863  1.00  0.00     0.037 C 
HETATM    6  C6  UNL     1      26.594  -1.038  52.352  1.00  0.00     0.087 C 
HETATM    7  C7  UNL     1      25.360  -0.751  53.151  1.00  0.00    -0.004 C 
HETATM    8  C8  UNL     1      24.868   0.455  53.397  1.00  0.00     0.085 C 
HETATM    9  N3  UNL     1      25.290   1.745  53.031  1.00  0.00    -0.349 N 
ENDROOT
BRANCH   9  10
HETATM   10  C9  UNL     1      24.250   2.721  53.047  1.00  0.00     0.208 C 
BRANCH  10  11
HETATM   11  C10 UNL     1      23.060   2.336  52.254  1.00  0.00     0.166 C 
HETATM   12  O2  UNL     1      21.875   2.079  52.596  1.00  0.00    -0.291 OA
BRANCH  11  13
HETATM   13  C11 UNL     1      23.328   2.243  50.825  1.00  0.00     0.049 C 
HETATM   14  C12 UNL     1      22.563   2.605  49.812  1.00  0.00     0.007 C 
BRANCH  14  15
HETATM   15  C13 UNL     1      22.720   2.562  48.344  1.00  0.00     0.300 C 
BRANCH  15  16
HETATM   16  N4  UNL     1      21.427   2.481  47.676  1.00  0.00     0.096 N 
HETATM   17  C14 UNL     1      20.340   2.378  48.622  1.00  0.00     0.299 C 
HETATM   18  C15 UNL     1      19.310   3.457  48.397  1.00  0.00     0.198 C 
HETATM   19  O3  UNL     1      20.000   4.670  48.454  1.00  0.00    -0.388 OA
HETATM   20  C16 UNL     1      20.753   4.827  47.288  1.00  0.00     0.198 C 
HETATM   21  C17 UNL     1      21.251   3.531  46.714  1.00  0.00     0.299 C 
ENDBRANCH  15  16
ENDBRANCH  14  15
ENDBRANCH  11  13
ENDBRANCH  10  11
ENDBRANCH   9  10
BRANCH   5  22
HETATM   22  C4  UNL     1      28.897  -0.758  53.311  1.00  0.00     0.051 C 
BRANCH  22  23
HETATM   23  C5  UNL     1      29.096  -2.051  53.442  1.00  0.00     0.133 C 
BRANCH  23  24
HETATM   24  O1  UNL     1      28.912  -3.423  53.433  1.00  0.00    -0.373 OA
HETATM   25  H4  UNL     1      29.699  -4.065  53.511  1.00  0.00     0.216 HD
ENDBRANCH  23  24
ENDBRANCH  22  23
ENDBRANCH   5  22
TORSDOF 8
ENDMDL
