MODEL 1
REMARK VINA RESULT:      -8.1      0.000      0.000
REMARK  4 active torsions:
REMARK  status: ('A' for Active; 'I' for Inactive)
REMARK    1  A    between atoms: O1_1  and  C1_2 
REMARK    2  A    between atoms: C2_3  and  C3_4 
REMARK    3  A    between atoms: C3_4  and  C4_5 
REMARK    4  A    between atoms: C8_14  and  C9_15 
ROOT
HETATM    1  C4  UNL     1      23.937   0.020  53.243  1.00  0.00     0.038 C 
HETATM    2  N1  UNL     1      24.406  -0.721  54.168  1.00  0.00    -0.181 NA
HETATM    3  N2  UNL     1      25.619  -0.768  54.771  1.00  0.00    -0.255 N 
HETATM    4  C5  UNL     1      26.921  -0.231  54.650  1.00  0.00     0.189 A 
HETATM    5  N3  UNL     1      26.690   0.266  53.509  1.00  0.00    -0.198 NA
HETATM    6  C6  UNL     1      27.547   0.938  52.815  1.00  0.00     0.174 A 
HETATM    7  C7  UNL     1      28.907   1.194  53.297  1.00  0.00     0.111 A 
HETATM    8  S1  UNL     1      28.642   0.248  54.956  1.00  0.00    -0.058 SA
HETATM    9  O2  UNL     1      26.485   1.006  51.918  1.00  0.00    -0.323 OA
HETATM   10  C8  UNL     1      25.355   1.847  52.208  1.00  0.00     0.169 C 
HETATM   11  C15 UNL     1      24.060   1.128  52.236  1.00  0.00     0.094 C 
HETATM   12  H6  UNL     1      25.901  -1.306  55.605  1.00  0.00     0.191 HD
ENDROOT
BRANCH  10  13
HETATM   13  C9  UNL     1      25.417   2.931  51.218  1.00  0.00    -0.029 A 
HETATM   14  C10 UNL     1      24.383   3.848  51.308  1.00  0.00     0.011 A 
HETATM   15  C11 UNL     1      24.365   4.910  50.404  1.00  0.00     0.024 A 
HETATM   16  C12 UNL     1      25.327   5.084  49.432  1.00  0.00     0.034 A 
HETATM   17 CL1  UNL     1      25.263   6.441  48.314  1.00  0.00    -0.084 Cl
HETATM   18  C13 UNL     1      26.354   4.142  49.370  1.00  0.00     0.024 A 
HETATM   19  C14 UNL     1      26.392   3.082  50.253  1.00  0.00     0.011 A 
ENDBRANCH  10  13
BRANCH   1  20
HETATM   20  C3  UNL     1      22.514  -0.456  53.042  1.00  0.00     0.085 C 
BRANCH  20  21
HETATM   21  C2  UNL     1      21.529   0.504  53.563  1.00  0.00     0.003 C 
HETATM   22  C1  UNL     1      20.816   0.146  54.593  1.00  0.00     0.127 C 
BRANCH  22  23
HETATM   23  O1  UNL     1      21.195  -1.144  54.962  1.00  0.00    -0.373 OA
HETATM   24  H1  UNL     1      21.929  -1.208  55.675  1.00  0.00     0.216 HD
ENDBRANCH  22  23
ENDBRANCH  20  21
ENDBRANCH   1  20
TORSDOF 4
ENDMDL
MODEL 2
REMARK VINA RESULT:      -8.0      2.521      4.334
REMARK  4 active torsions:
REMARK  status: ('A' for Active; 'I' for Inactive)
REMARK    1  A    between atoms: O1_1  and  C1_2 
REMARK    2  A    between atoms: C2_3  and  C3_4 
REMARK    3  A    between atoms: C3_4  and  C4_5 
REMARK    4  A    between atoms: C8_14  and  C9_15 
ROOT
HETATM    1  C4  UNL     1      26.041   0.357  52.505  1.00  0.00     0.038 C 
HETATM    2  N1  UNL     1      25.217  -0.421  53.089  1.00  0.00    -0.181 NA
HETATM    3  N2  UNL     1      23.870  -0.388  53.222  1.00  0.00    -0.255 N 
HETATM    4  C5  UNL     1      22.768   0.465  52.979  1.00  0.00     0.189 A 
HETATM    5  N3  UNL     1      23.503   1.464  52.722  1.00  0.00    -0.198 NA
HETATM    6  C6  UNL     1      23.063   2.633  52.398  1.00  0.00     0.174 A 
HETATM    7  C7  UNL     1      21.630   2.924  52.297  1.00  0.00     0.111 A 
HETATM    8  S1  UNL     1      21.096   1.132  52.773  1.00  0.00    -0.058 SA
HETATM    9  O2  UNL     1      24.424   2.922  52.341  1.00  0.00    -0.323 OA
HETATM   10  C8  UNL     1      25.220   2.406  51.260  1.00  0.00     0.169 C 
HETATM   11  C15 UNL     1      26.370   1.582  51.699  1.00  0.00     0.094 C 
HETATM   12  H6  UNL     1      23.243  -1.116  53.597  1.00  0.00     0.191 HD
ENDROOT
BRANCH  10  13
HETATM   13  C9  UNL     1      25.595   3.582  50.463  1.00  0.00    -0.029 A 
HETATM   14  C10 UNL     1      26.746   3.419  49.710  1.00  0.00     0.011 A 
HETATM   15  C11 UNL     1      27.174   4.487  48.922  1.00  0.00     0.024 A 
HETATM   16  C12 UNL     1      26.504   5.691  48.863  1.00  0.00     0.034 A 
HETATM   17 CL1  UNL     1      27.083   7.011  47.855  1.00  0.00    -0.084 Cl
HETATM   18  C13 UNL     1      25.349   5.821  49.634  1.00  0.00     0.024 A 
HETATM   19  C14 UNL     1      24.906   4.777  50.421  1.00  0.00     0.011 A 
ENDBRANCH  10  13
BRANCH   1  20
HETATM   20  C3  UNL     1      27.402  -0.262  52.740  1.00  0.00     0.085 C 
BRANCH  20  21
HETATM   21  C2  UNL     1      28.358   0.699  53.312  1.00  0.00     0.003 C 
HETATM   22  C1  UNL     1      28.581   0.644  54.594  1.00  0.00     0.127 C 
BRANCH  22  23
HETATM   23  O1  UNL     1      27.806  -0.382  55.132  1.00  0.00    -0.373 OA
HETATM   24  H1  UNL     1      27.869  -0.507  56.147  1.00  0.00     0.216 HD
ENDBRANCH  22  23
ENDBRANCH  20  21
ENDBRANCH   1  20
TORSDOF 4
ENDMDL
MODEL 3
REMARK VINA RESULT:      -7.9      3.731      6.243
REMARK  4 active torsions:
REMARK  status: ('A' for Active; 'I' for Inactive)
REMARK    1  A    between atoms: O1_1  and  C1_2 
REMARK    2  A    between atoms: C2_3  and  C3_4 
REMARK    3  A    between atoms: C3_4  and  C4_5 
REMARK    4  A    between atoms: C8_14  and  C9_15 
ROOT
HETATM    1  C4  UNL     1      26.396   1.184  52.220  1.00  0.00     0.038 C 
HETATM    2  N1  UNL     1      27.118   2.098  51.701  1.00  0.00    -0.181 NA
HETATM    3  N2  UNL     1      26.809   3.255  51.070  1.00  0.00    -0.255 N 
HETATM    4  C5  UNL     1      25.694   3.951  50.548  1.00  0.00     0.189 A 
HETATM    5  N3  UNL     1      24.920   2.957  50.674  1.00  0.00    -0.198 NA
HETATM    6  C6  UNL     1      23.670   2.957  50.353  1.00  0.00     0.174 A 
HETATM    7  C7  UNL     1      23.010   4.139  49.793  1.00  0.00     0.111 A 
HETATM    8  S1  UNL     1      24.606   5.221  49.849  1.00  0.00    -0.058 SA
HETATM    9  O2  UNL     1      23.748   1.642  50.806  1.00  0.00    -0.323 OA
HETATM   10  C8  UNL     1      23.869   1.377  52.214  1.00  0.00     0.169 C 
HETATM   11  C15 UNL     1      25.066   0.582  52.577  1.00  0.00     0.094 C 
HETATM   12  H6  UNL     1      27.440   4.020  50.784  1.00  0.00     0.191 HD
ENDROOT
BRANCH  10  13
HETATM   13  C9  UNL     1      22.597   0.752  52.600  1.00  0.00    -0.029 A 
HETATM   14  C10 UNL     1      21.625   0.778  51.613  1.00  0.00     0.011 A 
HETATM   15  C11 UNL     1      20.385   0.205  51.896  1.00  0.00     0.024 A 
HETATM   16  C12 UNL     1      20.088  -0.382  53.108  1.00  0.00     0.034 A 
HETATM   17 CL1  UNL     1      18.509  -1.092  53.418  1.00  0.00    -0.084 Cl
HETATM   18  C13 UNL     1      21.091  -0.390  54.078  1.00  0.00     0.024 A 
HETATM   19  C14 UNL     1      22.325   0.171  53.821  1.00  0.00     0.011 A 
ENDBRANCH  10  13
BRANCH   1  20
HETATM   20  C3  UNL     1      27.378   0.165  52.760  1.00  0.00     0.085 C 
BRANCH  20  21
HETATM   21  C2  UNL     1      27.603   0.324  54.204  1.00  0.00     0.003 C 
HETATM   22  C1  UNL     1      28.773   0.744  54.595  1.00  0.00     0.127 C 
BRANCH  22  23
HETATM   23  O1  UNL     1      29.565   0.949  53.467  1.00  0.00    -0.373 OA
HETATM   24  H1  UNL     1      29.749   0.121  52.891  1.00  0.00     0.216 HD
ENDBRANCH  22  23
ENDBRANCH  20  21
ENDBRANCH   1  20
TORSDOF 4
ENDMDL
MODEL 4
REMARK VINA RESULT:      -7.9      3.664      5.108
REMARK  4 active torsions:
REMARK  status: ('A' for Active; 'I' for Inactive)
REMARK    1  A    between atoms: O1_1  and  C1_2 
REMARK    2  A    between atoms: C2_3  and  C3_4 
REMARK    3  A    between atoms: C3_4  and  C4_5 
REMARK    4  A    between atoms: C8_14  and  C9_15 
ROOT
HETATM    1  C4  UNL     1      22.352   1.301  52.630  1.00  0.00     0.038 C 
HETATM    2  N1  UNL     1      21.559   2.005  51.923  1.00  0.00    -0.181 NA
HETATM    3  N2  UNL     1      21.773   2.875  50.907  1.00  0.00    -0.255 N 
HETATM    4  C5  UNL     1      22.828   3.539  50.240  1.00  0.00     0.189 A 
HETATM    5  N3  UNL     1      23.687   3.200  51.106  1.00  0.00    -0.198 NA
HETATM    6  C6  UNL     1      24.938   3.516  51.059  1.00  0.00     0.174 A 
HETATM    7  C7  UNL     1      25.496   4.321  49.970  1.00  0.00     0.111 A 
HETATM    8  S1  UNL     1      23.807   4.501  49.057  1.00  0.00    -0.058 SA
HETATM    9  O2  UNL     1      24.973   2.786  52.245  1.00  0.00    -0.323 OA
HETATM   10  C8  UNL     1      24.850   1.353  52.206  1.00  0.00     0.169 C 
HETATM   11  C15 UNL     1      23.725   0.823  53.012  1.00  0.00     0.094 C 
HETATM   12  H6  UNL     1      21.079   3.321  50.286  1.00  0.00     0.191 HD
ENDROOT
BRANCH  10  13
HETATM   13  C9  UNL     1      26.168   0.843  52.610  1.00  0.00    -0.029 A 
HETATM   14  C10 UNL     1      26.293  -0.534  52.541  1.00  0.00     0.011 A 
HETATM   15  C11 UNL     1      27.513  -1.103  52.907  1.00  0.00     0.024 A 
HETATM   16  C12 UNL     1      28.592  -0.356  53.331  1.00  0.00     0.034 A 
HETATM   17 CL1  UNL     1      30.111  -1.118  53.783  1.00  0.00    -0.084 Cl
HETATM   18  C13 UNL     1      28.430   1.029  53.389  1.00  0.00     0.024 A 
HETATM   19  C14 UNL     1      27.232   1.613  53.032  1.00  0.00     0.011 A 
ENDBRANCH  10  13
BRANCH   1  20
HETATM   20  C3  UNL     1      21.459   0.550  53.594  1.00  0.00     0.085 C 
BRANCH  20  21
HETATM   21  C2  UNL     1      22.141  -0.605  54.197  1.00  0.00     0.003 C 
HETATM   22  C1  UNL     1      21.412  -1.629  54.544  1.00  0.00     0.127 C 
BRANCH  22  23
HETATM   23  O1  UNL     1      20.083  -1.347  54.233  1.00  0.00    -0.373 OA
HETATM   24  H1  UNL     1      19.778  -1.609  53.290  1.00  0.00     0.216 HD
ENDBRANCH  22  23
ENDBRANCH  20  21
ENDBRANCH   1  20
TORSDOF 4
ENDMDL
MODEL 5
REMARK VINA RESULT:      -7.5      2.365      4.628
REMARK  4 active torsions:
REMARK  status: ('A' for Active; 'I' for Inactive)
REMARK    1  A    between atoms: O1_1  and  C1_2 
REMARK    2  A    between atoms: C2_3  and  C3_4 
REMARK    3  A    between atoms: C3_4  and  C4_5 
REMARK    4  A    between atoms: C8_14  and  C9_15 
ROOT
HETATM    1  C4  UNL     1      26.255   0.394  54.084  1.00  0.00     0.038 C 
HETATM    2  N1  UNL     1      25.976  -0.499  54.951  1.00  0.00    -0.181 NA
HETATM    3  N2  UNL     1      24.847  -1.203  55.202  1.00  0.00    -0.255 N 
HETATM    4  C5  UNL     1      23.484  -1.252  54.830  1.00  0.00     0.189 A 
HETATM    5  N3  UNL     1      23.534  -0.145  54.218  1.00  0.00    -0.198 NA
HETATM    6  C6  UNL     1      22.536   0.401  53.609  1.00  0.00     0.174 A 
HETATM    7  C7  UNL     1      21.211  -0.224  53.571  1.00  0.00     0.111 A 
HETATM    8  S1  UNL     1      21.758  -1.758  54.604  1.00  0.00    -0.058 SA
HETATM    9  O2  UNL     1      23.484   1.383  53.334  1.00  0.00    -0.323 OA
HETATM   10  C8  UNL     1      24.528   1.121  52.379  1.00  0.00     0.169 C 
HETATM   11  C15 UNL     1      25.896   1.279  52.924  1.00  0.00     0.094 C 
HETATM   12  H6  UNL     1      24.719  -2.007  55.837  1.00  0.00     0.191 HD
ENDROOT
BRANCH  10  13
HETATM   13  C9  UNL     1      24.234   1.998  51.237  1.00  0.00    -0.029 A 
HETATM   14  C10 UNL     1      22.955   1.861  50.725  1.00  0.00     0.011 A 
HETATM   15  C11 UNL     1      22.592   2.656  49.638  1.00  0.00     0.024 A 
HETATM   16  C12 UNL     1      23.447   3.568  49.057  1.00  0.00     0.034 A 
HETATM   17 CL1  UNL     1      22.945   4.550  47.688  1.00  0.00    -0.084 Cl
HETATM   18  C13 UNL     1      24.729   3.680  49.599  1.00  0.00     0.024 A 
HETATM   19  C14 UNL     1      25.110   2.903  50.673  1.00  0.00     0.011 A 
ENDBRANCH  10  13
BRANCH   1  20
HETATM   20  C3  UNL     1      27.697   0.767  54.355  1.00  0.00     0.085 C 
BRANCH  20  21
HETATM   21  C2  UNL     1      28.616  -0.355  54.111  1.00  0.00     0.003 C 
HETATM   22  C1  UNL     1      29.737  -0.101  53.498  1.00  0.00     0.127 C 
BRANCH  22  23
HETATM   23  O1  UNL     1      29.782   1.262  53.211  1.00  0.00    -0.373 OA
HETATM   24  H1  UNL     1      29.548   1.526  52.248  1.00  0.00     0.216 HD
ENDBRANCH  22  23
ENDBRANCH  20  21
ENDBRANCH   1  20
TORSDOF 4
ENDMDL
MODEL 6
REMARK VINA RESULT:      -7.4      3.700      6.173
REMARK  4 active torsions:
REMARK  status: ('A' for Active; 'I' for Inactive)
REMARK    1  A    between atoms: O1_1  and  C1_2 
REMARK    2  A    between atoms: C2_3  and  C3_4 
REMARK    3  A    between atoms: C3_4  and  C4_5 
REMARK    4  A    between atoms: C8_14  and  C9_15 
ROOT
HETATM    1  C4  UNL     1      23.213   3.447  52.062  1.00  0.00     0.038 C 
HETATM    2  N1  UNL     1      21.939   3.509  52.071  1.00  0.00    -0.181 NA
HETATM    3  N2  UNL     1      20.989   2.654  52.519  1.00  0.00    -0.255 N 
HETATM    4  C5  UNL     1      20.849   1.336  53.012  1.00  0.00     0.189 A 
HETATM    5  N3  UNL     1      22.034   1.016  52.705  1.00  0.00    -0.198 NA
HETATM    6  C6  UNL     1      22.558  -0.144  52.919  1.00  0.00     0.174 A 
HETATM    7  C7  UNL     1      21.808  -1.232  53.552  1.00  0.00     0.111 A 
HETATM    8  S1  UNL     1      20.201  -0.184  53.757  1.00  0.00    -0.058 SA
HETATM    9  O2  UNL     1      23.666   0.456  52.327  1.00  0.00    -0.323 OA
HETATM   10  C8  UNL     1      24.415   1.448  53.052  1.00  0.00     0.169 C 
HETATM   11  C15 UNL     1      24.513   2.754  52.360  1.00  0.00     0.094 C 
HETATM   12  H6  UNL     1      19.974   2.815  52.617  1.00  0.00     0.191 HD
ENDROOT
BRANCH  10  13
HETATM   13  C9  UNL     1      25.714   0.821  53.333  1.00  0.00    -0.029 A 
HETATM   14  C10 UNL     1      26.264   0.139  52.261  1.00  0.00     0.011 A 
HETATM   15  C11 UNL     1      27.497  -0.486  52.442  1.00  0.00     0.024 A 
HETATM   16  C12 UNL     1      28.187  -0.454  53.635  1.00  0.00     0.034 A 
HETATM   17 CL1  UNL     1      29.741  -1.258  53.815  1.00  0.00    -0.084 Cl
HETATM   18  C13 UNL     1      27.604   0.242  54.694  1.00  0.00     0.024 A 
HETATM   19  C14 UNL     1      26.384   0.868  54.539  1.00  0.00     0.011 A 
ENDBRANCH  10  13
BRANCH   1  20
HETATM   20  C3  UNL     1      23.665   4.738  51.414  1.00  0.00     0.085 C 
BRANCH  20  21
HETATM   21  C2  UNL     1      23.845   4.596  49.961  1.00  0.00     0.003 C 
HETATM   22  C1  UNL     1      24.948   5.052  49.438  1.00  0.00     0.127 C 
BRANCH  22  23
HETATM   23  O1  UNL     1      25.727   5.594  50.459  1.00  0.00    -0.373 OA
HETATM   24  H1  UNL     1      26.138   4.921  51.115  1.00  0.00     0.216 HD
ENDBRANCH  22  23
ENDBRANCH  20  21
ENDBRANCH   1  20
TORSDOF 4
ENDMDL
MODEL 7
REMARK VINA RESULT:      -7.3      3.220      5.694
REMARK  4 active torsions:
REMARK  status: ('A' for Active; 'I' for Inactive)
REMARK    1  A    between atoms: O1_1  and  C1_2 
REMARK    2  A    between atoms: C2_3  and  C3_4 
REMARK    3  A    between atoms: C3_4  and  C4_5 
REMARK    4  A    between atoms: C8_14  and  C9_15 
ROOT
HETATM    1  C4  UNL     1      24.864   3.112  50.929  1.00  0.00     0.038 C 
HETATM    2  N1  UNL     1      26.114   3.369  50.930  1.00  0.00    -0.181 NA
HETATM    3  N2  UNL     1      27.159   2.806  51.582  1.00  0.00    -0.255 N 
HETATM    4  C5  UNL     1      27.433   1.866  52.602  1.00  0.00     0.189 A 
HETATM    5  N3  UNL     1      26.221   1.791  52.961  1.00  0.00    -0.198 NA
HETATM    6  C6  UNL     1      25.785   1.039  53.915  1.00  0.00     0.174 A 
HETATM    7  C7  UNL     1      26.678   0.180  54.698  1.00  0.00     0.111 A 
HETATM    8  S1  UNL     1      28.259   0.716  53.733  1.00  0.00    -0.058 SA
HETATM    9  O2  UNL     1      24.566   1.600  53.546  1.00  0.00    -0.323 OA
HETATM   10  C8  UNL     1      23.939   1.202  52.314  1.00  0.00     0.169 C 
HETATM   11  C15 UNL     1      23.669   2.324  51.385  1.00  0.00     0.094 C 
HETATM   12  H6  UNL     1      28.168   2.974  51.444  1.00  0.00     0.191 HD
ENDROOT
BRANCH  10  13
HETATM   13  C9  UNL     1      22.739   0.455  52.715  1.00  0.00    -0.029 A 
HETATM   14  C10 UNL     1      21.574   0.867  52.090  1.00  0.00     0.011 A 
HETATM   15  C11 UNL     1      20.386   0.210  52.414  1.00  0.00     0.024 A 
HETATM   16  C12 UNL     1      20.325  -0.825  53.323  1.00  0.00     0.034 A 
HETATM   17 CL1  UNL     1      18.804  -1.623  53.699  1.00  0.00    -0.084 Cl
HETATM   18  C13 UNL     1      21.518  -1.213  53.934  1.00  0.00     0.024 A 
HETATM   19  C14 UNL     1      22.705  -0.578  53.630  1.00  0.00     0.011 A 
ENDBRANCH  10  13
BRANCH   1  20
HETATM   20  C3  UNL     1      24.256   4.122  49.980  1.00  0.00     0.085 C 
BRANCH  20  21
HETATM   21  C2  UNL     1      23.276   4.992  50.649  1.00  0.00     0.003 C 
HETATM   22  C1  UNL     1      23.696   6.132  51.118  1.00  0.00     0.127 C 
BRANCH  22  23
HETATM   23  O1  UNL     1      25.059   6.244  50.847  1.00  0.00    -0.373 OA
HETATM   24  H1  UNL     1      25.691   5.894  51.575  1.00  0.00     0.216 HD
ENDBRANCH  22  23
ENDBRANCH  20  21
ENDBRANCH   1  20
TORSDOF 4
ENDMDL
MODEL 8
REMARK VINA RESULT:      -7.3      3.927      6.538
REMARK  4 active torsions:
REMARK  status: ('A' for Active; 'I' for Inactive)
REMARK    1  A    between atoms: O1_1  and  C1_2 
REMARK    2  A    between atoms: C2_3  and  C3_4 
REMARK    3  A    between atoms: C3_4  and  C4_5 
REMARK    4  A    between atoms: C8_14  and  C9_15 
ROOT
HETATM    1  C4  UNL     1      24.629   0.438  53.431  1.00  0.00     0.038 C 
HETATM    2  N1  UNL     1      25.417   1.437  53.352  1.00  0.00    -0.181 NA
HETATM    3  N2  UNL     1      25.204   2.747  53.079  1.00  0.00    -0.255 N 
HETATM    4  C5  UNL     1      24.183   3.618  52.634  1.00  0.00     0.189 A 
HETATM    5  N3  UNL     1      23.410   2.669  52.312  1.00  0.00    -0.198 NA
HETATM    6  C6  UNL     1      22.231   2.822  51.811  1.00  0.00     0.174 A 
HETATM    7  C7  UNL     1      21.660   4.148  51.558  1.00  0.00     0.111 A 
HETATM    8  S1  UNL     1      23.213   5.089  52.209  1.00  0.00    -0.058 SA
HETATM    9  O2  UNL     1      22.247   1.430  51.830  1.00  0.00    -0.323 OA
HETATM   10  C8  UNL     1      22.136   0.730  53.081  1.00  0.00     0.169 C 
HETATM   11  C15 UNL     1      23.265  -0.188  53.360  1.00  0.00     0.094 C 
HETATM   12  H6  UNL     1      25.865   3.535  53.156  1.00  0.00     0.191 HD
ENDROOT
BRANCH  10  13
HETATM   13  C9  UNL     1      20.824   0.070  53.039  1.00  0.00    -0.029 A 
HETATM   14  C10 UNL     1      19.964   0.569  52.075  1.00  0.00     0.011 A 
HETATM   15  C11 UNL     1      18.696  -0.001  51.966  1.00  0.00     0.024 A 
HETATM   16  C12 UNL     1      18.266  -1.034  52.772  1.00  0.00     0.034 A 
HETATM   17 CL1  UNL     1      16.657  -1.722  52.597  1.00  0.00    -0.084 Cl
HETATM   18  C13 UNL     1      19.158  -1.512  53.732  1.00  0.00     0.024 A 
HETATM   19  C14 UNL     1      20.418  -0.963  53.858  1.00  0.00     0.011 A 
ENDBRANCH  10  13
BRANCH   1  20
HETATM   20  C3  UNL     1      25.519  -0.739  53.769  1.00  0.00     0.085 C 
BRANCH  20  21
HETATM   21  C2  UNL     1      26.516  -1.000  52.720  1.00  0.00     0.003 C 
HETATM   22  C1  UNL     1      27.775  -0.934  53.049  1.00  0.00     0.127 C 
BRANCH  22  23
HETATM   23  O1  UNL     1      27.860  -0.613  54.402  1.00  0.00    -0.373 OA
HETATM   24  H1  UNL     1      28.701  -0.101  54.690  1.00  0.00     0.216 HD
ENDBRANCH  22  23
ENDBRANCH  20  21
ENDBRANCH   1  20
TORSDOF 4
ENDMDL
MODEL 9
REMARK VINA RESULT:      -7.1      4.601      6.036
REMARK  4 active torsions:
REMARK  status: ('A' for Active; 'I' for Inactive)
REMARK    1  A    between atoms: O1_1  and  C1_2 
REMARK    2  A    between atoms: C2_3  and  C3_4 
REMARK    3  A    between atoms: C3_4  and  C4_5 
REMARK    4  A    between atoms: C8_14  and  C9_15 
ROOT
HETATM    1  C4  UNL     1      19.959   0.471  51.520  1.00  0.00     0.038 C 
HETATM    2  N1  UNL     1      19.282   0.761  50.479  1.00  0.00    -0.181 NA
HETATM    3  N2  UNL     1      19.615   1.367  49.314  1.00  0.00    -0.255 N 
HETATM    4  C5  UNL     1      20.687   2.068  48.715  1.00  0.00     0.189 A 
HETATM    5  N3  UNL     1      21.322   2.177  49.804  1.00  0.00    -0.198 NA
HETATM    6  C6  UNL     1      22.468   2.759  49.928  1.00  0.00     0.174 A 
HETATM    7  C7  UNL     1      23.159   3.368  48.788  1.00  0.00     0.111 A 
HETATM    8  S1  UNL     1      21.776   2.899  47.528  1.00  0.00    -0.058 SA
HETATM    9  O2  UNL     1      22.301   2.387  51.260  1.00  0.00    -0.323 OA
HETATM   10  C8  UNL     1      22.433   1.006  51.639  1.00  0.00     0.169 C 
HETATM   11  C15 UNL     1      21.237   0.448  52.311  1.00  0.00     0.094 C 
HETATM   12  H6  UNL     1      19.053   1.459  48.454  1.00  0.00     0.191 HD
ENDROOT
BRANCH  10  13
HETATM   13  C9  UNL     1      23.657   0.945  52.449  1.00  0.00    -0.029 A 
HETATM   14  C10 UNL     1      23.920  -0.299  52.997  1.00  0.00     0.011 A 
HETATM   15  C11 UNL     1      25.064  -0.446  53.781  1.00  0.00     0.024 A 
HETATM   16  C12 UNL     1      25.939   0.590  54.032  1.00  0.00     0.034 A 
HETATM   17 CL1  UNL     1      27.370   0.357  55.028  1.00  0.00    -0.084 Cl
HETATM   18  C13 UNL     1      25.644   1.830  53.465  1.00  0.00     0.024 A 
HETATM   19  C14 UNL     1      24.517   1.999  52.686  1.00  0.00     0.011 A 
ENDBRANCH  10  13
BRANCH   1  20
HETATM   20  C3  UNL     1      18.976  -0.199  52.455  1.00  0.00     0.085 C 
BRANCH  20  21
HETATM   21  C2  UNL     1      17.650  -0.365  51.839  1.00  0.00     0.003 C 
HETATM   22  C1  UNL     1      16.698  -0.866  52.574  1.00  0.00     0.127 C 
BRANCH  22  23
HETATM   23  O1  UNL     1      17.214  -1.133  53.840  1.00  0.00    -0.373 OA
HETATM   24  H1  UNL     1      16.745  -0.665  54.623  1.00  0.00     0.216 HD
ENDBRANCH  22  23
ENDBRANCH  20  21
ENDBRANCH   1  20
TORSDOF 4
ENDMDL
