MODEL 1
REMARK VINA RESULT:      -7.8      0.000      0.000
REMARK  9 active torsions:
REMARK  status: ('A' for Active; 'I' for Inactive)
REMARK    1  A    between atoms: C5_6  and  C6_7 
REMARK       I    between atoms: C6_7  and  N1_9 
REMARK    2  A    between atoms: C8_12  and  C9_13 
REMARK    3  A    between atoms: C9_13  and  C10_14 
REMARK    4  A    between atoms: C11_15  and  N3_16 
REMARK    5  A    between atoms: C11_15  and  C12_17 
REMARK    6  A    between atoms: C12_17  and  C13_18 
REMARK    7  A    between atoms: C13_18  and  C14_19 
REMARK    8  A    between atoms: C14_19  and  S2_20 
REMARK    9  A    between atoms: S2_20  and  N4_21 
ROOT
HETATM    1  C9  UNL     1      24.768   3.132  50.246  1.00  0.00     0.112 C 
ENDROOT
BRANCH   1   2
HETATM    2  C8  UNL     1      24.535   2.211  51.406  1.00  0.00     0.151 A 
HETATM    3  N2  UNL     1      23.409   1.895  52.052  1.00  0.00    -0.225 NA
HETATM    4  C7  UNL     1      23.695   1.014  53.041  1.00  0.00     0.240 A 
HETATM    5  N1  UNL     1      25.022   0.823  52.954  1.00  0.00    -0.188 N 
HETATM    6  C6  UNL     1      25.686  -0.056  53.851  1.00  0.00     0.286 C 
HETATM    7  N5  UNL     1      25.550   1.534  51.974  1.00  0.00    -0.148 NA
HETATM    8  O1  UNL     1      25.062  -0.663  54.730  1.00  0.00    -0.265 OA
BRANCH   6   9
HETATM    9  C5  UNL     1      27.126  -0.230  53.714  1.00  0.00     0.080 A 
HETATM   10  C2  UNL     1      27.802  -1.250  53.086  1.00  0.00    -0.039 A 
HETATM   11  C1  UNL     1      27.031  -2.356  52.436  1.00  0.00     0.050 C 
HETATM   12  C3  UNL     1      29.153  -1.242  53.061  1.00  0.00     0.015 A 
HETATM   13  C4  UNL     1      29.774  -0.091  53.740  1.00  0.00     0.051 A 
HETATM   14  S1  UNL     1      28.320   0.860  54.343  1.00  0.00    -0.096 SA
ENDBRANCH   6   9
ENDBRANCH   1   2
BRANCH   1  15
HETATM   15  C10 UNL     1      26.237   3.163  50.059  1.00  0.00     0.010 C 
HETATM   16  C11 UNL     1      26.778   4.161  49.404  1.00  0.00     0.021 C 
BRANCH  16  17
HETATM   17  N3  UNL     1      25.689   4.991  49.038  1.00  0.00    -0.399 N 
HETATM   18  H10 UNL     1      24.858   5.542  48.724  1.00  0.00     0.156 HD
HETATM   19  H11 UNL     1      25.444   5.963  49.283  1.00  0.00     0.156 HD
ENDBRANCH  16  17
BRANCH  16  20
HETATM   20  C12 UNL     1      27.763   5.014  48.789  1.00  0.00     0.025 C 
BRANCH  20  21
HETATM   21  C13 UNL     1      28.926   5.246  48.232  1.00  0.00    -0.008 C 
BRANCH  21  22
HETATM   22  C14 UNL     1      29.870   6.382  48.229  1.00  0.00     0.184 C 
BRANCH  22  23
HETATM   23  S2  UNL     1      31.474   5.775  48.768  1.00  0.00     0.210 S 
HETATM   24  O2  UNL     1      32.533   6.746  48.400  1.00  0.00    -0.211 OA
HETATM   25  O3  UNL     1      31.725   4.451  48.073  1.00  0.00    -0.211 OA
BRANCH  23  26
HETATM   26  N4  UNL     1      31.368   5.480  50.462  1.00  0.00    -0.229 NA
HETATM   27  H16 UNL     1      32.136   5.954  50.961  1.00  0.00     0.136 HD
HETATM   28  H17 UNL     1      30.414   5.656  50.833  1.00  0.00     0.136 HD
ENDBRANCH  23  26
ENDBRANCH  22  23
ENDBRANCH  21  22
ENDBRANCH  20  21
ENDBRANCH  16  20
ENDBRANCH   1  15
TORSDOF 9
ENDMDL
MODEL 2
REMARK VINA RESULT:      -7.5      2.209      2.448
REMARK  9 active torsions:
REMARK  status: ('A' for Active; 'I' for Inactive)
REMARK    1  A    between atoms: C5_6  and  C6_7 
REMARK       I    between atoms: C6_7  and  N1_9 
REMARK    2  A    between atoms: C8_12  and  C9_13 
REMARK    3  A    between atoms: C9_13  and  C10_14 
REMARK    4  A    between atoms: C11_15  and  N3_16 
REMARK    5  A    between atoms: C11_15  and  C12_17 
REMARK    6  A    between atoms: C12_17  and  C13_18 
REMARK    7  A    between atoms: C13_18  and  C14_19 
REMARK    8  A    between atoms: C14_19  and  S2_20 
REMARK    9  A    between atoms: S2_20  and  N4_21 
ROOT
HETATM    1  C9  UNL     1      26.838   3.630  49.533  1.00  0.00     0.112 C 
ENDROOT
BRANCH   1   2
HETATM    2  C8  UNL     1      26.220   2.987  50.739  1.00  0.00     0.151 A 
HETATM    3  N2  UNL     1      25.018   3.159  51.295  1.00  0.00    -0.225 NA
HETATM    4  C7  UNL     1      24.909   2.353  52.379  1.00  0.00     0.240 A 
HETATM    5  N1  UNL     1      26.084   1.704  52.441  1.00  0.00    -0.188 N 
HETATM    6  C6  UNL     1      26.334   0.758  53.471  1.00  0.00     0.286 C 
HETATM    7  N5  UNL     1      26.891   2.069  51.461  1.00  0.00    -0.148 NA
HETATM    8  O1  UNL     1      25.481   0.512  54.332  1.00  0.00    -0.265 OA
BRANCH   6   9
HETATM    9  C5  UNL     1      27.624   0.080  53.493  1.00  0.00     0.080 A 
HETATM   10  C2  UNL     1      27.922  -1.191  53.062  1.00  0.00    -0.039 A 
HETATM   11  C1  UNL     1      26.839  -2.048  52.484  1.00  0.00     0.050 C 
HETATM   12  C3  UNL     1      29.187  -1.653  53.164  1.00  0.00     0.015 A 
HETATM   13  C4  UNL     1      30.145  -0.699  53.751  1.00  0.00     0.051 A 
HETATM   14  S1  UNL     1      29.098   0.773  54.092  1.00  0.00    -0.096 SA
ENDBRANCH   6   9
ENDBRANCH   1   2
BRANCH   1  15
HETATM   15  C10 UNL     1      25.987   4.803  49.234  1.00  0.00     0.010 C 
HETATM   16  C11 UNL     1      26.552   5.934  48.889  1.00  0.00     0.021 C 
BRANCH  16  17
HETATM   17  N3  UNL     1      27.943   5.667  48.908  1.00  0.00    -0.399 N 
HETATM   18  H10 UNL     1      28.963   5.456  49.000  1.00  0.00     0.156 HD
HETATM   19  H11 UNL     1      28.662   5.673  48.166  1.00  0.00     0.156 HD
ENDBRANCH  16  17
BRANCH  16  20
HETATM   20  C12 UNL     1      26.719   7.307  48.487  1.00  0.00     0.025 C 
BRANCH  20  21
HETATM   21  C13 UNL     1      27.138   8.536  48.663  1.00  0.00    -0.008 C 
BRANCH  21  22
HETATM   22  C14 UNL     1      27.964   9.218  49.680  1.00  0.00     0.184 C 
BRANCH  22  23
HETATM   23  S2  UNL     1      29.658   9.267  49.082  1.00  0.00     0.210 S 
HETATM   24  O2  UNL     1      29.714   9.972  47.778  1.00  0.00    -0.211 OA
HETATM   25  O3  UNL     1      30.131   7.836  48.914  1.00  0.00    -0.211 OA
BRANCH  23  26
HETATM   26  N4  UNL     1      30.614  10.008  50.308  1.00  0.00    -0.229 NA
HETATM   27  H16 UNL     1      30.076  10.744  50.791  1.00  0.00     0.136 HD
HETATM   28  H17 UNL     1      31.074   9.310  50.924  1.00  0.00     0.136 HD
ENDBRANCH  23  26
ENDBRANCH  22  23
ENDBRANCH  21  22
ENDBRANCH  20  21
ENDBRANCH  16  20
ENDBRANCH   1  15
TORSDOF 9
ENDMDL
MODEL 3
REMARK VINA RESULT:      -7.5      2.386      2.481
REMARK  9 active torsions:
REMARK  status: ('A' for Active; 'I' for Inactive)
REMARK    1  A    between atoms: C5_6  and  C6_7 
REMARK       I    between atoms: C6_7  and  N1_9 
REMARK    2  A    between atoms: C8_12  and  C9_13 
REMARK    3  A    between atoms: C9_13  and  C10_14 
REMARK    4  A    between atoms: C11_15  and  N3_16 
REMARK    5  A    between atoms: C11_15  and  C12_17 
REMARK    6  A    between atoms: C12_17  and  C13_18 
REMARK    7  A    between atoms: C13_18  and  C14_19 
REMARK    8  A    between atoms: C14_19  and  S2_20 
REMARK    9  A    between atoms: S2_20  and  N4_21 
ROOT
HETATM    1  C9  UNL     1      24.741   3.219  50.254  1.00  0.00     0.112 C 
ENDROOT
BRANCH   1   2
HETATM    2  C8  UNL     1      24.462   2.228  51.344  1.00  0.00     0.151 A 
HETATM    3  N2  UNL     1      23.308   1.843  51.893  1.00  0.00    -0.225 NA
HETATM    4  C7  UNL     1      23.557   0.916  52.851  1.00  0.00     0.240 A 
HETATM    5  N1  UNL     1      24.892   0.772  52.846  1.00  0.00    -0.188 N 
HETATM    6  C6  UNL     1      25.524  -0.135  53.737  1.00  0.00     0.286 C 
HETATM    7  N5  UNL     1      25.460   1.552  51.944  1.00  0.00    -0.148 NA
HETATM    8  O1  UNL     1      24.864  -0.809  54.538  1.00  0.00    -0.265 OA
BRANCH   6   9
HETATM    9  C5  UNL     1      26.976  -0.257  53.691  1.00  0.00     0.080 A 
HETATM   10  C2  UNL     1      27.727  -1.232  53.078  1.00  0.00    -0.039 A 
HETATM   11  C1  UNL     1      27.039  -2.341  52.344  1.00  0.00     0.050 C 
HETATM   12  C3  UNL     1      29.075  -1.179  53.143  1.00  0.00     0.015 A 
HETATM   13  C4  UNL     1      29.610  -0.031  53.897  1.00  0.00     0.051 A 
HETATM   14  S1  UNL     1      28.087   0.851  54.432  1.00  0.00    -0.096 SA
ENDBRANCH   6   9
ENDBRANCH   1   2
BRANCH   1  15
HETATM   15  C10 UNL     1      26.199   3.136  50.011  1.00  0.00     0.010 C 
HETATM   16  C11 UNL     1      26.793   4.096  49.345  1.00  0.00     0.021 C 
BRANCH  16  17
HETATM   17  N3  UNL     1      25.761   5.013  49.028  1.00  0.00    -0.399 N 
HETATM   18  H10 UNL     1      24.958   5.628  48.766  1.00  0.00     0.156 HD
HETATM   19  H11 UNL     1      25.682   6.036  49.144  1.00  0.00     0.156 HD
ENDBRANCH  16  17
BRANCH  16  20
HETATM   20  C12 UNL     1      27.820   4.874  48.701  1.00  0.00     0.025 C 
BRANCH  20  21
HETATM   21  C13 UNL     1      28.278   5.955  48.117  1.00  0.00    -0.008 C 
BRANCH  21  22
HETATM   22  C14 UNL     1      28.618   7.319  48.572  1.00  0.00     0.184 C 
BRANCH  22  23
HETATM   23  S2  UNL     1      27.082   8.208  48.858  1.00  0.00     0.210 S 
HETATM   24  O2  UNL     1      26.102   7.882  47.794  1.00  0.00    -0.211 OA
HETATM   25  O3  UNL     1      27.396   9.692  48.832  1.00  0.00    -0.211 OA
BRANCH  23  26
HETATM   26  N4  UNL     1      26.541   7.802  50.442  1.00  0.00    -0.229 NA
HETATM   27  H16 UNL     1      25.632   8.247  50.639  1.00  0.00     0.136 HD
HETATM   28  H17 UNL     1      26.591   6.782  50.626  1.00  0.00     0.136 HD
ENDBRANCH  23  26
ENDBRANCH  22  23
ENDBRANCH  21  22
ENDBRANCH  20  21
ENDBRANCH  16  20
ENDBRANCH   1  15
TORSDOF 9
ENDMDL
MODEL 4
REMARK VINA RESULT:      -6.9      2.806      8.210
REMARK  9 active torsions:
REMARK  status: ('A' for Active; 'I' for Inactive)
REMARK    1  A    between atoms: C5_6  and  C6_7 
REMARK       I    between atoms: C6_7  and  N1_9 
REMARK    2  A    between atoms: C8_12  and  C9_13 
REMARK    3  A    between atoms: C9_13  and  C10_14 
REMARK    4  A    between atoms: C11_15  and  N3_16 
REMARK    5  A    between atoms: C11_15  and  C12_17 
REMARK    6  A    between atoms: C12_17  and  C13_18 
REMARK    7  A    between atoms: C13_18  and  C14_19 
REMARK    8  A    between atoms: C14_19  and  S2_20 
REMARK    9  A    between atoms: S2_20  and  N4_21 
ROOT
HETATM    1  C9  UNL     1      26.180   6.463  48.964  1.00  0.00     0.112 C 
ENDROOT
BRANCH   1   2
HETATM    2  C8  UNL     1      27.314   7.442  49.025  1.00  0.00     0.151 A 
HETATM    3  N2  UNL     1      27.338   8.723  49.400  1.00  0.00    -0.225 NA
HETATM    4  C7  UNL     1      28.602   9.199  49.285  1.00  0.00     0.240 A 
HETATM    5  N1  UNL     1      29.317   8.157  48.831  1.00  0.00    -0.188 N 
HETATM    6  C6  UNL     1      30.710   8.288  48.588  1.00  0.00     0.286 C 
HETATM    7  N5  UNL     1      28.562   7.085  48.667  1.00  0.00    -0.148 NA
HETATM    8  O1  UNL     1      31.295   9.361  48.785  1.00  0.00    -0.265 OA
BRANCH   6   9
HETATM    9  C5  UNL     1      31.443   7.128  48.096  1.00  0.00     0.080 A 
HETATM   10  C2  UNL     1      31.760   6.813  46.796  1.00  0.00    -0.039 A 
HETATM   11  C1  UNL     1      31.335   7.728  45.689  1.00  0.00     0.050 C 
HETATM   12  C3  UNL     1      32.451   5.684  46.530  1.00  0.00     0.015 A 
HETATM   13  C4  UNL     1      32.802   4.884  47.717  1.00  0.00     0.051 A 
HETATM   14  S1  UNL     1      32.085   5.865  49.097  1.00  0.00    -0.096 SA
ENDBRANCH   6   9
ENDBRANCH   1   2
BRANCH   1  15
HETATM   15  C10 UNL     1      26.815   5.134  48.816  1.00  0.00     0.010 C 
HETATM   16  C11 UNL     1      26.499   4.176  49.652  1.00  0.00     0.021 C 
BRANCH  16  17
HETATM   17  N3  UNL     1      25.552   4.757  50.532  1.00  0.00    -0.399 N 
HETATM   18  H10 UNL     1      24.813   5.118  51.176  1.00  0.00     0.156 HD
HETATM   19  H11 UNL     1      25.498   5.687  50.978  1.00  0.00     0.156 HD
ENDBRANCH  16  17
BRANCH  16  20
HETATM   20  C12 UNL     1      26.459   2.889  50.299  1.00  0.00     0.025 C 
BRANCH  20  21
HETATM   21  C13 UNL     1      26.269   2.102  51.329  1.00  0.00    -0.008 C 
BRANCH  21  22
HETATM   22  C14 UNL     1      27.054   1.034  51.981  1.00  0.00     0.184 C 
BRANCH  22  23
HETATM   23  S2  UNL     1      27.793   1.715  53.471  1.00  0.00     0.210 S 
HETATM   24  O2  UNL     1      28.415   0.631  54.269  1.00  0.00    -0.211 OA
HETATM   25  O3  UNL     1      26.689   2.378  54.273  1.00  0.00    -0.211 OA
BRANCH  23  26
HETATM   26  N4  UNL     1      28.905   2.936  52.980  1.00  0.00    -0.229 NA
HETATM   27  H16 UNL     1      29.558   3.158  53.746  1.00  0.00     0.136 HD
HETATM   28  H17 UNL     1      29.343   2.723  52.063  1.00  0.00     0.136 HD
ENDBRANCH  23  26
ENDBRANCH  22  23
ENDBRANCH  21  22
ENDBRANCH  20  21
ENDBRANCH  16  20
ENDBRANCH   1  15
TORSDOF 9
ENDMDL
MODEL 5
REMARK VINA RESULT:      -6.8      2.785      8.367
REMARK  9 active torsions:
REMARK  status: ('A' for Active; 'I' for Inactive)
REMARK    1  A    between atoms: C5_6  and  C6_7 
REMARK       I    between atoms: C6_7  and  N1_9 
REMARK    2  A    between atoms: C8_12  and  C9_13 
REMARK    3  A    between atoms: C9_13  and  C10_14 
REMARK    4  A    between atoms: C11_15  and  N3_16 
REMARK    5  A    between atoms: C11_15  and  C12_17 
REMARK    6  A    between atoms: C12_17  and  C13_18 
REMARK    7  A    between atoms: C13_18  and  C14_19 
REMARK    8  A    between atoms: C14_19  and  S2_20 
REMARK    9  A    between atoms: S2_20  and  N4_21 
ROOT
HETATM    1  C9  UNL     1      26.803   6.037  48.929  1.00  0.00     0.112 C 
ENDROOT
BRANCH   1   2
HETATM    2  C8  UNL     1      27.709   6.763  47.981  1.00  0.00     0.151 A 
HETATM    3  N2  UNL     1      27.444   7.716  47.083  1.00  0.00    -0.225 NA
HETATM    4  C7  UNL     1      28.591   8.068  46.454  1.00  0.00     0.240 A 
HETATM    5  N1  UNL     1      29.536   7.291  47.009  1.00  0.00    -0.188 N 
HETATM    6  C6  UNL     1      30.889   7.387  46.588  1.00  0.00     0.286 C 
HETATM    7  N5  UNL     1      29.028   6.496  47.934  1.00  0.00    -0.148 NA
HETATM    8  O1  UNL     1      31.228   8.182  45.703  1.00  0.00    -0.265 OA
BRANCH   6   9
HETATM    9  C5  UNL     1      31.877   6.523  47.223  1.00  0.00     0.080 A 
HETATM   10  C2  UNL     1      32.561   6.736  48.396  1.00  0.00    -0.039 A 
HETATM   11  C1  UNL     1      32.314   7.989  49.178  1.00  0.00     0.050 C 
HETATM   12  C3  UNL     1      33.447   5.814  48.832  1.00  0.00     0.015 A 
HETATM   13  C4  UNL     1      33.585   4.634  47.960  1.00  0.00     0.051 A 
HETATM   14  S1  UNL     1      32.405   4.994  46.596  1.00  0.00    -0.096 SA
ENDBRANCH   6   9
ENDBRANCH   1   2
BRANCH   1  15
HETATM   15  C10 UNL     1      27.206   4.615  48.847  1.00  0.00     0.010 C 
HETATM   16  C11 UNL     1      26.707   3.757  49.702  1.00  0.00     0.021 C 
BRANCH  16  17
HETATM   17  N3  UNL     1      25.848   4.523  50.528  1.00  0.00    -0.399 N 
HETATM   18  H10 UNL     1      25.154   5.065  51.090  1.00  0.00     0.156 HD
HETATM   19  H11 UNL     1      26.024   5.107  51.361  1.00  0.00     0.156 HD
ENDBRANCH  16  17
BRANCH  16  20
HETATM   20  C12 UNL     1      26.430   2.521  50.389  1.00  0.00     0.025 C 
BRANCH  20  21
HETATM   21  C13 UNL     1      26.314   1.778  51.462  1.00  0.00    -0.008 C 
BRANCH  21  22
HETATM   22  C14 UNL     1      27.220   0.884  52.212  1.00  0.00     0.184 C 
BRANCH  22  23
HETATM   23  S2  UNL     1      27.797   1.768  53.666  1.00  0.00     0.210 S 
HETATM   24  O2  UNL     1      28.318   0.808  54.670  1.00  0.00    -0.211 OA
HETATM   25  O3  UNL     1      26.618   2.528  54.244  1.00  0.00    -0.211 OA
BRANCH  23  26
HETATM   26  N4  UNL     1      28.967   2.917  53.138  1.00  0.00    -0.229 NA
HETATM   27  H16 UNL     1      29.317   2.671  52.200  1.00  0.00     0.136 HD
HETATM   28  H17 UNL     1      28.638   3.895  53.253  1.00  0.00     0.136 HD
ENDBRANCH  23  26
ENDBRANCH  22  23
ENDBRANCH  21  22
ENDBRANCH  20  21
ENDBRANCH  16  20
ENDBRANCH   1  15
TORSDOF 9
ENDMDL
MODEL 6
REMARK VINA RESULT:      -6.8      2.041      2.334
REMARK  9 active torsions:
REMARK  status: ('A' for Active; 'I' for Inactive)
REMARK    1  A    between atoms: C5_6  and  C6_7 
REMARK       I    between atoms: C6_7  and  N1_9 
REMARK    2  A    between atoms: C8_12  and  C9_13 
REMARK    3  A    between atoms: C9_13  and  C10_14 
REMARK    4  A    between atoms: C11_15  and  N3_16 
REMARK    5  A    between atoms: C11_15  and  C12_17 
REMARK    6  A    between atoms: C12_17  and  C13_18 
REMARK    7  A    between atoms: C13_18  and  C14_19 
REMARK    8  A    between atoms: C14_19  and  S2_20 
REMARK    9  A    between atoms: S2_20  and  N4_21 
ROOT
HETATM    1  C9  UNL     1      25.810   4.680  49.776  1.00  0.00     0.112 C 
ENDROOT
BRANCH   1   2
HETATM    2  C8  UNL     1      25.210   3.501  50.482  1.00  0.00     0.151 A 
HETATM    3  N2  UNL     1      23.950   3.062  50.523  1.00  0.00    -0.225 NA
HETATM    4  C7  UNL     1      23.889   1.951  51.298  1.00  0.00     0.240 A 
HETATM    5  N1  UNL     1      25.153   1.754  51.709  1.00  0.00    -0.188 N 
HETATM    6  C6  UNL     1      25.475   0.659  52.555  1.00  0.00     0.286 C 
HETATM    7  N5  UNL     1      25.968   2.676  51.229  1.00  0.00    -0.148 NA
HETATM    8  O1  UNL     1      24.603  -0.134  52.932  1.00  0.00    -0.265 OA
BRANCH   6   9
HETATM    9  C5  UNL     1      26.860   0.488  52.973  1.00  0.00     0.080 A 
HETATM   10  C2  UNL     1      27.619  -0.658  52.947  1.00  0.00    -0.039 A 
HETATM   11  C1  UNL     1      27.016  -1.931  52.439  1.00  0.00     0.050 C 
HETATM   12  C3  UNL     1      28.898  -0.625  53.380  1.00  0.00     0.015 A 
HETATM   13  C4  UNL     1      29.354   0.695  53.850  1.00  0.00     0.051 A 
HETATM   14  S1  UNL     1      27.866   1.749  53.611  1.00  0.00    -0.096 SA
ENDBRANCH   6   9
ENDBRANCH   1   2
BRANCH   1  15
HETATM   15  C10 UNL     1      27.035   4.165  49.122  1.00  0.00     0.010 C 
HETATM   16  C11 UNL     1      27.925   5.013  48.671  1.00  0.00     0.021 C 
BRANCH  16  17
HETATM   17  N3  UNL     1      27.398   6.292  48.975  1.00  0.00    -0.399 N 
HETATM   18  H10 UNL     1      27.035   7.260  49.129  1.00  0.00     0.156 HD
HETATM   19  H11 UNL     1      26.906   6.661  49.805  1.00  0.00     0.156 HD
ENDBRANCH  16  17
BRANCH  16  20
HETATM   20  C12 UNL     1      29.118   5.540  48.059  1.00  0.00     0.025 C 
BRANCH  20  21
HETATM   21  C13 UNL     1      30.164   6.330  48.019  1.00  0.00    -0.008 C 
BRANCH  21  22
HETATM   22  C14 UNL     1      30.739   7.340  48.930  1.00  0.00     0.184 C 
BRANCH  22  23
HETATM   23  S2  UNL     1      29.881   8.895  48.651  1.00  0.00     0.210 S 
HETATM   24  O2  UNL     1      28.700   8.989  49.543  1.00  0.00    -0.211 OA
HETATM   25  O3  UNL     1      29.436   8.923  47.201  1.00  0.00    -0.211 OA
BRANCH  23  26
HETATM   26  N4  UNL     1      31.025  10.161  48.884  1.00  0.00    -0.229 NA
HETATM   27  H16 UNL     1      30.543  11.056  49.063  1.00  0.00     0.136 HD
HETATM   28  H17 UNL     1      31.763   9.904  49.569  1.00  0.00     0.136 HD
ENDBRANCH  23  26
ENDBRANCH  22  23
ENDBRANCH  21  22
ENDBRANCH  20  21
ENDBRANCH  16  20
ENDBRANCH   1  15
TORSDOF 9
ENDMDL
MODEL 7
REMARK VINA RESULT:      -6.8      1.610      2.015
REMARK  9 active torsions:
REMARK  status: ('A' for Active; 'I' for Inactive)
REMARK    1  A    between atoms: C5_6  and  C6_7 
REMARK       I    between atoms: C6_7  and  N1_9 
REMARK    2  A    between atoms: C8_12  and  C9_13 
REMARK    3  A    between atoms: C9_13  and  C10_14 
REMARK    4  A    between atoms: C11_15  and  N3_16 
REMARK    5  A    between atoms: C11_15  and  C12_17 
REMARK    6  A    between atoms: C12_17  and  C13_18 
REMARK    7  A    between atoms: C13_18  and  C14_19 
REMARK    8  A    between atoms: C14_19  and  S2_20 
REMARK    9  A    between atoms: S2_20  and  N4_21 
ROOT
HETATM    1  C9  UNL     1      25.999   4.850  49.784  1.00  0.00     0.112 C 
ENDROOT
BRANCH   1   2
HETATM    2  C8  UNL     1      25.341   3.696  50.478  1.00  0.00     0.151 A 
HETATM    3  N2  UNL     1      24.060   3.319  50.516  1.00  0.00    -0.225 NA
HETATM    4  C7  UNL     1      23.944   2.205  51.279  1.00  0.00     0.240 A 
HETATM    5  N1  UNL     1      25.196   1.941  51.687  1.00  0.00    -0.188 N 
HETATM    6  C6  UNL     1      25.464   0.823  52.521  1.00  0.00     0.286 C 
HETATM    7  N5  UNL     1      26.057   2.826  51.216  1.00  0.00    -0.148 NA
HETATM    8  O1  UNL     1      24.554   0.070  52.891  1.00  0.00    -0.265 OA
BRANCH   6   9
HETATM    9  C5  UNL     1      26.839   0.578  52.936  1.00  0.00     0.080 A 
HETATM   10  C2  UNL     1      27.543  -0.602  52.886  1.00  0.00    -0.039 A 
HETATM   11  C1  UNL     1      26.883  -1.834  52.350  1.00  0.00     0.050 C 
HETATM   12  C3  UNL     1      28.822  -0.638  53.320  1.00  0.00     0.015 A 
HETATM   13  C4  UNL     1      29.338   0.650  53.818  1.00  0.00     0.051 A 
HETATM   14  S1  UNL     1      27.902   1.777  53.601  1.00  0.00    -0.096 SA
ENDBRANCH   6   9
ENDBRANCH   1   2
BRANCH   1  15
HETATM   15  C10 UNL     1      27.141   4.265  49.046  1.00  0.00     0.010 C 
HETATM   16  C11 UNL     1      28.094   5.053  48.612  1.00  0.00     0.021 C 
BRANCH  16  17
HETATM   17  N3  UNL     1      27.707   6.353  49.021  1.00  0.00    -0.399 N 
HETATM   18  H10 UNL     1      27.445   7.293  49.396  1.00  0.00     0.156 HD
HETATM   19  H11 UNL     1      27.296   7.149  48.508  1.00  0.00     0.156 HD
ENDBRANCH  16  17
BRANCH  16  20
HETATM   20  C12 UNL     1      29.311   5.504  47.985  1.00  0.00     0.025 C 
BRANCH  20  21
HETATM   21  C13 UNL     1      30.487   6.081  47.991  1.00  0.00    -0.008 C 
BRANCH  21  22
HETATM   22  C14 UNL     1      31.620   6.143  47.045  1.00  0.00     0.184 C 
BRANCH  22  23
HETATM   23  S2  UNL     1      33.040   5.365  47.827  1.00  0.00     0.210 S 
HETATM   24  O2  UNL     1      32.861   3.893  47.854  1.00  0.00    -0.211 OA
HETATM   25  O3  UNL     1      33.139   5.898  49.243  1.00  0.00    -0.211 OA
BRANCH  23  26
HETATM   26  N4  UNL     1      34.442   5.873  46.964  1.00  0.00    -0.229 NA
HETATM   27  H16 UNL     1      35.228   5.228  47.139  1.00  0.00     0.136 HD
HETATM   28  H17 UNL     1      34.239   6.073  45.966  1.00  0.00     0.136 HD
ENDBRANCH  23  26
ENDBRANCH  22  23
ENDBRANCH  21  22
ENDBRANCH  20  21
ENDBRANCH  16  20
ENDBRANCH   1  15
TORSDOF 9
ENDMDL
MODEL 8
REMARK VINA RESULT:      -6.5      2.797      8.262
REMARK  9 active torsions:
REMARK  status: ('A' for Active; 'I' for Inactive)
REMARK    1  A    between atoms: C5_6  and  C6_7 
REMARK       I    between atoms: C6_7  and  N1_9 
REMARK    2  A    between atoms: C8_12  and  C9_13 
REMARK    3  A    between atoms: C9_13  and  C10_14 
REMARK    4  A    between atoms: C11_15  and  N3_16 
REMARK    5  A    between atoms: C11_15  and  C12_17 
REMARK    6  A    between atoms: C12_17  and  C13_18 
REMARK    7  A    between atoms: C13_18  and  C14_19 
REMARK    8  A    between atoms: C14_19  and  S2_20 
REMARK    9  A    between atoms: S2_20  and  N4_21 
ROOT
HETATM    1  C9  UNL     1      25.406   5.213  49.243  1.00  0.00     0.112 C 
ENDROOT
BRANCH   1   2
HETATM    2  C8  UNL     1      26.030   6.564  49.428  1.00  0.00     0.151 A 
HETATM    3  N2  UNL     1      25.572   7.655  50.047  1.00  0.00    -0.225 NA
HETATM    4  C7  UNL     1      26.496   8.642  49.953  1.00  0.00     0.240 A 
HETATM    5  N1  UNL     1      27.509   8.096  49.261  1.00  0.00    -0.188 N 
HETATM    6  C6  UNL     1      28.674   8.852  48.966  1.00  0.00     0.286 C 
HETATM    7  N5  UNL     1      27.251   6.842  48.934  1.00  0.00    -0.148 NA
HETATM    8  O1  UNL     1      28.783  10.028  49.336  1.00  0.00    -0.265 OA
BRANCH   6   9
HETATM    9  C5  UNL     1      29.746   8.214  48.212  1.00  0.00     0.080 A 
HETATM   10  C2  UNL     1      29.858   8.073  46.849  1.00  0.00    -0.039 A 
HETATM   11  C1  UNL     1      28.784   8.620  45.960  1.00  0.00     0.050 C 
HETATM   12  C3  UNL     1      30.933   7.445  46.327  1.00  0.00     0.015 A 
HETATM   13  C4  UNL     1      31.907   6.962  47.323  1.00  0.00     0.051 A 
HETATM   14  S1  UNL     1      31.148   7.475  48.917  1.00  0.00    -0.096 SA
ENDBRANCH   6   9
ENDBRANCH   1   2
BRANCH   1  15
HETATM   15  C10 UNL     1      26.499   4.241  49.473  1.00  0.00     0.010 C 
HETATM   16  C11 UNL     1      26.267   3.176  50.201  1.00  0.00     0.021 C 
BRANCH  16  17
HETATM   17  N3  UNL     1      24.908   3.286  50.585  1.00  0.00    -0.399 N 
HETATM   18  H10 UNL     1      23.929   3.414  50.928  1.00  0.00     0.156 HD
HETATM   19  H11 UNL     1      24.041   2.880  50.197  1.00  0.00     0.156 HD
ENDBRANCH  16  17
BRANCH  16  20
HETATM   20  C12 UNL     1      26.465   1.927  50.891  1.00  0.00     0.025 C 
BRANCH  20  21
HETATM   21  C13 UNL     1      26.231   1.073  51.857  1.00  0.00    -0.008 C 
BRANCH  21  22
HETATM   22  C14 UNL     1      27.029   0.042  52.550  1.00  0.00     0.184 C 
BRANCH  22  23
HETATM   23  S2  UNL     1      27.863   0.823  53.939  1.00  0.00     0.210 S 
HETATM   24  O2  UNL     1      28.087  -0.170  55.018  1.00  0.00    -0.211 OA
HETATM   25  O3  UNL     1      26.971   1.941  54.444  1.00  0.00    -0.211 OA
BRANCH  23  26
HETATM   26  N4  UNL     1      29.315   1.526  53.336  1.00  0.00    -0.229 NA
HETATM   27  H16 UNL     1      30.139   1.082  53.769  1.00  0.00     0.136 HD
HETATM   28  H17 UNL     1      29.326   1.577  52.299  1.00  0.00     0.136 HD
ENDBRANCH  23  26
ENDBRANCH  22  23
ENDBRANCH  21  22
ENDBRANCH  20  21
ENDBRANCH  16  20
ENDBRANCH   1  15
TORSDOF 9
ENDMDL
MODEL 9
REMARK VINA RESULT:      -6.5      3.589      8.052
REMARK  9 active torsions:
REMARK  status: ('A' for Active; 'I' for Inactive)
REMARK    1  A    between atoms: C5_6  and  C6_7 
REMARK       I    between atoms: C6_7  and  N1_9 
REMARK    2  A    between atoms: C8_12  and  C9_13 
REMARK    3  A    between atoms: C9_13  and  C10_14 
REMARK    4  A    between atoms: C11_15  and  N3_16 
REMARK    5  A    between atoms: C11_15  and  C12_17 
REMARK    6  A    between atoms: C12_17  and  C13_18 
REMARK    7  A    between atoms: C13_18  and  C14_19 
REMARK    8  A    between atoms: C14_19  and  S2_20 
REMARK    9  A    between atoms: S2_20  and  N4_21 
ROOT
HETATM    1  C9  UNL     1      23.524   4.838  52.216  1.00  0.00     0.112 C 
ENDROOT
BRANCH   1   2
HETATM    2  C8  UNL     1      23.532   5.328  50.799  1.00  0.00     0.151 A 
HETATM    3  N2  UNL     1      22.707   5.063  49.783  1.00  0.00    -0.225 NA
HETATM    4  C7  UNL     1      23.119   5.742  48.685  1.00  0.00     0.240 A 
HETATM    5  N1  UNL     1      24.211   6.411  49.089  1.00  0.00    -0.188 N 
HETATM    6  C6  UNL     1      24.923   7.245  48.185  1.00  0.00     0.286 C 
HETATM    7  N5  UNL     1      24.480   6.178  50.361  1.00  0.00    -0.148 NA
HETATM    8  O1  UNL     1      24.557   7.372  47.010  1.00  0.00    -0.265 OA
BRANCH   6   9
HETATM    9  C5  UNL     1      26.101   7.951  48.672  1.00  0.00     0.080 A 
HETATM   10  C2  UNL     1      27.399   7.502  48.722  1.00  0.00    -0.039 A 
HETATM   11  C1  UNL     1      27.724   6.125  48.232  1.00  0.00     0.050 C 
HETATM   12  C3  UNL     1      28.368   8.307  49.211  1.00  0.00     0.015 A 
HETATM   13  C4  UNL     1      27.900   9.633  49.655  1.00  0.00     0.051 A 
HETATM   14  S1  UNL     1      26.095   9.565  49.310  1.00  0.00    -0.096 SA
ENDBRANCH   6   9
ENDBRANCH   1   2
BRANCH   1  15
HETATM   15  C10 UNL     1      23.039   3.441  52.147  1.00  0.00     0.010 C 
HETATM   16  C11 UNL     1      23.752   2.487  52.694  1.00  0.00     0.021 C 
BRANCH  16  17
HETATM   17  N3  UNL     1      24.881   3.145  53.243  1.00  0.00    -0.399 N 
HETATM   18  H10 UNL     1      25.709   3.681  53.586  1.00  0.00     0.156 HD
HETATM   19  H11 UNL     1      25.455   2.958  54.080  1.00  0.00     0.156 HD
ENDBRANCH  16  17
BRANCH  16  20
HETATM   20  C12 UNL     1      24.174   1.182  53.133  1.00  0.00     0.025 C 
BRANCH  20  21
HETATM   21  C13 UNL     1      24.841   0.061  53.003  1.00  0.00    -0.008 C 
BRANCH  21  22
HETATM   22  C14 UNL     1      26.255  -0.285  52.754  1.00  0.00     0.184 C 
BRANCH  22  23
HETATM   23  S2  UNL     1      27.181   0.043  54.260  1.00  0.00     0.210 S 
HETATM   24  O2  UNL     1      28.427  -0.761  54.273  1.00  0.00    -0.211 OA
HETATM   25  O3  UNL     1      26.305  -0.345  55.436  1.00  0.00    -0.211 OA
BRANCH  23  26
HETATM   26  N4  UNL     1      27.455   1.742  54.333  1.00  0.00    -0.229 NA
HETATM   27  H16 UNL     1      28.389   1.974  53.961  1.00  0.00     0.136 HD
HETATM   28  H17 UNL     1      26.665   2.286  53.936  1.00  0.00     0.136 HD
ENDBRANCH  23  26
ENDBRANCH  22  23
ENDBRANCH  21  22
ENDBRANCH  20  21
ENDBRANCH  16  20
ENDBRANCH   1  15
TORSDOF 9
ENDMDL
