MODEL 1
REMARK VINA RESULT:      -7.5      0.000      0.000
REMARK  6 active torsions:
REMARK  status: ('A' for Active; 'I' for Inactive)
REMARK    1  A    between atoms: C4_4  and  C5_5 
REMARK    2  A    between atoms: C5_5  and  C6_6 
REMARK    3  A    between atoms: C6_6  and  O2_8 
REMARK    4  A    between atoms: C7_9  and  C8_10 
REMARK    5  A    between atoms: C9_11  and  O3_12 
REMARK    6  A    between atoms: C9_11  and  N1_13 
ROOT
HETATM    1  C1  UNL     1      22.360  -0.721  53.559  1.00  0.00     0.032 C 
HETATM    2  C2  UNL     1      23.458   0.302  53.448  1.00  0.00     0.081 C 
HETATM    3  C3  UNL     1      24.823  -0.343  53.321  1.00  0.00     0.061 C 
HETATM    4  C4  UNL     1      25.534   0.655  52.457  1.00  0.00    -0.042 C 
HETATM    5  C7  UNL     1      24.690   1.441  51.819  1.00  0.00     0.035 C 
HETATM    6  N2  UNL     1      23.393   1.026  52.201  1.00  0.00    -0.385 N 
HETATM    7  H16 UNL     1      22.547   1.222  51.654  1.00  0.00     0.160 HD
ENDROOT
BRANCH   5   8
HETATM    8  C8  UNL     1      24.946   2.524  50.898  1.00  0.00     0.085 C 
HETATM    9  C9  UNL     1      25.979   3.246  50.546  1.00  0.00     0.148 C 
BRANCH   9  10
HETATM   10  O3  UNL     1      27.297   3.672  50.553  1.00  0.00    -0.346 OA
HETATM   11  H11 UNL     1      27.723   4.105  49.743  1.00  0.00     0.219 HD
ENDBRANCH   9  10
BRANCH   9  12
HETATM   12  N1  UNL     1      25.886   4.294  49.553  1.00  0.00    -0.313 N 
HETATM   13  C10 UNL     1      27.098   4.788  48.933  1.00  0.00     0.111 C 
HETATM   14  C11 UNL     1      27.365   5.917  48.341  1.00  0.00     0.004 C 
HETATM   15  C12 UNL     1      26.613   6.938  48.379  1.00  0.00    -0.012 C 
HETATM   16  C13 UNL     1      25.325   6.954  48.197  1.00  0.00     0.014 C 
HETATM   17  C14 UNL     1      24.288   6.000  48.613  1.00  0.00     0.019 C 
HETATM   18  C15 UNL     1      24.586   4.834  49.211  1.00  0.00     0.098 C 
ENDBRANCH   9  12
ENDBRANCH   5   8
BRANCH   4  19
HETATM   19  C5  UNL     1      27.005   0.606  52.455  1.00  0.00     0.146 C 
BRANCH  19  20
HETATM   20  C6  UNL     1      27.498   1.741  53.310  1.00  0.00     0.143 C 
HETATM   21  O1  UNL     1      28.519   2.367  52.871  1.00  0.00    -0.650 OA
BRANCH  20  22
HETATM   22  O2  UNL     1      27.863   2.758  54.175  1.00  0.00    -0.776 OA
HETATM   23  H9  UNL     1      28.048   2.535  55.164  1.00  0.00     0.167 HD
ENDBRANCH  20  22
ENDBRANCH  19  20
ENDBRANCH   4  19
TORSDOF 6
ENDMDL
MODEL 2
REMARK VINA RESULT:      -7.5      4.219      6.508
REMARK  6 active torsions:
REMARK  status: ('A' for Active; 'I' for Inactive)
REMARK    1  A    between atoms: C4_4  and  C5_5 
REMARK    2  A    between atoms: C5_5  and  C6_6 
REMARK    3  A    between atoms: C6_6  and  O2_8 
REMARK    4  A    between atoms: C7_9  and  C8_10 
REMARK    5  A    between atoms: C9_11  and  O3_12 
REMARK    6  A    between atoms: C9_11  and  N1_13 
ROOT
HETATM    1  C1  UNL     1      21.102   3.512  51.857  1.00  0.00     0.032 C 
HETATM    2  C2  UNL     1      21.813   2.496  52.710  1.00  0.00     0.081 C 
HETATM    3  C3  UNL     1      21.201   1.116  52.575  1.00  0.00     0.061 C 
HETATM    4  C4  UNL     1      22.409   0.246  52.758  1.00  0.00    -0.042 C 
HETATM    5  C7  UNL     1      23.528   0.914  52.559  1.00  0.00     0.035 C 
HETATM    6  N2  UNL     1      23.151   2.237  52.233  1.00  0.00    -0.385 N 
HETATM    7  H16 UNL     1      23.756   2.897  51.731  1.00  0.00     0.160 HD
ENDROOT
BRANCH   5   8
HETATM    8  C8  UNL     1      24.900   0.467  52.631  1.00  0.00     0.085 C 
HETATM    9  C9  UNL     1      25.683  -0.050  53.544  1.00  0.00     0.148 C 
BRANCH   9  10
HETATM   10  O3  UNL     1      26.037  -0.536  54.792  1.00  0.00    -0.346 OA
HETATM   11  H11 UNL     1      26.789  -1.202  54.912  1.00  0.00     0.219 HD
ENDBRANCH   9  10
BRANCH   9  12
HETATM   12  N1  UNL     1      27.062  -0.395  53.273  1.00  0.00    -0.313 N 
HETATM   13  C10 UNL     1      27.374  -1.721  52.784  1.00  0.00     0.111 C 
HETATM   14  C11 UNL     1      28.475  -2.417  52.822  1.00  0.00     0.004 C 
HETATM   15  C12 UNL     1      29.487  -2.112  53.522  1.00  0.00    -0.012 C 
HETATM   16  C13 UNL     1      30.031  -0.934  53.620  1.00  0.00     0.014 C 
HETATM   17  C14 UNL     1      29.419   0.400  53.670  1.00  0.00     0.019 C 
HETATM   18  C15 UNL     1      28.099   0.589  53.511  1.00  0.00     0.098 C 
ENDBRANCH   9  12
ENDBRANCH   5   8
BRANCH   4  19
HETATM   19  C5  UNL     1      22.170  -1.161  53.116  1.00  0.00     0.146 C 
BRANCH  19  20
HETATM   20  C6  UNL     1      22.601  -1.345  54.545  1.00  0.00     0.143 C 
HETATM   21  O1  UNL     1      21.915  -2.172  55.232  1.00  0.00    -0.650 OA
BRANCH  20  22
HETATM   22  O2  UNL     1      23.085  -1.432  55.839  1.00  0.00    -0.776 OA
HETATM   23  H9  UNL     1      22.443  -1.705  56.599  1.00  0.00     0.167 HD
ENDBRANCH  20  22
ENDBRANCH  19  20
ENDBRANCH   4  19
TORSDOF 6
ENDMDL
MODEL 3
REMARK VINA RESULT:      -7.5      2.525      6.515
REMARK  6 active torsions:
REMARK  status: ('A' for Active; 'I' for Inactive)
REMARK    1  A    between atoms: C4_4  and  C5_5 
REMARK    2  A    between atoms: C5_5  and  C6_6 
REMARK    3  A    between atoms: C6_6  and  O2_8 
REMARK    4  A    between atoms: C7_9  and  C8_10 
REMARK    5  A    between atoms: C9_11  and  O3_12 
REMARK    6  A    between atoms: C9_11  and  N1_13 
ROOT
HETATM    1  C1  UNL     1      26.282   6.356  48.563  1.00  0.00     0.032 C 
HETATM    2  C2  UNL     1      25.782   5.492  49.689  1.00  0.00     0.081 C 
HETATM    3  C3  UNL     1      24.560   4.691  49.289  1.00  0.00     0.061 C 
HETATM    4  C4  UNL     1      24.751   3.448  50.106  1.00  0.00    -0.042 C 
HETATM    5  C7  UNL     1      25.998   3.313  50.510  1.00  0.00     0.035 C 
HETATM    6  N2  UNL     1      26.705   4.426  49.999  1.00  0.00    -0.385 N 
HETATM    7  H16 UNL     1      27.724   4.448  49.874  1.00  0.00     0.160 HD
ENDROOT
BRANCH   5   8
HETATM    8  C8  UNL     1      26.608   2.275  51.307  1.00  0.00     0.085 C 
HETATM    9  C9  UNL     1      27.097   2.171  52.517  1.00  0.00     0.148 C 
BRANCH   9  10
HETATM   10  O3  UNL     1      27.454   2.592  53.787  1.00  0.00    -0.346 OA
HETATM   11  H11 UNL     1      27.023   3.399  54.222  1.00  0.00     0.219 HD
ENDBRANCH   9  10
BRANCH   9  12
HETATM   12  N1  UNL     1      27.655   0.935  53.020  1.00  0.00    -0.313 N 
HETATM   13  C10 UNL     1      28.940   0.961  53.686  1.00  0.00     0.111 C 
HETATM   14  C11 UNL     1      29.829   0.029  53.882  1.00  0.00     0.004 C 
HETATM   15  C12 UNL     1      29.814  -1.103  53.309  1.00  0.00    -0.012 C 
HETATM   16  C13 UNL     1      28.782  -1.883  53.168  1.00  0.00     0.014 C 
HETATM   17  C14 UNL     1      27.375  -1.566  52.891  1.00  0.00     0.019 C 
HETATM   18  C15 UNL     1      26.923  -0.302  52.835  1.00  0.00     0.098 C 
ENDBRANCH   9  12
ENDBRANCH   5   8
BRANCH   4  19
HETATM   19  C5  UNL     1      23.565   2.603  50.321  1.00  0.00     0.146 C 
BRANCH  19  20
HETATM   20  C6  UNL     1      22.734   3.253  51.394  1.00  0.00     0.143 C 
HETATM   21  O1  UNL     1      23.188   3.162  52.582  1.00  0.00    -0.650 OA
BRANCH  20  22
HETATM   22  O2  UNL     1      21.891   3.883  52.293  1.00  0.00    -0.776 OA
HETATM   23  H9  UNL     1      22.047   4.877  52.516  1.00  0.00     0.167 HD
ENDBRANCH  20  22
ENDBRANCH  19  20
ENDBRANCH   4  19
TORSDOF 6
ENDMDL
MODEL 4
REMARK VINA RESULT:      -7.4      1.939      6.786
REMARK  6 active torsions:
REMARK  status: ('A' for Active; 'I' for Inactive)
REMARK    1  A    between atoms: C4_4  and  C5_5 
REMARK    2  A    between atoms: C5_5  and  C6_6 
REMARK    3  A    between atoms: C6_6  and  O2_8 
REMARK    4  A    between atoms: C7_9  and  C8_10 
REMARK    5  A    between atoms: C9_11  and  O3_12 
REMARK    6  A    between atoms: C9_11  and  N1_13 
ROOT
HETATM    1  C1  UNL     1      29.079   6.641  47.383  1.00  0.00     0.032 C 
HETATM    2  C2  UNL     1      28.129   6.391  48.523  1.00  0.00     0.081 C 
HETATM    3  C3  UNL     1      26.721   6.849  48.197  1.00  0.00     0.061 C 
HETATM    4  C4  UNL     1      25.908   5.850  48.966  1.00  0.00    -0.042 C 
HETATM    5  C7  UNL     1      26.611   4.777  49.270  1.00  0.00     0.035 C 
HETATM    6  N2  UNL     1      27.903   4.981  48.734  1.00  0.00    -0.385 N 
HETATM    7  H16 UNL     1      28.564   4.222  48.532  1.00  0.00     0.160 HD
ENDROOT
BRANCH   5   8
HETATM    8  C8  UNL     1      26.221   3.589  49.993  1.00  0.00     0.085 C 
HETATM    9  C9  UNL     1      26.645   2.937  51.046  1.00  0.00     0.148 C 
BRANCH   9  10
HETATM   10  O3  UNL     1      27.455   2.668  52.137  1.00  0.00    -0.346 OA
HETATM   11  H11 UNL     1      28.006   3.391  52.584  1.00  0.00     0.219 HD
ENDBRANCH   9  10
BRANCH   9  12
HETATM   12  N1  UNL     1      26.000   1.731  51.519  1.00  0.00    -0.313 N 
HETATM   13  C10 UNL     1      24.558   1.706  51.646  1.00  0.00     0.111 C 
HETATM   14  C11 UNL     1      23.769   0.963  52.368  1.00  0.00     0.004 C 
HETATM   15  C12 UNL     1      24.163   0.206  53.306  1.00  0.00    -0.012 C 
HETATM   16  C13 UNL     1      25.172  -0.614  53.263  1.00  0.00     0.014 C 
HETATM   17  C14 UNL     1      26.490  -0.476  52.631  1.00  0.00     0.019 C 
HETATM   18  C15 UNL     1      26.811   0.582  51.867  1.00  0.00     0.098 C 
ENDBRANCH   9  12
ENDBRANCH   5   8
BRANCH   4  19
HETATM   19  C5  UNL     1      24.509   6.207  49.250  1.00  0.00     0.146 C 
BRANCH  19  20
HETATM   20  C6  UNL     1      24.426   6.596  50.700  1.00  0.00     0.143 C 
HETATM   21  O1  UNL     1      23.498   6.039  51.375  1.00  0.00    -0.650 OA
BRANCH  20  22
HETATM   22  O2  UNL     1      24.444   7.028  52.016  1.00  0.00    -0.776 OA
HETATM   23  H9  UNL     1      25.160   6.655  52.657  1.00  0.00     0.167 HD
ENDBRANCH  20  22
ENDBRANCH  19  20
ENDBRANCH   4  19
TORSDOF 6
ENDMDL
MODEL 5
REMARK VINA RESULT:      -7.1      3.758      6.333
REMARK  6 active torsions:
REMARK  status: ('A' for Active; 'I' for Inactive)
REMARK    1  A    between atoms: C4_4  and  C5_5 
REMARK    2  A    between atoms: C5_5  and  C6_6 
REMARK    3  A    between atoms: C6_6  and  O2_8 
REMARK    4  A    between atoms: C7_9  and  C8_10 
REMARK    5  A    between atoms: C9_11  and  O3_12 
REMARK    6  A    between atoms: C9_11  and  N1_13 
ROOT
HETATM    1  C1  UNL     1      21.201   3.684  51.658  1.00  0.00     0.032 C 
HETATM    2  C2  UNL     1      21.694   2.598  52.576  1.00  0.00     0.081 C 
HETATM    3  C3  UNL     1      21.053   1.261  52.265  1.00  0.00     0.061 C 
HETATM    4  C4  UNL     1      22.164   0.319  52.623  1.00  0.00    -0.042 C 
HETATM    5  C7  UNL     1      23.331   0.930  52.663  1.00  0.00     0.035 C 
HETATM    6  N2  UNL     1      23.083   2.284  52.339  1.00  0.00    -0.385 N 
HETATM    7  H16 UNL     1      23.801   2.928  51.987  1.00  0.00     0.160 HD
ENDROOT
BRANCH   5   8
HETATM    8  C8  UNL     1      24.643   0.405  52.962  1.00  0.00     0.085 C 
HETATM    9  C9  UNL     1      25.870   0.635  52.568  1.00  0.00     0.148 C 
BRANCH   9  10
HETATM   10  O3  UNL     1      26.883   1.247  51.849  1.00  0.00    -0.346 OA
HETATM   11  H11 UNL     1      27.068   1.012  50.882  1.00  0.00     0.219 HD
ENDBRANCH   9  10
BRANCH   9  12
HETATM   12  N1  UNL     1      26.999  -0.103  53.091  1.00  0.00    -0.313 N 
HETATM   13  C10 UNL     1      28.026   0.606  53.826  1.00  0.00     0.111 C 
HETATM   14  C11 UNL     1      29.273   0.316  54.061  1.00  0.00     0.004 C 
HETATM   15  C12 UNL     1      29.912  -0.612  53.479  1.00  0.00    -0.012 C 
HETATM   16  C13 UNL     1      29.494  -1.827  53.276  1.00  0.00     0.014 C 
HETATM   17  C14 UNL     1      28.160  -2.333  52.925  1.00  0.00     0.019 C 
HETATM   18  C15 UNL     1      27.085  -1.530  52.856  1.00  0.00     0.098 C 
ENDBRANCH   9  12
ENDBRANCH   5   8
BRANCH   4  19
HETATM   19  C5  UNL     1      21.795  -1.086  52.863  1.00  0.00     0.146 C 
BRANCH  19  20
HETATM   20  C6  UNL     1      22.139  -1.407  54.292  1.00  0.00     0.143 C 
HETATM   21  O1  UNL     1      21.397  -0.867  55.178  1.00  0.00    -0.650 OA
BRANCH  20  22
HETATM   22  O2  UNL     1      22.546  -1.770  55.564  1.00  0.00    -0.776 OA
HETATM   23  H9  UNL     1      22.813  -2.749  55.746  1.00  0.00     0.167 HD
ENDBRANCH  20  22
ENDBRANCH  19  20
ENDBRANCH   4  19
TORSDOF 6
ENDMDL
MODEL 6
REMARK VINA RESULT:      -7.1      1.798      6.400
REMARK  6 active torsions:
REMARK  status: ('A' for Active; 'I' for Inactive)
REMARK    1  A    between atoms: C4_4  and  C5_5 
REMARK    2  A    between atoms: C5_5  and  C6_6 
REMARK    3  A    between atoms: C6_6  and  O2_8 
REMARK    4  A    between atoms: C7_9  and  C8_10 
REMARK    5  A    between atoms: C9_11  and  O3_12 
REMARK    6  A    between atoms: C9_11  and  N1_13 
ROOT
HETATM    1  C1  UNL     1      25.770   5.485  48.980  1.00  0.00     0.032 C 
HETATM    2  C2  UNL     1      25.595   4.043  49.375  1.00  0.00     0.081 C 
HETATM    3  C3  UNL     1      26.752   3.541  50.215  1.00  0.00     0.061 C 
HETATM    4  C4  UNL     1      26.056   2.551  51.101  1.00  0.00    -0.042 C 
HETATM    5  C7  UNL     1      24.755   2.756  51.137  1.00  0.00     0.035 C 
HETATM    6  N2  UNL     1      24.503   3.869  50.302  1.00  0.00    -0.385 N 
HETATM    7  H16 UNL     1      23.661   4.453  50.368  1.00  0.00     0.160 HD
ENDROOT
BRANCH   5   8
HETATM    8  C8  UNL     1      23.724   2.043  51.855  1.00  0.00     0.085 C 
HETATM    9  C9  UNL     1      23.677   1.098  52.760  1.00  0.00     0.148 C 
BRANCH   9  10
HETATM   10  O3  UNL     1      24.175   0.157  53.644  1.00  0.00    -0.346 OA
HETATM   11  H11 UNL     1      24.578  -0.715  53.324  1.00  0.00     0.219 HD
ENDBRANCH   9  10
BRANCH   9  12
HETATM   12  N1  UNL     1      22.427   0.594  53.285  1.00  0.00    -0.313 N 
HETATM   13  C10 UNL     1      22.454  -0.400  54.337  1.00  0.00     0.111 C 
HETATM   14  C11 UNL     1      21.571  -1.280  54.715  1.00  0.00     0.004 C 
HETATM   15  C12 UNL     1      20.531  -1.577  54.053  1.00  0.00    -0.012 C 
HETATM   16  C13 UNL     1      19.705  -0.739  53.497  1.00  0.00     0.014 C 
HETATM   17  C14 UNL     1      19.955   0.533  52.806  1.00  0.00     0.019 C 
HETATM   18  C15 UNL     1      21.178   1.084  52.738  1.00  0.00     0.098 C 
ENDBRANCH   9  12
ENDBRANCH   5   8
BRANCH   4  19
HETATM   19  C5  UNL     1      26.899   1.546  51.767  1.00  0.00     0.146 C 
BRANCH  19  20
HETATM   20  C6  UNL     1      27.405   2.154  53.046  1.00  0.00     0.143 C 
HETATM   21  O1  UNL     1      26.797   1.801  54.111  1.00  0.00    -0.650 OA
BRANCH  20  22
HETATM   22  O2  UNL     1      27.953   2.773  54.157  1.00  0.00    -0.776 OA
HETATM   23  H9  UNL     1      28.846   3.279  54.061  1.00  0.00     0.167 HD
ENDBRANCH  20  22
ENDBRANCH  19  20
ENDBRANCH   4  19
TORSDOF 6
ENDMDL
MODEL 7
REMARK VINA RESULT:      -7.0      2.377      5.782
REMARK  6 active torsions:
REMARK  status: ('A' for Active; 'I' for Inactive)
REMARK    1  A    between atoms: C4_4  and  C5_5 
REMARK    2  A    between atoms: C5_5  and  C6_6 
REMARK    3  A    between atoms: C6_6  and  O2_8 
REMARK    4  A    between atoms: C7_9  and  C8_10 
REMARK    5  A    between atoms: C9_11  and  O3_12 
REMARK    6  A    between atoms: C9_11  and  N1_13 
ROOT
HETATM    1  C1  UNL     1      20.913   2.784  48.429  1.00  0.00     0.032 C 
HETATM    2  C2  UNL     1      22.414   2.842  48.533  1.00  0.00     0.081 C 
HETATM    3  C3  UNL     1      22.914   4.262  48.707  1.00  0.00     0.061 C 
HETATM    4  C4  UNL     1      24.130   4.036  49.555  1.00  0.00    -0.042 C 
HETATM    5  C7  UNL     1      24.100   2.862  50.152  1.00  0.00     0.035 C 
HETATM    6  N2  UNL     1      22.891   2.244  49.756  1.00  0.00    -0.385 N 
HETATM    7  H16 UNL     1      22.440   1.485  50.280  1.00  0.00     0.160 HD
ENDROOT
BRANCH   5   8
HETATM    8  C8  UNL     1      25.056   2.252  51.046  1.00  0.00     0.085 C 
HETATM    9  C9  UNL     1      26.297   2.471  51.403  1.00  0.00     0.148 C 
BRANCH   9  10
HETATM   10  O3  UNL     1      27.523   3.114  51.417  1.00  0.00    -0.346 OA
HETATM   11  H11 UNL     1      27.614   4.084  51.691  1.00  0.00     0.219 HD
ENDBRANCH   9  10
BRANCH   9  12
HETATM   12  N1  UNL     1      26.984   1.633  52.361  1.00  0.00    -0.313 N 
HETATM   13  C10 UNL     1      27.920   2.239  53.285  1.00  0.00     0.111 C 
HETATM   14  C11 UNL     1      28.920   1.737  53.951  1.00  0.00     0.004 C 
HETATM   15  C12 UNL     1      29.412   0.587  53.743  1.00  0.00    -0.012 C 
HETATM   16  C13 UNL     1      28.746  -0.519  53.584  1.00  0.00     0.014 C 
HETATM   17  C14 UNL     1      27.477  -0.781  52.892  1.00  0.00     0.019 C 
HETATM   18  C15 UNL     1      26.731   0.206  52.366  1.00  0.00     0.098 C 
ENDBRANCH   9  12
ENDBRANCH   5   8
BRANCH   4  19
HETATM   19  C5  UNL     1      25.129   5.117  49.589  1.00  0.00     0.146 C 
BRANCH  19  20
HETATM   20  C6  UNL     1      24.791   6.010  50.751  1.00  0.00     0.143 C 
HETATM   21  O1  UNL     1      25.310   7.175  50.728  1.00  0.00    -0.650 OA
BRANCH  20  22
HETATM   22  O2  UNL     1      24.414   6.740  51.865  1.00  0.00    -0.776 OA
HETATM   23  H9  UNL     1      24.671   7.737  51.923  1.00  0.00     0.167 HD
ENDBRANCH  20  22
ENDBRANCH  19  20
ENDBRANCH   4  19
TORSDOF 6
ENDMDL
MODEL 8
REMARK VINA RESULT:      -6.9      1.766      2.435
REMARK  6 active torsions:
REMARK  status: ('A' for Active; 'I' for Inactive)
REMARK    1  A    between atoms: C4_4  and  C5_5 
REMARK    2  A    between atoms: C5_5  and  C6_6 
REMARK    3  A    between atoms: C6_6  and  O2_8 
REMARK    4  A    between atoms: C7_9  and  C8_10 
REMARK    5  A    between atoms: C9_11  and  O3_12 
REMARK    6  A    between atoms: C9_11  and  N1_13 
ROOT
HETATM    1  C1  UNL     1      20.604  -0.802  54.111  1.00  0.00     0.032 C 
HETATM    2  C2  UNL     1      21.956  -0.147  54.215  1.00  0.00     0.081 C 
HETATM    3  C3  UNL     1      23.083  -1.144  54.035  1.00  0.00     0.061 C 
HETATM    4  C4  UNL     1      24.124  -0.286  53.379  1.00  0.00    -0.042 C 
HETATM    5  C7  UNL     1      23.599   0.801  52.849  1.00  0.00     0.035 C 
HETATM    6  N2  UNL     1      22.210   0.740  53.106  1.00  0.00    -0.385 N 
HETATM    7  H16 UNL     1      21.506   1.258  52.567  1.00  0.00     0.160 HD
ENDROOT
BRANCH   5   8
HETATM    8  C8  UNL     1      24.235   1.883  52.133  1.00  0.00     0.085 C 
HETATM    9  C9  UNL     1      24.071   2.485  50.981  1.00  0.00     0.148 C 
BRANCH   9  10
HETATM   10  O3  UNL     1      23.492   2.742  49.751  1.00  0.00    -0.346 OA
HETATM   11  H11 UNL     1      23.160   3.665  49.499  1.00  0.00     0.219 HD
ENDBRANCH   9  10
BRANCH   9  12
HETATM   12  N1  UNL     1      24.919   3.576  50.554  1.00  0.00    -0.313 N 
HETATM   13  C10 UNL     1      24.458   4.937  50.729  1.00  0.00     0.111 C 
HETATM   14  C11 UNL     1      24.789   6.044  50.128  1.00  0.00     0.004 C 
HETATM   15  C12 UNL     1      25.483   6.099  49.067  1.00  0.00    -0.012 C 
HETATM   16  C13 UNL     1      26.581   5.444  48.829  1.00  0.00     0.014 C 
HETATM   17  C14 UNL     1      26.972   4.073  49.181  1.00  0.00     0.019 C 
HETATM   18  C15 UNL     1      26.202   3.283  49.949  1.00  0.00     0.098 C 
ENDBRANCH   9  12
ENDBRANCH   5   8
BRANCH   4  19
HETATM   19  C5  UNL     1      25.512  -0.770  53.425  1.00  0.00     0.146 C 
BRANCH  19  20
HETATM   20  C6  UNL     1      26.265   0.101  54.393  1.00  0.00     0.143 C 
HETATM   21  O1  UNL     1      27.172  -0.478  55.076  1.00  0.00    -0.650 OA
BRANCH  20  22
HETATM   22  O2  UNL     1      26.887   0.996  55.246  1.00  0.00    -0.776 OA
HETATM   23  H9  UNL     1      26.390   1.855  55.524  1.00  0.00     0.167 HD
ENDBRANCH  20  22
ENDBRANCH  19  20
ENDBRANCH   4  19
TORSDOF 6
ENDMDL
MODEL 9
REMARK VINA RESULT:      -6.9      5.256      8.123
REMARK  6 active torsions:
REMARK  status: ('A' for Active; 'I' for Inactive)
REMARK    1  A    between atoms: C4_4  and  C5_5 
REMARK    2  A    between atoms: C5_5  and  C6_6 
REMARK    3  A    between atoms: C6_6  and  O2_8 
REMARK    4  A    between atoms: C7_9  and  C8_10 
REMARK    5  A    between atoms: C9_11  and  O3_12 
REMARK    6  A    between atoms: C9_11  and  N1_13 
ROOT
HETATM    1  C1  UNL     1      25.690   5.689  49.920  1.00  0.00     0.032 C 
HETATM    2  C2  UNL     1      26.621   6.030  48.787  1.00  0.00     0.081 C 
HETATM    3  C3  UNL     1      27.192   7.427  48.925  1.00  0.00     0.061 C 
HETATM    4  C4  UNL     1      28.547   7.246  48.307  1.00  0.00    -0.042 C 
HETATM    5  C7  UNL     1      28.899   5.977  48.260  1.00  0.00     0.035 C 
HETATM    6  N2  UNL     1      27.832   5.246  48.833  1.00  0.00    -0.385 N 
HETATM    7  H16 UNL     1      27.931   4.300  49.219  1.00  0.00     0.160 HD
ENDROOT
BRANCH   5   8
HETATM    8  C8  UNL     1      30.105   5.367  47.752  1.00  0.00     0.085 C 
HETATM    9  C9  UNL     1      31.392   5.597  47.833  1.00  0.00     0.148 C 
BRANCH   9  10
HETATM   10  O3  UNL     1      32.546   6.255  48.225  1.00  0.00    -0.346 OA
HETATM   11  H11 UNL     1      32.728   7.216  47.964  1.00  0.00     0.219 HD
ENDBRANCH   9  10
BRANCH   9  12
HETATM   12  N1  UNL     1      32.369   4.758  47.174  1.00  0.00    -0.313 N 
HETATM   13  C10 UNL     1      32.918   3.624  47.886  1.00  0.00     0.111 C 
HETATM   14  C11 UNL     1      34.028   2.960  47.726  1.00  0.00     0.004 C 
HETATM   15  C12 UNL     1      34.987   3.342  46.989  1.00  0.00    -0.012 C 
HETATM   16  C13 UNL     1      34.892   3.804  45.777  1.00  0.00     0.014 C 
HETATM   17  C14 UNL     1      33.887   4.683  45.165  1.00  0.00     0.019 C 
HETATM   18  C15 UNL     1      32.785   5.078  45.824  1.00  0.00     0.098 C 
ENDBRANCH   9  12
ENDBRANCH   5   8
BRANCH   4  19
HETATM   19  C5  UNL     1      29.246   8.464  47.867  1.00  0.00     0.146 C 
BRANCH  19  20
HETATM   20  C6  UNL     1      29.857   9.101  49.084  1.00  0.00     0.143 C 
HETATM   21  O1  UNL     1      31.006   8.665  49.425  1.00  0.00    -0.650 OA
BRANCH  20  22
HETATM   22  O2  UNL     1      30.319   9.757  50.213  1.00  0.00    -0.776 OA
HETATM   23  H9  UNL     1      31.186   9.430  50.664  1.00  0.00     0.167 HD
ENDBRANCH  20  22
ENDBRANCH  19  20
ENDBRANCH   4  19
TORSDOF 6
ENDMDL
