MODEL 1
REMARK VINA RESULT:      -7.1      0.000      0.000
REMARK  7 active torsions:
REMARK  status: ('A' for Active; 'I' for Inactive)
REMARK    1  A    between atoms: C2_2  and  C3_3 
REMARK    2  A    between atoms: C3_3  and  C4_4 
REMARK    3  A    between atoms: C4_4  and  N1_5 
REMARK    4  A    between atoms: N1_5  and  C5_6 
REMARK    5  A    between atoms: N1_5  and  C12_15 
REMARK    6  A    between atoms: C5_6  and  C6_7 
REMARK    7  A    between atoms: C11_13  and  O1_14 
ROOT
HETATM    1  N1  UNL     1      24.136   3.268  51.384  1.00  0.00    -0.388 N 
ENDROOT
BRANCH   1   2
HETATM    2  C4  UNL     1      22.779   3.171  50.913  1.00  0.00     0.119 C 
BRANCH   2   3
HETATM    3  C3  UNL     1      22.491   1.922  50.092  1.00  0.00     0.019 C 
BRANCH   3   4
HETATM    4  C2  UNL     1      21.766   2.457  48.843  1.00  0.00    -0.003 C 
HETATM    5  C1  UNL     1      22.577   2.161  47.609  1.00  0.00     0.005 C 
ENDBRANCH   3   4
ENDBRANCH   2   3
ENDBRANCH   1   2
BRANCH   1   6
HETATM    6  C5  UNL     1      24.255   3.115  52.754  1.00  0.00     0.160 C 
BRANCH   6   7
HETATM    7  C6  UNL     1      24.861   1.827  53.256  1.00  0.00    -0.006 A 
HETATM    8  C7  UNL     1      24.083   0.658  53.271  1.00  0.00     0.012 A 
HETATM    9  C8  UNL     1      24.471  -0.575  53.711  1.00  0.00     0.002 A 
HETATM   10  C9  UNL     1      25.759  -0.684  54.190  1.00  0.00     0.022 A 
HETATM   11  C10 UNL     1      26.566   0.418  54.201  1.00  0.00     0.044 A 
HETATM   12 BR1  UNL     1      28.348   0.234  54.871  1.00  0.00    -0.048 Br
HETATM   13  C11 UNL     1      26.114   1.627  53.744  1.00  0.00     0.090 A 
BRANCH  13  14
HETATM   14  O1  UNL     1      27.002   2.665  53.794  1.00  0.00    -0.359 OA
HETATM   15  H15 UNL     1      27.678   2.879  53.071  1.00  0.00     0.217 HD
ENDBRANCH  13  14
ENDBRANCH   6   7
ENDBRANCH   1   6
BRANCH   1  16
HETATM   16  C12 UNL     1      25.111   3.139  50.431  1.00  0.00     0.189 C 
HETATM   17  N2  UNL     1      26.401   3.861  50.949  1.00  0.00    -0.390 N 
HETATM   18  C13 UNL     1      26.373   4.378  49.223  1.00  0.00     0.050 A 
HETATM   19  H17 UNL     1      26.664   3.735  52.029  1.00  0.00     0.156 HD
HETATM   20  C14 UNL     1      26.595   3.216  49.299  1.00  0.00     0.040 A 
HETATM   21  C17 UNL     1      26.067   5.920  49.332  1.00  0.00     0.068 A 
HETATM   22  C15 UNL     1      25.356   4.294  49.403  1.00  0.00     0.034 A 
HETATM   23  C16 UNL     1      24.600   5.500  49.397  1.00  0.00    -0.034 A 
ENDBRANCH   1  16
TORSDOF 7
ENDMDL
MODEL 2
REMARK VINA RESULT:      -7.0      2.586      5.291
REMARK  7 active torsions:
REMARK  status: ('A' for Active; 'I' for Inactive)
REMARK    1  A    between atoms: C2_2  and  C3_3 
REMARK    2  A    between atoms: C3_3  and  C4_4 
REMARK    3  A    between atoms: C4_4  and  N1_5 
REMARK    4  A    between atoms: N1_5  and  C5_6 
REMARK    5  A    between atoms: N1_5  and  C12_15 
REMARK    6  A    between atoms: C5_6  and  C6_7 
REMARK    7  A    between atoms: C11_13  and  O1_14 
ROOT
HETATM    1  N1  UNL     1      24.164   0.390  53.462  1.00  0.00    -0.388 N 
ENDROOT
BRANCH   1   2
HETATM    2  C4  UNL     1      23.219  -0.685  53.297  1.00  0.00     0.119 C 
BRANCH   2   3
HETATM    3  C3  UNL     1      22.575  -1.154  54.594  1.00  0.00     0.019 C 
BRANCH   3   4
HETATM    4  C2  UNL     1      21.082  -1.287  54.239  1.00  0.00    -0.003 C 
HETATM    5  C1  UNL     1      20.468   0.077  54.073  1.00  0.00     0.005 C 
ENDBRANCH   3   4
ENDBRANCH   2   3
ENDBRANCH   1   2
BRANCH   1   6
HETATM    6  C5  UNL     1      23.629   1.638  53.198  1.00  0.00     0.160 C 
BRANCH   6   7
HETATM    7  C6  UNL     1      23.774   2.168  51.792  1.00  0.00    -0.006 A 
HETATM    8  C7  UNL     1      22.778   1.886  50.843  1.00  0.00     0.012 A 
HETATM    9  C8  UNL     1      22.768   2.270  49.531  1.00  0.00     0.002 A 
HETATM   10  C9  UNL     1      23.845   3.010  49.095  1.00  0.00     0.022 A 
HETATM   11  C10 UNL     1      24.847   3.318  49.972  1.00  0.00     0.044 A 
HETATM   12 BR1  UNL     1      26.329   4.347  49.336  1.00  0.00    -0.048 Br
HETATM   13  C11 UNL     1      24.795   2.902  51.275  1.00  0.00     0.090 A 
BRANCH  13  14
HETATM   14  O1  UNL     1      25.845   3.267  52.070  1.00  0.00    -0.359 OA
HETATM   15  H15 UNL     1      26.321   4.160  52.021  1.00  0.00     0.217 HD
ENDBRANCH  13  14
ENDBRANCH   6   7
ENDBRANCH   1   6
BRANCH   1  16
HETATM   16  C12 UNL     1      25.295   0.087  54.173  1.00  0.00     0.189 C 
HETATM   17  N2  UNL     1      26.134   1.399  54.339  1.00  0.00    -0.390 N 
HETATM   18  C13 UNL     1      27.423   0.198  53.960  1.00  0.00     0.050 A 
HETATM   19  H17 UNL     1      25.578   2.343  54.563  1.00  0.00     0.156 HD
HETATM   20  C14 UNL     1      26.954  -0.028  55.025  1.00  0.00     0.040 A 
HETATM   21  C17 UNL     1      27.911   0.657  52.534  1.00  0.00     0.068 A 
HETATM   22  C15 UNL     1      26.636  -0.205  53.420  1.00  0.00     0.034 A 
HETATM   23  C16 UNL     1      26.750  -0.180  52.001  1.00  0.00    -0.034 A 
ENDBRANCH   1  16
TORSDOF 7
ENDMDL
MODEL 3
REMARK VINA RESULT:      -6.8      2.958      5.199
REMARK  7 active torsions:
REMARK  status: ('A' for Active; 'I' for Inactive)
REMARK    1  A    between atoms: C2_2  and  C3_3 
REMARK    2  A    between atoms: C3_3  and  C4_4 
REMARK    3  A    between atoms: C4_4  and  N1_5 
REMARK    4  A    between atoms: N1_5  and  C5_6 
REMARK    5  A    between atoms: N1_5  and  C12_15 
REMARK    6  A    between atoms: C5_6  and  C6_7 
REMARK    7  A    between atoms: C11_13  and  O1_14 
ROOT
HETATM    1  N1  UNL     1      26.072   1.102  52.350  1.00  0.00    -0.388 N 
ENDROOT
BRANCH   1   2
HETATM    2  C4  UNL     1      25.953   1.692  51.042  1.00  0.00     0.119 C 
BRANCH   2   3
HETATM    3  C3  UNL     1      26.648   3.039  50.898  1.00  0.00     0.019 C 
BRANCH   3   4
HETATM    4  C2  UNL     1      26.190   3.547  49.519  1.00  0.00    -0.003 C 
HETATM    5  C1  UNL     1      27.217   4.488  48.948  1.00  0.00     0.005 C 
ENDBRANCH   3   4
ENDBRANCH   2   3
ENDBRANCH   1   2
BRANCH   1   6
HETATM    6  C5  UNL     1      25.221   1.663  53.286  1.00  0.00     0.160 C 
BRANCH   6   7
HETATM    7  C6  UNL     1      23.747   1.371  53.144  1.00  0.00    -0.006 A 
HETATM    8  C7  UNL     1      22.918   2.302  52.497  1.00  0.00     0.012 A 
HETATM    9  C8  UNL     1      21.569   2.199  52.306  1.00  0.00     0.002 A 
HETATM   10  C9  UNL     1      20.959   1.066  52.799  1.00  0.00     0.022 A 
HETATM   11  C10 UNL     1      21.712   0.122  53.438  1.00  0.00     0.044 A 
HETATM   12 BR1  UNL     1      20.836  -1.439  54.111  1.00  0.00    -0.048 Br
HETATM   13  C11 UNL     1      23.062   0.286  53.596  1.00  0.00     0.090 A 
BRANCH  13  14
HETATM   14  O1  UNL     1      23.724  -0.718  54.245  1.00  0.00    -0.359 OA
HETATM   15  H15 UNL     1      24.374  -0.578  55.009  1.00  0.00     0.217 HD
ENDBRANCH  13  14
ENDBRANCH   6   7
ENDBRANCH   1   6
BRANCH   1  16
HETATM   16  C12 UNL     1      26.708  -0.110  52.404  1.00  0.00     0.189 C 
HETATM   17  N2  UNL     1      26.548  -0.682  53.852  1.00  0.00    -0.390 N 
HETATM   18  C13 UNL     1      28.272  -1.074  53.503  1.00  0.00     0.050 A 
HETATM   19  H17 UNL     1      25.555  -0.557  54.351  1.00  0.00     0.156 HD
HETATM   20  C14 UNL     1      27.558  -1.722  52.815  1.00  0.00     0.040 A 
HETATM   21  C17 UNL     1      29.047  -0.128  54.496  1.00  0.00     0.068 A 
HETATM   22  C15 UNL     1      28.170  -0.201  52.953  1.00  0.00     0.034 A 
HETATM   23  C16 UNL     1      28.900   0.933  53.408  1.00  0.00    -0.034 A 
ENDBRANCH   1  16
TORSDOF 7
ENDMDL
MODEL 4
REMARK VINA RESULT:      -6.7      2.967      6.273
REMARK  7 active torsions:
REMARK  status: ('A' for Active; 'I' for Inactive)
REMARK    1  A    between atoms: C2_2  and  C3_3 
REMARK    2  A    between atoms: C3_3  and  C4_4 
REMARK    3  A    between atoms: C4_4  and  N1_5 
REMARK    4  A    between atoms: N1_5  and  C5_6 
REMARK    5  A    between atoms: N1_5  and  C12_15 
REMARK    6  A    between atoms: C5_6  and  C6_7 
REMARK    7  A    between atoms: C11_13  and  O1_14 
ROOT
HETATM    1  N1  UNL     1      24.762   0.798  53.424  1.00  0.00    -0.388 N 
ENDROOT
BRANCH   1   2
HETATM    2  C4  UNL     1      25.791  -0.133  53.809  1.00  0.00     0.119 C 
BRANCH   2   3
HETATM    3  C3  UNL     1      26.407  -0.898  52.646  1.00  0.00     0.019 C 
BRANCH   3   4
HETATM    4  C2  UNL     1      27.907  -0.948  52.988  1.00  0.00    -0.003 C 
HETATM    5  C1  UNL     1      28.196  -0.066  54.174  1.00  0.00     0.005 C 
ENDBRANCH   3   4
ENDBRANCH   2   3
ENDBRANCH   1   2
BRANCH   1   6
HETATM    6  C5  UNL     1      25.194   2.112  53.390  1.00  0.00     0.160 C 
BRANCH   6   7
HETATM    7  C6  UNL     1      25.254   2.785  52.040  1.00  0.00    -0.006 A 
HETATM    8  C7  UNL     1      26.355   2.549  51.200  1.00  0.00     0.012 A 
HETATM    9  C8  UNL     1      26.571   3.093  49.965  1.00  0.00     0.002 A 
HETATM   10  C9  UNL     1      25.611   3.962  49.495  1.00  0.00     0.022 A 
HETATM   11  C10 UNL     1      24.514   4.231  50.265  1.00  0.00     0.044 A 
HETATM   12 BR1  UNL     1      23.199   5.441  49.585  1.00  0.00    -0.048 Br
HETATM   13  C11 UNL     1      24.358   3.651  51.496  1.00  0.00     0.090 A 
BRANCH  13  14
HETATM   14  O1  UNL     1      23.225   3.984  52.184  1.00  0.00    -0.359 OA
HETATM   15  H15 UNL     1      22.402   3.398  52.255  1.00  0.00     0.217 HD
ENDBRANCH  13  14
ENDBRANCH   6   7
ENDBRANCH   1   6
BRANCH   1  16
HETATM   16  C12 UNL     1      23.657   0.254  52.823  1.00  0.00     0.189 C 
HETATM   17  N2  UNL     1      22.416   1.136  53.191  1.00  0.00    -0.390 N 
HETATM   18  C13 UNL     1      21.736  -0.524  53.361  1.00  0.00     0.050 A 
HETATM   19  H17 UNL     1      22.554   2.246  53.192  1.00  0.00     0.156 HD
HETATM   20  C14 UNL     1      21.976  -0.295  52.223  1.00  0.00     0.040 A 
HETATM   21  C17 UNL     1      21.491  -0.637  54.913  1.00  0.00     0.068 A 
HETATM   22  C15 UNL     1      22.720  -0.703  53.632  1.00  0.00     0.034 A 
HETATM   23  C16 UNL     1      22.957  -1.056  54.991  1.00  0.00    -0.034 A 
ENDBRANCH   1  16
TORSDOF 7
ENDMDL
MODEL 5
REMARK VINA RESULT:      -6.5      2.917      4.382
REMARK  7 active torsions:
REMARK  status: ('A' for Active; 'I' for Inactive)
REMARK    1  A    between atoms: C2_2  and  C3_3 
REMARK    2  A    between atoms: C3_3  and  C4_4 
REMARK    3  A    between atoms: C4_4  and  N1_5 
REMARK    4  A    between atoms: N1_5  and  C5_6 
REMARK    5  A    between atoms: N1_5  and  C12_15 
REMARK    6  A    between atoms: C5_6  and  C6_7 
REMARK    7  A    between atoms: C11_13  and  O1_14 
ROOT
HETATM    1  N1  UNL     1      25.573   2.460  51.577  1.00  0.00    -0.388 N 
ENDROOT
BRANCH   1   2
HETATM    2  C4  UNL     1      26.478   1.340  51.598  1.00  0.00     0.119 C 
BRANCH   2   3
HETATM    3  C3  UNL     1      27.450   1.345  52.770  1.00  0.00     0.019 C 
BRANCH   3   4
HETATM    4  C2  UNL     1      27.268  -0.044  53.409  1.00  0.00    -0.003 C 
HETATM    5  C1  UNL     1      26.663  -0.996  52.411  1.00  0.00     0.005 C 
ENDBRANCH   3   4
ENDBRANCH   2   3
ENDBRANCH   1   2
BRANCH   1   6
HETATM    6  C5  UNL     1      24.763   2.535  52.696  1.00  0.00     0.160 C 
BRANCH   6   7
HETATM    7  C6  UNL     1      23.396   1.903  52.604  1.00  0.00    -0.006 A 
HETATM    8  C7  UNL     1      23.260   0.520  52.801  1.00  0.00     0.012 A 
HETATM    9  C8  UNL     1      22.104  -0.206  52.730  1.00  0.00     0.002 A 
HETATM   10  C9  UNL     1      20.953   0.492  52.436  1.00  0.00     0.022 A 
HETATM   11  C10 UNL     1      21.019   1.842  52.234  1.00  0.00     0.044 A 
HETATM   12 BR1  UNL     1      19.404   2.782  51.828  1.00  0.00    -0.048 Br
HETATM   13  C11 UNL     1      22.212   2.509  52.320  1.00  0.00     0.090 A 
BRANCH  13  14
HETATM   14  O1  UNL     1      22.168   3.858  52.106  1.00  0.00    -0.359 OA
HETATM   15  H15 UNL     1      21.495   4.325  51.510  1.00  0.00     0.217 HD
ENDBRANCH  13  14
ENDBRANCH   6   7
ENDBRANCH   1   6
BRANCH   1  16
HETATM   16  C12 UNL     1      25.871   3.452  50.680  1.00  0.00     0.189 C 
HETATM   17  N2  UNL     1      24.991   4.701  51.021  1.00  0.00    -0.390 N 
HETATM   18  C13 UNL     1      24.883   4.671  49.223  1.00  0.00     0.050 A 
HETATM   19  H17 UNL     1      24.854   4.957  52.102  1.00  0.00     0.156 HD
HETATM   20  C14 UNL     1      25.985   4.945  49.562  1.00  0.00     0.040 A 
HETATM   21  C17 UNL     1      23.373   4.295  48.976  1.00  0.00     0.068 A 
HETATM   22  C15 UNL     1      24.971   3.657  49.415  1.00  0.00     0.034 A 
HETATM   23  C16 UNL     1      23.835   2.848  49.133  1.00  0.00    -0.034 A 
ENDBRANCH   1  16
TORSDOF 7
ENDMDL
MODEL 6
REMARK VINA RESULT:      -6.5      2.131      4.702
REMARK  7 active torsions:
REMARK  status: ('A' for Active; 'I' for Inactive)
REMARK    1  A    between atoms: C2_2  and  C3_3 
REMARK    2  A    between atoms: C3_3  and  C4_4 
REMARK    3  A    between atoms: C4_4  and  N1_5 
REMARK    4  A    between atoms: N1_5  and  C5_6 
REMARK    5  A    between atoms: N1_5  and  C12_15 
REMARK    6  A    between atoms: C5_6  and  C6_7 
REMARK    7  A    between atoms: C11_13  and  O1_14 
ROOT
HETATM    1  N1  UNL     1      23.230   1.281  51.886  1.00  0.00    -0.388 N 
ENDROOT
BRANCH   1   2
HETATM    2  C4  UNL     1      23.675   1.882  50.655  1.00  0.00     0.119 C 
BRANCH   2   3
HETATM    3  C3  UNL     1      24.036   3.355  50.774  1.00  0.00     0.019 C 
BRANCH   3   4
HETATM    4  C2  UNL     1      25.078   3.572  49.661  1.00  0.00    -0.003 C 
HETATM    5  C1  UNL     1      26.427   3.079  50.114  1.00  0.00     0.005 C 
ENDBRANCH   3   4
ENDBRANCH   2   3
ENDBRANCH   1   2
BRANCH   1   6
HETATM    6  C5  UNL     1      24.023   1.603  52.973  1.00  0.00     0.160 C 
BRANCH   6   7
HETATM    7  C6  UNL     1      25.399   0.986  53.032  1.00  0.00    -0.006 A 
HETATM    8  C7  UNL     1      25.586  -0.328  52.572  1.00  0.00     0.012 A 
HETATM    9  C8  UNL     1      26.755  -1.036  52.576  1.00  0.00     0.002 A 
HETATM   10  C9  UNL     1      27.864  -0.394  53.083  1.00  0.00     0.022 A 
HETATM   11  C10 UNL     1      27.747   0.886  53.545  1.00  0.00     0.044 A 
HETATM   12 BR1  UNL     1      29.306   1.748  54.243  1.00  0.00    -0.048 Br
HETATM   13  C11 UNL     1      26.544   1.539  53.512  1.00  0.00     0.090 A 
BRANCH  13  14
HETATM   14  O1  UNL     1      26.535   2.818  53.995  1.00  0.00    -0.359 OA
HETATM   15  H15 UNL     1      25.911   3.156  54.718  1.00  0.00     0.217 HD
ENDBRANCH  13  14
ENDBRANCH   6   7
ENDBRANCH   1   6
BRANCH   1  16
HETATM   16  C12 UNL     1      21.948   0.799  51.887  1.00  0.00     0.189 C 
HETATM   17  N2  UNL     1      21.163   1.499  53.047  1.00  0.00    -0.390 N 
HETATM   18  C13 UNL     1      20.592  -0.203  53.209  1.00  0.00     0.050 A 
HETATM   19  H17 UNL     1      21.342   2.592  53.206  1.00  0.00     0.156 HD
HETATM   20  C14 UNL     1      20.183   0.273  52.203  1.00  0.00     0.040 A 
HETATM   21  C17 UNL     1      21.230  -0.650  54.578  1.00  0.00     0.068 A 
HETATM   22  C15 UNL     1      21.552  -0.366  52.854  1.00  0.00     0.034 A 
HETATM   23  C16 UNL     1      22.473  -0.975  53.753  1.00  0.00    -0.034 A 
ENDBRANCH   1  16
TORSDOF 7
ENDMDL
MODEL 7
REMARK VINA RESULT:      -6.4      3.042      5.758
REMARK  7 active torsions:
REMARK  status: ('A' for Active; 'I' for Inactive)
REMARK    1  A    between atoms: C2_2  and  C3_3 
REMARK    2  A    between atoms: C3_3  and  C4_4 
REMARK    3  A    between atoms: C4_4  and  N1_5 
REMARK    4  A    between atoms: N1_5  and  C5_6 
REMARK    5  A    between atoms: N1_5  and  C12_15 
REMARK    6  A    between atoms: C5_6  and  C6_7 
REMARK    7  A    between atoms: C11_13  and  O1_14 
ROOT
HETATM    1  N1  UNL     1      25.181   0.692  52.910  1.00  0.00    -0.388 N 
ENDROOT
BRANCH   1   2
HETATM    2  C4  UNL     1      23.998   0.395  53.677  1.00  0.00     0.119 C 
BRANCH   2   3
HETATM    3  C3  UNL     1      22.793  -0.002  52.837  1.00  0.00     0.019 C 
BRANCH   3   4
HETATM    4  C2  UNL     1      21.705  -0.321  53.879  1.00  0.00    -0.003 C 
HETATM    5  C1  UNL     1      22.234  -1.296  54.897  1.00  0.00     0.005 C 
ENDBRANCH   3   4
ENDBRANCH   2   3
ENDBRANCH   1   2
BRANCH   1   6
HETATM    6  C5  UNL     1      25.527   2.032  52.930  1.00  0.00     0.160 C 
BRANCH   6   7
HETATM    7  C6  UNL     1      25.409   2.797  51.635  1.00  0.00    -0.006 A 
HETATM    8  C7  UNL     1      26.505   2.841  50.757  1.00  0.00     0.012 A 
HETATM    9  C8  UNL     1      26.568   3.503  49.563  1.00  0.00     0.002 A 
HETATM   10  C9  UNL     1      25.442   4.197  49.180  1.00  0.00     0.022 A 
HETATM   11  C10 UNL     1      24.341   4.191  49.991  1.00  0.00     0.044 A 
HETATM   12 BR1  UNL     1      22.793   5.165  49.430  1.00  0.00    -0.048 Br
HETATM   13  C11 UNL     1      24.343   3.507  51.176  1.00  0.00     0.090 A 
BRANCH  13  14
HETATM   14  O1  UNL     1      23.192   3.561  51.910  1.00  0.00    -0.359 OA
HETATM   15  H15 UNL     1      23.156   3.662  52.918  1.00  0.00     0.217 HD
ENDBRANCH  13  14
ENDBRANCH   6   7
ENDBRANCH   1   6
BRANCH   1  16
HETATM   16  C12 UNL     1      25.968  -0.381  52.584  1.00  0.00     0.189 C 
HETATM   17  N2  UNL     1      26.206  -1.224  53.881  1.00  0.00    -0.390 N 
HETATM   18  C13 UNL     1      27.848  -1.241  53.140  1.00  0.00     0.050 A 
HETATM   19  H17 UNL     1      25.337  -1.366  54.572  1.00  0.00     0.156 HD
HETATM   20  C14 UNL     1      27.093  -1.868  52.476  1.00  0.00     0.040 A 
HETATM   21  C17 UNL     1      28.689  -0.370  54.149  1.00  0.00     0.068 A 
HETATM   22  C15 UNL     1      27.514  -0.314  52.818  1.00  0.00     0.034 A 
HETATM   23  C16 UNL     1      28.168   0.828  53.358  1.00  0.00    -0.034 A 
ENDBRANCH   1  16
TORSDOF 7
ENDMDL
MODEL 8
REMARK VINA RESULT:      -6.4      3.620      4.987
REMARK  7 active torsions:
REMARK  status: ('A' for Active; 'I' for Inactive)
REMARK    1  A    between atoms: C2_2  and  C3_3 
REMARK    2  A    between atoms: C3_3  and  C4_4 
REMARK    3  A    between atoms: C4_4  and  N1_5 
REMARK    4  A    between atoms: N1_5  and  C5_6 
REMARK    5  A    between atoms: N1_5  and  C12_15 
REMARK    6  A    between atoms: C5_6  and  C6_7 
REMARK    7  A    between atoms: C11_13  and  O1_14 
ROOT
HETATM    1  N1  UNL     1      24.963   2.028  52.873  1.00  0.00    -0.388 N 
ENDROOT
BRANCH   1   2
HETATM    2  C4  UNL     1      24.107   3.143  53.184  1.00  0.00     0.119 C 
BRANCH   2   3
HETATM    3  C3  UNL     1      23.701   3.974  51.975  1.00  0.00     0.019 C 
BRANCH   3   4
HETATM    4  C2  UNL     1      22.352   4.593  52.387  1.00  0.00    -0.003 C 
HETATM    5  C1  UNL     1      21.946   5.652  51.397  1.00  0.00     0.005 C 
ENDBRANCH   3   4
ENDBRANCH   2   3
ENDBRANCH   1   2
BRANCH   1   6
HETATM    6  C5  UNL     1      24.336   1.041  52.133  1.00  0.00     0.160 C 
BRANCH   6   7
HETATM    7  C6  UNL     1      23.115   0.394  52.739  1.00  0.00    -0.006 A 
HETATM    8  C7  UNL     1      23.257  -0.416  53.878  1.00  0.00     0.012 A 
HETATM    9  C8  UNL     1      22.262  -1.088  54.532  1.00  0.00     0.002 A 
HETATM   10  C9  UNL     1      20.989  -0.957  54.021  1.00  0.00     0.022 A 
HETATM   11  C10 UNL     1      20.785  -0.181  52.915  1.00  0.00     0.044 A 
HETATM   12 BR1  UNL     1      19.006  -0.020  52.231  1.00  0.00    -0.048 Br
HETATM   13  C11 UNL     1      21.827   0.466  52.307  1.00  0.00     0.090 A 
BRANCH  13  14
HETATM   14  O1  UNL     1      21.516   1.220  51.210  1.00  0.00    -0.359 OA
HETATM   15  H15 UNL     1      22.121   1.344  50.407  1.00  0.00     0.217 HD
ENDBRANCH  13  14
ENDBRANCH   6   7
ENDBRANCH   1   6
BRANCH   1  16
HETATM   16  C12 UNL     1      26.307   2.245  53.025  1.00  0.00     0.189 C 
HETATM   17  N2  UNL     1      27.074   1.214  52.131  1.00  0.00    -0.390 N 
HETATM   18  C13 UNL     1      28.063   1.184  53.637  1.00  0.00     0.050 A 
HETATM   19  H17 UNL     1      26.661   1.005  51.113  1.00  0.00     0.156 HD
HETATM   20  C14 UNL     1      28.174   2.232  53.096  1.00  0.00     0.040 A 
HETATM   21  C17 UNL     1      27.787  -0.262  54.201  1.00  0.00     0.068 A 
HETATM   22  C15 UNL     1      27.129   1.380  54.039  1.00  0.00     0.034 A 
HETATM   23  C16 UNL     1      26.544   0.357  54.837  1.00  0.00    -0.034 A 
ENDBRANCH   1  16
TORSDOF 7
ENDMDL
MODEL 9
REMARK VINA RESULT:      -6.4      2.544      2.917
REMARK  7 active torsions:
REMARK  status: ('A' for Active; 'I' for Inactive)
REMARK    1  A    between atoms: C2_2  and  C3_3 
REMARK    2  A    between atoms: C3_3  and  C4_4 
REMARK    3  A    between atoms: C4_4  and  N1_5 
REMARK    4  A    between atoms: N1_5  and  C5_6 
REMARK    5  A    between atoms: N1_5  and  C12_15 
REMARK    6  A    between atoms: C5_6  and  C6_7 
REMARK    7  A    between atoms: C11_13  and  O1_14 
ROOT
HETATM    1  N1  UNL     1      23.721   3.697  50.518  1.00  0.00    -0.388 N 
ENDROOT
BRANCH   1   2
HETATM    2  C4  UNL     1      22.574   3.551  49.660  1.00  0.00     0.119 C 
BRANCH   2   3
HETATM    3  C3  UNL     1      22.745   2.513  48.560  1.00  0.00     0.019 C 
BRANCH   3   4
HETATM    4  C2  UNL     1      21.358   1.853  48.454  1.00  0.00    -0.003 C 
HETATM    5  C1  UNL     1      21.272   0.678  49.391  1.00  0.00     0.005 C 
ENDBRANCH   3   4
ENDBRANCH   2   3
ENDBRANCH   1   2
BRANCH   1   6
HETATM    6  C5  UNL     1      23.418   3.590  51.864  1.00  0.00     0.160 C 
BRANCH   6   7
HETATM    7  C6  UNL     1      23.200   2.202  52.415  1.00  0.00    -0.006 A 
HETATM    8  C7  UNL     1      24.305   1.360  52.622  1.00  0.00     0.012 A 
HETATM    9  C8  UNL     1      24.277   0.077  53.090  1.00  0.00     0.002 A 
HETATM   10  C9  UNL     1      23.038  -0.445  53.391  1.00  0.00     0.022 A 
HETATM   11  C10 UNL     1      21.923   0.325  53.213  1.00  0.00     0.044 A 
HETATM   12 BR1  UNL     1      20.218  -0.428  53.641  1.00  0.00    -0.048 Br
HETATM   13  C11 UNL     1      22.021   1.606  52.740  1.00  0.00     0.090 A 
BRANCH  13  14
HETATM   14  O1  UNL     1      20.848   2.293  52.602  1.00  0.00    -0.359 OA
HETATM   15  H15 UNL     1      20.270   2.605  53.373  1.00  0.00     0.217 HD
ENDBRANCH  13  14
ENDBRANCH   6   7
ENDBRANCH   1   6
BRANCH   1  16
HETATM   16  C12 UNL     1      24.942   3.562  49.912  1.00  0.00     0.189 C 
HETATM   17  N2  UNL     1      26.022   4.217  50.838  1.00  0.00    -0.390 N 
HETATM   18  C13 UNL     1      26.550   4.792  49.214  1.00  0.00     0.050 A 
HETATM   19  H17 UNL     1      25.931   4.045  51.940  1.00  0.00     0.156 HD
HETATM   20  C14 UNL     1      26.708   3.621  49.304  1.00  0.00     0.040 A 
HETATM   21  C17 UNL     1      26.266   6.340  49.289  1.00  0.00     0.068 A 
HETATM   22  C15 UNL     1      25.526   4.741  49.063  1.00  0.00     0.034 A 
HETATM   23  C16 UNL     1      24.842   5.974  48.874  1.00  0.00    -0.034 A 
ENDBRANCH   1  16
TORSDOF 7
ENDMDL
