MODEL 1
REMARK VINA RESULT:      -8.2      0.000      0.000
REMARK  5 active torsions:
REMARK  status: ('A' for Active; 'I' for Inactive)
REMARK    1  A    between atoms: C3_3  and  O1_4 
REMARK    2  A    between atoms: C4_5  and  C5_6 
REMARK    3  A    between atoms: C8_9  and  C9_10 
REMARK    4  A    between atoms: C9_10  and  C10_11 
REMARK    5  A    between atoms: C11_12  and  C13_15 
REMARK       I    between atoms: C13_15  and  N2_16 
ROOT
HETATM    1  C10 UNL     1      25.972  -0.596  52.822  1.00  0.00     0.005 C 
HETATM    2  C11 UNL     1      27.137  -1.074  53.203  1.00  0.00     0.102 C 
HETATM    3  C12 UNL     1      28.062  -0.365  54.035  1.00  0.00     0.104 C 
HETATM    4  N1  UNL     1      28.799   0.219  54.712  1.00  0.00    -0.191 NA
ENDROOT
BRANCH   2   5
HETATM    5  C13 UNL     1      27.466  -2.405  52.728  1.00  0.00     0.238 C 
HETATM    6  N2  UNL     1      28.516  -3.161  53.319  1.00  0.00    -0.268 NA
HETATM    7  H15 UNL     1      29.415  -2.607  53.431  1.00  0.00     0.127 HD
HETATM    8  H16 UNL     1      29.391  -2.614  53.426  1.00  0.00     0.127 HD
HETATM    9  O2  UNL     1      26.830  -2.919  51.782  1.00  0.00    -0.273 OA
ENDBRANCH   2   5
BRANCH   1  10
HETATM   10  C9  UNL     1      25.391   0.769  53.179  1.00  0.00     0.063 C 
BRANCH  10  11
HETATM   11  C8  UNL     1      25.151   1.424  51.913  1.00  0.00    -0.067 C 
HETATM   12  C4  UNL     1      23.902   1.652  51.582  1.00  0.00    -0.019 C 
HETATM   13  C3  UNL     1      23.354   2.297  50.362  1.00  0.00     0.074 C 
HETATM   14  C2  UNL     1      23.760   3.247  49.497  1.00  0.00    -0.050 C 
HETATM   15  C1  UNL     1      22.729   3.471  48.427  1.00  0.00     0.046 C 
HETATM   16  C17 UNL     1      24.954   4.117  49.343  1.00  0.00     0.036 C 
HETATM   17  C16 UNL     1      26.255   3.397  49.452  1.00  0.00     0.005 C 
HETATM   18  C15 UNL     1      26.666   3.130  50.884  1.00  0.00     0.005 C 
HETATM   19  C14 UNL     1      26.491   1.688  51.264  1.00  0.00     0.035 C 
BRANCH  12  20
HETATM   20  C5  UNL     1      22.817   1.293  52.461  1.00  0.00     0.013 C 
HETATM   21  C6  UNL     1      21.802   2.479  52.512  1.00  0.00     0.015 C 
HETATM   22  C7  UNL     1      22.054   0.109  51.835  1.00  0.00     0.015 C 
ENDBRANCH  12  20
BRANCH  13  23
HETATM   23  O1  UNL     1      22.125   1.881  49.933  1.00  0.00    -0.360 OA
HETATM   24  H4  UNL     1      21.528   2.401  49.299  1.00  0.00     0.217 HD
ENDBRANCH  13  23
ENDBRANCH  10  11
ENDBRANCH   1  10
TORSDOF 5
ENDMDL
MODEL 2
REMARK VINA RESULT:      -7.9      1.404      3.491
REMARK  5 active torsions:
REMARK  status: ('A' for Active; 'I' for Inactive)
REMARK    1  A    between atoms: C3_3  and  O1_4 
REMARK    2  A    between atoms: C4_5  and  C5_6 
REMARK    3  A    between atoms: C8_9  and  C9_10 
REMARK    4  A    between atoms: C9_10  and  C10_11 
REMARK    5  A    between atoms: C11_12  and  C13_15 
REMARK       I    between atoms: C13_15  and  N2_16 
ROOT
HETATM    1  C10 UNL     1      26.068  -0.386  52.634  1.00  0.00     0.005 C 
HETATM    2  C11 UNL     1      27.164  -1.000  53.024  1.00  0.00     0.102 C 
HETATM    3  C12 UNL     1      28.152  -0.413  53.880  1.00  0.00     0.104 C 
HETATM    4  N1  UNL     1      28.941   0.074  54.575  1.00  0.00    -0.191 NA
ENDROOT
BRANCH   2   5
HETATM    5  C13 UNL     1      27.345  -2.353  52.535  1.00  0.00     0.238 C 
HETATM    6  N2  UNL     1      28.408  -3.173  53.006  1.00  0.00    -0.268 NA
HETATM    7  H15 UNL     1      29.348  -2.680  52.999  1.00  0.00     0.127 HD
HETATM    8  H16 UNL     1      29.323  -2.685  52.997  1.00  0.00     0.127 HD
HETATM    9  O2  UNL     1      26.566  -2.832  51.682  1.00  0.00    -0.273 OA
ENDBRANCH   2   5
BRANCH   1  10
HETATM   10  C9  UNL     1      25.643   1.032  53.003  1.00  0.00     0.063 C 
BRANCH  10  11
HETATM   11  C8  UNL     1      24.200   0.991  53.075  1.00  0.00    -0.067 C 
HETATM   12  C4  UNL     1      23.538   1.907  52.407  1.00  0.00    -0.019 C 
HETATM   13  C3  UNL     1      22.074   2.115  52.294  1.00  0.00     0.074 C 
HETATM   14  C2  UNL     1      20.974   1.336  52.318  1.00  0.00    -0.050 C 
HETATM   15  C1  UNL     1      19.730   2.160  52.147  1.00  0.00     0.046 C 
HETATM   16  C17 UNL     1      20.693  -0.115  52.467  1.00  0.00     0.036 C 
HETATM   17  C16 UNL     1      21.406  -0.765  53.603  1.00  0.00     0.005 C 
HETATM   18  C15 UNL     1      22.846  -1.103  53.283  1.00  0.00     0.005 C 
HETATM   19  C14 UNL     1      23.811  -0.173  53.958  1.00  0.00     0.035 C 
BRANCH  12  20
HETATM   20  C5  UNL     1      24.224   2.894  51.610  1.00  0.00     0.013 C 
HETATM   21  C6  UNL     1      23.653   2.847  50.158  1.00  0.00     0.015 C 
HETATM   22  C7  UNL     1      23.875   4.291  52.158  1.00  0.00     0.015 C 
ENDBRANCH  12  20
BRANCH  13  23
HETATM   23  O1  UNL     1      21.636   3.398  52.117  1.00  0.00    -0.360 OA
HETATM   24  H4  UNL     1      22.042   4.062  51.467  1.00  0.00     0.217 HD
ENDBRANCH  13  23
ENDBRANCH  10  11
ENDBRANCH   1  10
TORSDOF 5
ENDMDL
MODEL 3
REMARK VINA RESULT:      -7.8      2.026      4.002
REMARK  5 active torsions:
REMARK  status: ('A' for Active; 'I' for Inactive)
REMARK    1  A    between atoms: C3_3  and  O1_4 
REMARK    2  A    between atoms: C4_5  and  C5_6 
REMARK    3  A    between atoms: C8_9  and  C9_10 
REMARK    4  A    between atoms: C9_10  and  C10_11 
REMARK    5  A    between atoms: C11_12  and  C13_15 
REMARK       I    between atoms: C13_15  and  N2_16 
ROOT
HETATM    1  C10 UNL     1      27.003   1.446  52.464  1.00  0.00     0.005 C 
HETATM    2  C11 UNL     1      27.949   0.892  53.191  1.00  0.00     0.102 C 
HETATM    3  C12 UNL     1      28.171  -0.521  53.278  1.00  0.00     0.104 C 
HETATM    4  N1  UNL     1      28.341  -1.666  53.335  1.00  0.00    -0.191 NA
ENDROOT
BRANCH   2   5
HETATM    5  C13 UNL     1      28.797   1.802  53.937  1.00  0.00     0.238 C 
HETATM    6  N2  UNL     1      29.322   2.981  53.338  1.00  0.00    -0.268 NA
HETATM    7  H15 UNL     1      29.765   2.803  52.390  1.00  0.00     0.127 HD
HETATM    8  H16 UNL     1      29.753   2.800  52.412  1.00  0.00     0.127 HD
HETATM    9  O2  UNL     1      29.087   1.569  55.131  1.00  0.00    -0.273 OA
ENDBRANCH   2   5
BRANCH   1  10
HETATM   10  C9  UNL     1      25.984   0.717  51.594  1.00  0.00     0.063 C 
BRANCH  10  11
HETATM   11  C8  UNL     1      24.693   1.097  52.121  1.00  0.00    -0.067 C 
HETATM   12  C4  UNL     1      24.051   2.061  51.504  1.00  0.00    -0.019 C 
HETATM   13  C3  UNL     1      22.728   2.657  51.810  1.00  0.00     0.074 C 
HETATM   14  C2  UNL     1      21.570   2.233  52.354  1.00  0.00    -0.050 C 
HETATM   15  C1  UNL     1      20.561   3.344  52.398  1.00  0.00     0.046 C 
HETATM   16  C17 UNL     1      21.053   0.956  52.911  1.00  0.00     0.036 C 
HETATM   17  C16 UNL     1      21.969   0.295  53.884  1.00  0.00     0.005 C 
HETATM   18  C15 UNL     1      23.085  -0.478  53.215  1.00  0.00     0.005 C 
HETATM   19  C14 UNL     1      24.407   0.225  53.323  1.00  0.00     0.035 C 
BRANCH  12  20
HETATM   20  C5  UNL     1      24.600   2.692  50.329  1.00  0.00     0.013 C 
HETATM   21  C6  UNL     1      23.471   2.818  49.257  1.00  0.00     0.015 C 
HETATM   22  C7  UNL     1      25.001   4.135  50.694  1.00  0.00     0.015 C 
ENDBRANCH  12  20
BRANCH  13  23
HETATM   23  O1  UNL     1      22.546   3.974  51.491  1.00  0.00    -0.360 OA
HETATM   24  H4  UNL     1      21.720   4.350  51.039  1.00  0.00     0.217 HD
ENDBRANCH  13  23
ENDBRANCH  10  11
ENDBRANCH   1  10
TORSDOF 5
ENDMDL
MODEL 4
REMARK VINA RESULT:      -7.8      2.141      2.676
REMARK  5 active torsions:
REMARK  status: ('A' for Active; 'I' for Inactive)
REMARK    1  A    between atoms: C3_3  and  O1_4 
REMARK    2  A    between atoms: C4_5  and  C5_6 
REMARK    3  A    between atoms: C8_9  and  C9_10 
REMARK    4  A    between atoms: C9_10  and  C10_11 
REMARK    5  A    between atoms: C11_12  and  C13_15 
REMARK       I    between atoms: C13_15  and  N2_16 
ROOT
HETATM    1  C10 UNL     1      26.289   2.312  53.312  1.00  0.00     0.005 C 
HETATM    2  C11 UNL     1      27.112   1.432  53.839  1.00  0.00     0.102 C 
HETATM    3  C12 UNL     1      26.696   0.339  54.667  1.00  0.00     0.104 C 
HETATM    4  N1  UNL     1      26.345  -0.542  55.331  1.00  0.00    -0.191 NA
ENDROOT
BRANCH   2   5
HETATM    5  C13 UNL     1      28.520   1.616  53.540  1.00  0.00     0.238 C 
HETATM    6  N2  UNL     1      29.023   2.871  53.096  1.00  0.00    -0.268 NA
HETATM    7  H15 UNL     1      28.450   3.294  52.309  1.00  0.00     0.127 HD
HETATM    8  H16 UNL     1      28.458   3.278  52.328  1.00  0.00     0.127 HD
HETATM    9  O2  UNL     1      29.327   0.670  53.666  1.00  0.00    -0.273 OA
ENDBRANCH   2   5
BRANCH   1  10
HETATM   10  C9  UNL     1      24.772   2.344  53.472  1.00  0.00     0.063 C 
BRANCH  10  11
HETATM   11  C8  UNL     1      24.245   2.243  52.130  1.00  0.00    -0.067 C 
HETATM   12  C4  UNL     1      23.108   1.605  51.976  1.00  0.00    -0.019 C 
HETATM   13  C3  UNL     1      22.336   1.344  50.737  1.00  0.00     0.074 C 
HETATM   14  C2  UNL     1      22.147   1.966  49.557  1.00  0.00    -0.050 C 
HETATM   15  C1  UNL     1      21.220   1.177  48.677  1.00  0.00     0.046 C 
HETATM   16  C17 UNL     1      22.621   3.223  48.921  1.00  0.00     0.036 C 
HETATM   17  C16 UNL     1      24.093   3.440  49.013  1.00  0.00     0.005 C 
HETATM   18  C15 UNL     1      24.527   3.986  50.356  1.00  0.00     0.005 C 
HETATM   19  C14 UNL     1      25.207   2.945  51.198  1.00  0.00     0.035 C 
BRANCH  12  20
HETATM   20  C5  UNL     1      22.400   1.056  53.106  1.00  0.00     0.013 C 
HETATM   21  C6  UNL     1      20.886   1.412  52.967  1.00  0.00     0.015 C 
HETATM   22  C7  UNL     1      22.483  -0.482  53.033  1.00  0.00     0.015 C 
ENDBRANCH  12  20
BRANCH  13  23
HETATM   23  O1  UNL     1      21.593   0.197  50.693  1.00  0.00    -0.360 OA
HETATM   24  H4  UNL     1      20.899  -0.015  49.984  1.00  0.00     0.217 HD
ENDBRANCH  13  23
ENDBRANCH  10  11
ENDBRANCH   1  10
TORSDOF 5
ENDMDL
MODEL 5
REMARK VINA RESULT:      -7.5      3.251      6.461
REMARK  5 active torsions:
REMARK  status: ('A' for Active; 'I' for Inactive)
REMARK    1  A    between atoms: C3_3  and  O1_4 
REMARK    2  A    between atoms: C4_5  and  C5_6 
REMARK    3  A    between atoms: C8_9  and  C9_10 
REMARK    4  A    between atoms: C9_10  and  C10_11 
REMARK    5  A    between atoms: C11_12  and  C13_15 
REMARK       I    between atoms: C13_15  and  N2_16 
ROOT
HETATM    1  C10 UNL     1      23.385   3.711  50.870  1.00  0.00     0.005 C 
HETATM    2  C11 UNL     1      24.106   4.798  50.699  1.00  0.00     0.102 C 
HETATM    3  C12 UNL     1      25.348   4.834  49.985  1.00  0.00     0.104 C 
HETATM    4  N1  UNL     1      26.348   4.849  49.402  1.00  0.00    -0.191 NA
ENDROOT
BRANCH   2   5
HETATM    5  C13 UNL     1      23.576   6.014  51.287  1.00  0.00     0.238 C 
HETATM    6  N2  UNL     1      24.415   6.920  51.993  1.00  0.00    -0.268 NA
HETATM    7  H15 UNL     1      25.037   6.441  52.706  1.00  0.00     0.127 HD
HETATM    8  H16 UNL     1      25.020   6.445  52.688  1.00  0.00     0.127 HD
HETATM    9  O2  UNL     1      22.361   6.293  51.186  1.00  0.00    -0.273 OA
ENDBRANCH   2   5
BRANCH   1  10
HETATM   10  C9  UNL     1      23.718   2.313  50.357  1.00  0.00     0.063 C 
BRANCH  10  11
HETATM   11  C8  UNL     1      23.165   1.407  51.338  1.00  0.00    -0.067 C 
HETATM   12  C4  UNL     1      23.974   0.967  52.273  1.00  0.00    -0.019 C 
HETATM   13  C3  UNL     1      23.696   0.039  53.397  1.00  0.00     0.074 C 
HETATM   14  C2  UNL     1      22.634  -0.266  54.170  1.00  0.00    -0.050 C 
HETATM   15  C1  UNL     1      22.990  -1.325  55.174  1.00  0.00     0.046 C 
HETATM   16  C17 UNL     1      21.222   0.182  54.273  1.00  0.00     0.036 C 
HETATM   17  C16 UNL     1      20.497   0.232  52.972  1.00  0.00     0.005 C 
HETATM   18  C15 UNL     1      20.806   1.478  52.170  1.00  0.00     0.005 C 
HETATM   19  C14 UNL     1      21.706   1.192  51.003  1.00  0.00     0.035 C 
BRANCH  12  20
HETATM   20  C5  UNL     1      25.349   1.396  52.336  1.00  0.00     0.013 C 
HETATM   21  C6  UNL     1      25.645   1.912  53.780  1.00  0.00     0.015 C 
HETATM   22  C7  UNL     1      26.254   0.165  52.132  1.00  0.00     0.015 C 
ENDBRANCH  12  20
BRANCH  13  23
HETATM   23  O1  UNL     1      24.727  -0.749  53.828  1.00  0.00    -0.360 OA
HETATM   24  H4  UNL     1      24.648  -1.464  54.543  1.00  0.00     0.217 HD
ENDBRANCH  13  23
ENDBRANCH  10  11
ENDBRANCH   1  10
TORSDOF 5
ENDMDL
MODEL 6
REMARK VINA RESULT:      -7.3      3.485      6.004
REMARK  5 active torsions:
REMARK  status: ('A' for Active; 'I' for Inactive)
REMARK    1  A    between atoms: C3_3  and  O1_4 
REMARK    2  A    between atoms: C4_5  and  C5_6 
REMARK    3  A    between atoms: C8_9  and  C9_10 
REMARK    4  A    between atoms: C9_10  and  C10_11 
REMARK    5  A    between atoms: C11_12  and  C13_15 
REMARK       I    between atoms: C13_15  and  N2_16 
ROOT
HETATM    1  C10 UNL     1      24.404   4.574  50.284  1.00  0.00     0.005 C 
HETATM    2  C11 UNL     1      25.278   5.520  50.016  1.00  0.00     0.102 C 
HETATM    3  C12 UNL     1      26.444   5.330  49.206  1.00  0.00     0.104 C 
HETATM    4  N1  UNL     1      27.381   5.163  48.546  1.00  0.00    -0.191 NA
ENDROOT
BRANCH   2   5
HETATM    5  C13 UNL     1      25.007   6.822  50.597  1.00  0.00     0.238 C 
HETATM    6  N2  UNL     1      24.471   6.948  51.909  1.00  0.00    -0.268 NA
HETATM    7  H15 UNL     1      23.633   6.319  52.078  1.00  0.00     0.127 HD
HETATM    8  H16 UNL     1      23.653   6.331  52.067  1.00  0.00     0.127 HD
HETATM    9  O2  UNL     1      25.240   7.868  49.953  1.00  0.00    -0.273 OA
ENDBRANCH   2   5
BRANCH   1  10
HETATM   10  C9  UNL     1      24.457   3.128  49.801  1.00  0.00     0.063 C 
BRANCH  10  11
HETATM   11  C8  UNL     1      24.377   2.323  50.999  1.00  0.00    -0.067 C 
HETATM   12  C4  UNL     1      23.213   1.786  51.285  1.00  0.00    -0.019 C 
HETATM   13  C3  UNL     1      22.831   0.925  52.431  1.00  0.00     0.074 C 
HETATM   14  C2  UNL     1      23.445   0.017  53.216  1.00  0.00    -0.050 C 
HETATM   15  C1  UNL     1      22.496  -0.532  54.242  1.00  0.00     0.046 C 
HETATM   16  C17 UNL     1      24.807  -0.567  53.312  1.00  0.00     0.036 C 
HETATM   17  C16 UNL     1      25.909   0.436  53.293  1.00  0.00     0.005 C 
HETATM   18  C15 UNL     1      26.244   0.920  51.898  1.00  0.00     0.005 C 
HETATM   19  C14 UNL     1      25.743   2.313  51.646  1.00  0.00     0.035 C 
BRANCH  12  20
HETATM   20  C5  UNL     1      22.072   1.968  50.422  1.00  0.00     0.013 C 
HETATM   21  C6  UNL     1      21.363   0.589  50.237  1.00  0.00     0.015 C 
HETATM   22  C7  UNL     1      21.056   2.875  51.143  1.00  0.00     0.015 C 
ENDBRANCH  12  20
BRANCH  13  23
HETATM   23  O1  UNL     1      21.540   1.009  52.874  1.00  0.00    -0.360 OA
HETATM   24  H4  UNL     1      20.720   0.909  52.284  1.00  0.00     0.217 HD
ENDBRANCH  13  23
ENDBRANCH  10  11
ENDBRANCH   1  10
TORSDOF 5
ENDMDL
MODEL 7
REMARK VINA RESULT:      -7.3      2.250      4.360
REMARK  5 active torsions:
REMARK  status: ('A' for Active; 'I' for Inactive)
REMARK    1  A    between atoms: C3_3  and  O1_4 
REMARK    2  A    between atoms: C4_5  and  C5_6 
REMARK    3  A    between atoms: C8_9  and  C9_10 
REMARK    4  A    between atoms: C9_10  and  C10_11 
REMARK    5  A    between atoms: C11_12  and  C13_15 
REMARK       I    between atoms: C13_15  and  N2_16 
ROOT
HETATM    1  C10 UNL     1      24.976   0.453  53.089  1.00  0.00     0.005 C 
HETATM    2  C11 UNL     1      26.209   0.710  53.470  1.00  0.00     0.102 C 
HETATM    3  C12 UNL     1      27.076   1.639  52.809  1.00  0.00     0.104 C 
HETATM    4  N1  UNL     1      27.765   2.396  52.266  1.00  0.00    -0.191 NA
ENDROOT
BRANCH   2   5
HETATM    5  C13 UNL     1      26.680  -0.014  54.635  1.00  0.00     0.238 C 
HETATM    6  N2  UNL     1      28.070  -0.145  54.911  1.00  0.00    -0.268 NA
HETATM    7  H15 UNL     1      28.633  -0.455  54.067  1.00  0.00     0.127 HD
HETATM    8  H16 UNL     1      28.614  -0.448  54.082  1.00  0.00     0.127 HD
HETATM    9  O2  UNL     1      25.870  -0.542  55.428  1.00  0.00    -0.273 OA
ENDBRANCH   2   5
BRANCH   1  10
HETATM   10  C9  UNL     1      24.246   1.073  51.902  1.00  0.00     0.063 C 
BRANCH  10  11
HETATM   11  C8  UNL     1      22.840   0.957  52.216  1.00  0.00    -0.067 C 
HETATM   12  C4  UNL     1      21.985   1.291  51.278  1.00  0.00    -0.019 C 
HETATM   13  C3  UNL     1      20.501   1.277  51.310  1.00  0.00     0.074 C 
HETATM   14  C2  UNL     1      19.546   0.553  51.926  1.00  0.00    -0.050 C 
HETATM   15  C1  UNL     1      18.177   1.037  51.543  1.00  0.00     0.046 C 
HETATM   16  C17 UNL     1      19.514  -0.590  52.874  1.00  0.00     0.036 C 
HETATM   17  C16 UNL     1      20.419  -0.440  54.049  1.00  0.00     0.005 C 
HETATM   18  C15 UNL     1      21.860  -0.776  53.732  1.00  0.00     0.005 C 
HETATM   19  C14 UNL     1      22.721   0.450  53.636  1.00  0.00     0.035 C 
BRANCH  12  20
HETATM   20  C5  UNL     1      22.431   1.725  49.978  1.00  0.00     0.013 C 
HETATM   21  C6  UNL     1      21.540   1.043  48.891  1.00  0.00     0.015 C 
HETATM   22  C7  UNL     1      22.170   3.238  49.853  1.00  0.00     0.015 C 
ENDBRANCH  12  20
BRANCH  13  23
HETATM   23  O1  UNL     1      19.851   2.205  50.545  1.00  0.00    -0.360 OA
HETATM   24  H4  UNL     1      19.588   3.133  50.862  1.00  0.00     0.217 HD
ENDBRANCH  13  23
ENDBRANCH  10  11
ENDBRANCH   1  10
TORSDOF 5
ENDMDL
MODEL 8
REMARK VINA RESULT:      -7.3      1.565      3.330
REMARK  5 active torsions:
REMARK  status: ('A' for Active; 'I' for Inactive)
REMARK    1  A    between atoms: C3_3  and  O1_4 
REMARK    2  A    between atoms: C4_5  and  C5_6 
REMARK    3  A    between atoms: C8_9  and  C9_10 
REMARK    4  A    between atoms: C9_10  and  C10_11 
REMARK    5  A    between atoms: C11_12  and  C13_15 
REMARK       I    between atoms: C13_15  and  N2_16 
ROOT
HETATM    1  C10 UNL     1      25.439   1.125  53.103  1.00  0.00     0.005 C 
HETATM    2  C11 UNL     1      26.718   0.815  53.103  1.00  0.00     0.102 C 
HETATM    3  C12 UNL     1      27.777   1.778  53.044  1.00  0.00     0.104 C 
HETATM    4  N1  UNL     1      28.623   2.568  53.000  1.00  0.00    -0.191 NA
ENDROOT
BRANCH   2   5
HETATM    5  C13 UNL     1      27.031  -0.600  53.167  1.00  0.00     0.238 C 
HETATM    6  N2  UNL     1      28.223  -1.065  53.789  1.00  0.00    -0.268 NA
HETATM    7  H15 UNL     1      29.089  -0.539  53.474  1.00  0.00     0.127 HD
HETATM    8  H16 UNL     1      29.065  -0.546  53.477  1.00  0.00     0.127 HD
HETATM    9  O2  UNL     1      26.256  -1.447  52.673  1.00  0.00    -0.273 OA
ENDBRANCH   2   5
BRANCH   1  10
HETATM   10  C9  UNL     1      24.847   2.529  53.042  1.00  0.00     0.063 C 
BRANCH  10  11
HETATM   11  C8  UNL     1      23.895   2.494  51.954  1.00  0.00    -0.067 C 
HETATM   12  C4  UNL     1      24.256   3.051  50.822  1.00  0.00    -0.019 C 
HETATM   13  C3  UNL     1      23.502   3.169  49.549  1.00  0.00     0.074 C 
HETATM   14  C2  UNL     1      22.570   2.445  48.898  1.00  0.00    -0.050 C 
HETATM   15  C1  UNL     1      22.183   3.108  47.607  1.00  0.00     0.046 C 
HETATM   16  C17 UNL     1      21.843   1.172  49.137  1.00  0.00     0.036 C 
HETATM   17  C16 UNL     1      21.256   1.047  50.502  1.00  0.00     0.005 C 
HETATM   18  C15 UNL     1      22.270   0.635  51.547  1.00  0.00     0.005 C 
HETATM   19  C14 UNL     1      22.657   1.777  52.442  1.00  0.00     0.035 C 
BRANCH  12  20
HETATM   20  C5  UNL     1      25.560   3.647  50.662  1.00  0.00     0.013 C 
HETATM   21  C6  UNL     1      26.306   2.910  49.505  1.00  0.00     0.015 C 
HETATM   22  C7  UNL     1      25.376   5.102  50.189  1.00  0.00     0.015 C 
ENDBRANCH  12  20
BRANCH  13  23
HETATM   23  O1  UNL     1      23.755   4.264  48.771  1.00  0.00    -0.360 OA
HETATM   24  H4  UNL     1      23.063   4.957  48.506  1.00  0.00     0.217 HD
ENDBRANCH  13  23
ENDBRANCH  10  11
ENDBRANCH   1  10
TORSDOF 5
ENDMDL
MODEL 9
REMARK VINA RESULT:      -7.2      3.787      6.282
REMARK  5 active torsions:
REMARK  status: ('A' for Active; 'I' for Inactive)
REMARK    1  A    between atoms: C3_3  and  O1_4 
REMARK    2  A    between atoms: C4_5  and  C5_6 
REMARK    3  A    between atoms: C8_9  and  C9_10 
REMARK    4  A    between atoms: C9_10  and  C10_11 
REMARK    5  A    between atoms: C11_12  and  C13_15 
REMARK       I    between atoms: C13_15  and  N2_16 
ROOT
HETATM    1  C10 UNL     1      22.614   2.495  51.786  1.00  0.00     0.005 C 
HETATM    2  C11 UNL     1      23.433   3.248  52.488  1.00  0.00     0.102 C 
HETATM    3  C12 UNL     1      24.606   2.757  53.150  1.00  0.00     0.104 C 
HETATM    4  N1  UNL     1      25.553   2.346  53.676  1.00  0.00    -0.191 NA
ENDROOT
BRANCH   2   5
HETATM    5  C13 UNL     1      23.092   4.655  52.574  1.00  0.00     0.238 C 
HETATM    6  N2  UNL     1      23.866   5.556  53.357  1.00  0.00    -0.268 NA
HETATM    7  H15 UNL     1      24.062   5.194  54.335  1.00  0.00     0.127 HD
HETATM    8  H16 UNL     1      24.054   5.196  54.311  1.00  0.00     0.127 HD
HETATM    9  O2  UNL     1      22.104   5.109  51.958  1.00  0.00    -0.273 OA
ENDBRANCH   2   5
BRANCH   1  10
HETATM   10  C9  UNL     1      22.744   0.995  51.544  1.00  0.00     0.063 C 
BRANCH  10  11
HETATM   11  C8  UNL     1      21.388   0.494  51.522  1.00  0.00    -0.067 C 
HETATM   12  C4  UNL     1      20.915  -0.009  52.639  1.00  0.00    -0.019 C 
HETATM   13  C3  UNL     1      19.579  -0.591  52.917  1.00  0.00     0.074 C 
HETATM   14  C2  UNL     1      18.322  -0.406  52.466  1.00  0.00    -0.050 C 
HETATM   15  C1  UNL     1      17.364  -1.332  53.159  1.00  0.00     0.046 C 
HETATM   16  C17 UNL     1      17.661   0.475  51.470  1.00  0.00     0.036 C 
HETATM   17  C16 UNL     1      18.342   0.525  50.145  1.00  0.00     0.005 C 
HETATM   18  C15 UNL     1      19.541   1.450  50.131  1.00  0.00     0.005 C 
HETATM   19  C14 UNL     1      20.839   0.696  50.128  1.00  0.00     0.035 C 
BRANCH  12  20
HETATM   20  C5  UNL     1      21.707  -0.032  53.844  1.00  0.00     0.013 C 
HETATM   21  C6  UNL     1      20.833   0.498  55.025  1.00  0.00     0.015 C 
HETATM   22  C7  UNL     1      22.035  -1.499  54.184  1.00  0.00     0.015 C 
ENDBRANCH  12  20
BRANCH  13  23
HETATM   23  O1  UNL     1      19.511  -1.577  53.862  1.00  0.00    -0.360 OA
HETATM   24  H4  UNL     1      20.118  -2.389  53.893  1.00  0.00     0.217 HD
ENDBRANCH  13  23
ENDBRANCH  10  11
ENDBRANCH   1  10
TORSDOF 5
ENDMDL
