MODEL 1
REMARK VINA RESULT:      -8.1      0.000      0.000
REMARK  7 active torsions:
REMARK  status: ('A' for Active; 'I' for Inactive)
REMARK    1  A    between atoms: C2_2  and  C3_3 
REMARK    2  A    between atoms: C9_9  and  C10_10 
REMARK    3  A    between atoms: C10_10  and  O1_11 
REMARK    4  A    between atoms: C19_23  and  O3_24 
REMARK    5  A    between atoms: O3_24  and  C20_25 
REMARK    6  A    between atoms: C20_25  and  C21_26 
REMARK    7  A    between atoms: C21_26  and  O4_27 
ROOT
HETATM    1  C3  UNL     1      25.296   3.396  50.117  1.00  0.00     0.033 C 
HETATM    2  C4  UNL     1      24.280   3.026  49.329  1.00  0.00     0.036 C 
HETATM    3  C5  UNL     1      22.957   2.470  49.417  1.00  0.00    -0.055 C 
HETATM    4  C6  UNL     1      22.628   2.304  47.933  1.00  0.00     0.048 C 
HETATM    5  C7  UNL     1      21.892   1.966  50.043  1.00  0.00    -0.047 C 
HETATM    6  C8  UNL     1      20.685   1.566  49.283  1.00  0.00     0.046 C 
HETATM    7  C9  UNL     1      21.342   1.521  51.376  1.00  0.00     0.182 C 
HETATM    8  O2  UNL     1      22.102   1.653  52.507  1.00  0.00    -0.337 OA
HETATM    9  C12 UNL     1      23.210   0.946  52.946  1.00  0.00     0.104 A 
HETATM   10  C13 UNL     1      23.799   2.006  52.417  1.00  0.00     0.057 A 
HETATM   11  C14 UNL     1      25.140   1.645  52.663  1.00  0.00     0.042 A 
HETATM   12  C15 UNL     1      26.272   2.361  52.258  1.00  0.00     0.142 A 
HETATM   13  N1  UNL     1      27.539   2.087  52.408  1.00  0.00    -0.224 NA
HETATM   14  C16 UNL     1      27.901   0.930  53.049  1.00  0.00     0.236 A 
HETATM   15  N2  UNL     1      26.906   0.152  53.478  1.00  0.00    -0.241 NA
HETATM   16  C17 UNL     1      25.641   0.485  53.292  1.00  0.00     0.075 A 
HETATM   17  C18 UNL     1      24.761  -0.503  53.777  1.00  0.00     0.072 A 
HETATM   18  C19 UNL     1      23.387  -0.221  53.571  1.00  0.00     0.104 A 
HETATM   19  N3  UNL     1      25.754   3.473  51.515  1.00  0.00    -0.340 N 
HETATM   20  H27 UNL     1      25.781   4.275  52.135  1.00  0.00     0.167 HD
ENDROOT
BRANCH  18  21
HETATM   21  O3  UNL     1      22.344  -0.915  53.889  1.00  0.00    -0.346 OA
BRANCH  21  22
HETATM   22  C20 UNL     1      21.296  -1.599  54.211  1.00  0.00     0.201 C 
BRANCH  22  23
HETATM   23  C21 UNL     1      19.875  -1.312  53.860  1.00  0.00     0.193 C 
BRANCH  23  24
HETATM   24  O4  UNL     1      18.992  -2.331  53.869  1.00  0.00    -0.394 OA
HETATM   25  C22 UNL     1      17.711  -2.015  53.490  1.00  0.00     0.201 C 
ENDBRANCH  23  24
ENDBRANCH  22  23
ENDBRANCH  21  22
ENDBRANCH  18  21
BRANCH   7  26
HETATM   26  C10 UNL     1      20.020   2.099  51.748  1.00  0.00     0.204 C 
BRANCH  26  27
HETATM   27  O1  UNL     1      19.902   3.385  52.184  1.00  0.00    -0.393 OA
HETATM   28  C11 UNL     1      19.018   4.097  51.332  1.00  0.00     0.201 C 
ENDBRANCH  26  27
ENDBRANCH   7  26
BRANCH   1  29
HETATM   29  C2  UNL     1      26.496   3.926  49.441  1.00  0.00     0.019 C 
HETATM   30  C1  UNL     1      26.537   5.120  48.954  1.00  0.00     0.013 C 
ENDBRANCH   1  29
TORSDOF 7
ENDMDL
MODEL 2
REMARK VINA RESULT:      -7.7      3.072      6.179
REMARK  7 active torsions:
REMARK  status: ('A' for Active; 'I' for Inactive)
REMARK    1  A    between atoms: C2_2  and  C3_3 
REMARK    2  A    between atoms: C9_9  and  C10_10 
REMARK    3  A    between atoms: C10_10  and  O1_11 
REMARK    4  A    between atoms: C19_23  and  O3_24 
REMARK    5  A    between atoms: O3_24  and  C20_25 
REMARK    6  A    between atoms: C20_25  and  C21_26 
REMARK    7  A    between atoms: C21_26  and  O4_27 
ROOT
HETATM    1  C3  UNL     1      20.665   1.676  51.738  1.00  0.00     0.033 C 
HETATM    2  C4  UNL     1      21.060   2.949  51.618  1.00  0.00     0.036 C 
HETATM    3  C5  UNL     1      22.250   3.719  51.380  1.00  0.00    -0.055 C 
HETATM    4  C6  UNL     1      21.696   5.136  51.537  1.00  0.00     0.048 C 
HETATM    5  C7  UNL     1      23.554   3.904  51.164  1.00  0.00    -0.047 C 
HETATM    6  C8  UNL     1      24.104   5.265  50.964  1.00  0.00     0.046 C 
HETATM    7  C9  UNL     1      24.898   3.222  51.079  1.00  0.00     0.182 C 
HETATM    8  O2  UNL     1      24.983   1.863  51.222  1.00  0.00    -0.337 OA
HETATM    9  C12 UNL     1      24.861   1.056  52.342  1.00  0.00     0.104 A 
HETATM   10  C13 UNL     1      23.649   0.933  51.827  1.00  0.00     0.057 A 
HETATM   11  C14 UNL     1      23.092   0.081  52.804  1.00  0.00     0.042 A 
HETATM   12  C15 UNL     1      21.766  -0.365  52.847  1.00  0.00     0.142 A 
HETATM   13  N1  UNL     1      21.160  -1.118  53.724  1.00  0.00    -0.224 NA
HETATM   14  C16 UNL     1      21.864  -1.584  54.805  1.00  0.00     0.236 A 
HETATM   15  N2  UNL     1      23.144  -1.219  54.882  1.00  0.00    -0.241 NA
HETATM   16  C17 UNL     1      23.700  -0.450  53.962  1.00  0.00     0.075 A 
HETATM   17  C18 UNL     1      25.042  -0.148  54.269  1.00  0.00     0.072 A 
HETATM   18  C19 UNL     1      25.681   0.707  53.337  1.00  0.00     0.104 A 
HETATM   19  N3  UNL     1      21.129   0.278  51.734  1.00  0.00    -0.340 N 
HETATM   20  H27 UNL     1      21.069  -0.413  50.994  1.00  0.00     0.167 HD
ENDROOT
BRANCH  18  21
HETATM   21  O3  UNL     1      26.888   1.170  53.332  1.00  0.00    -0.346 OA
BRANCH  21  22
HETATM   22  C20 UNL     1      28.091   1.642  53.322  1.00  0.00     0.201 C 
BRANCH  22  23
HETATM   23  C21 UNL     1      29.296   1.082  53.999  1.00  0.00     0.193 C 
BRANCH  23  24
HETATM   24  O4  UNL     1      30.014   0.138  53.356  1.00  0.00    -0.394 OA
HETATM   25  C22 UNL     1      29.662  -1.162  53.618  1.00  0.00     0.201 C 
ENDBRANCH  23  24
ENDBRANCH  22  23
ENDBRANCH  21  22
ENDBRANCH  18  21
BRANCH   7  26
HETATM   26  C10 UNL     1      25.688   3.517  49.851  1.00  0.00     0.204 C 
BRANCH  26  27
HETATM   27  O1  UNL     1      27.039   3.697  49.901  1.00  0.00    -0.393 OA
HETATM   28  C11 UNL     1      27.436   4.599  48.879  1.00  0.00     0.201 C 
ENDBRANCH  26  27
ENDBRANCH   7  26
BRANCH   1  29
HETATM   29  C2  UNL     1      19.232   1.453  52.009  1.00  0.00     0.019 C 
HETATM   30  C1  UNL     1      18.549   0.551  51.387  1.00  0.00     0.013 C 
ENDBRANCH   1  29
TORSDOF 7
ENDMDL
MODEL 3
REMARK VINA RESULT:      -7.3      2.578      4.692
REMARK  7 active torsions:
REMARK  status: ('A' for Active; 'I' for Inactive)
REMARK    1  A    between atoms: C2_2  and  C3_3 
REMARK    2  A    between atoms: C9_9  and  C10_10 
REMARK    3  A    between atoms: C10_10  and  O1_11 
REMARK    4  A    between atoms: C19_23  and  O3_24 
REMARK    5  A    between atoms: O3_24  and  C20_25 
REMARK    6  A    between atoms: C20_25  and  C21_26 
REMARK    7  A    between atoms: C21_26  and  O4_27 
ROOT
HETATM    1  C3  UNL     1      26.303   1.681  52.260  1.00  0.00     0.033 C 
HETATM    2  C4  UNL     1      26.476   2.450  51.178  1.00  0.00     0.036 C 
HETATM    3  C5  UNL     1      25.850   3.545  50.489  1.00  0.00    -0.055 C 
HETATM    4  C6  UNL     1      26.757   3.652  49.262  1.00  0.00     0.048 C 
HETATM    5  C7  UNL     1      24.910   4.468  50.277  1.00  0.00    -0.047 C 
HETATM    6  C8  UNL     1      25.017   5.412  49.140  1.00  0.00     0.046 C 
HETATM    7  C9  UNL     1      23.573   4.994  50.740  1.00  0.00     0.182 C 
HETATM    8  O2  UNL     1      22.957   4.432  51.825  1.00  0.00    -0.337 OA
HETATM    9  C12 UNL     1      22.313   3.214  51.976  1.00  0.00     0.104 A 
HETATM   10  C13 UNL     1      23.496   2.921  52.487  1.00  0.00     0.057 A 
HETATM   11  C14 UNL     1      23.259   1.566  52.801  1.00  0.00     0.042 A 
HETATM   12  C15 UNL     1      24.195   0.667  53.326  1.00  0.00     0.142 A 
HETATM   13  N1  UNL     1      24.075  -0.600  53.611  1.00  0.00    -0.224 NA
HETATM   14  C16 UNL     1      22.875  -1.226  53.387  1.00  0.00     0.236 A 
HETATM   15  N2  UNL     1      21.900  -0.473  52.877  1.00  0.00    -0.241 NA
HETATM   16  C17 UNL     1      22.085   0.808  52.606  1.00  0.00     0.075 A 
HETATM   17  C18 UNL     1      20.941   1.394  52.029  1.00  0.00     0.072 A 
HETATM   18  C19 UNL     1      21.092   2.759  51.679  1.00  0.00     0.104 A 
HETATM   19  N3  UNL     1      25.416   1.417  53.406  1.00  0.00    -0.340 N 
HETATM   20  H27 UNL     1      25.521   1.698  54.375  1.00  0.00     0.167 HD
ENDROOT
BRANCH  18  21
HETATM   21  O3  UNL     1      20.246   3.572  51.135  1.00  0.00    -0.346 OA
BRANCH  21  22
HETATM   22  C20 UNL     1      19.393   4.379  50.596  1.00  0.00     0.201 C 
BRANCH  22  23
HETATM   23  C21 UNL     1      17.911   4.382  50.760  1.00  0.00     0.193 C 
BRANCH  23  24
HETATM   24  O4  UNL     1      17.393   3.973  51.937  1.00  0.00    -0.394 OA
HETATM   25  C22 UNL     1      16.050   4.201  52.110  1.00  0.00     0.201 C 
ENDBRANCH  23  24
ENDBRANCH  22  23
ENDBRANCH  21  22
ENDBRANCH  18  21
BRANCH   7  26
HETATM   26  C10 UNL     1      23.518   6.460  50.999  1.00  0.00     0.204 C 
BRANCH  26  27
HETATM   27  O1  UNL     1      22.339   7.145  50.969  1.00  0.00    -0.393 OA
HETATM   28  C11 UNL     1      21.772   7.056  49.670  1.00  0.00     0.201 C 
ENDBRANCH  26  27
ENDBRANCH   7  26
BRANCH   1  29
HETATM   29  C2  UNL     1      27.315   0.634  52.493  1.00  0.00     0.019 C 
HETATM   30  C1  UNL     1      27.907   0.494  53.632  1.00  0.00     0.013 C 
ENDBRANCH   1  29
TORSDOF 7
ENDMDL
MODEL 4
REMARK VINA RESULT:      -7.1      2.548      5.928
REMARK  7 active torsions:
REMARK  status: ('A' for Active; 'I' for Inactive)
REMARK    1  A    between atoms: C2_2  and  C3_3 
REMARK    2  A    between atoms: C9_9  and  C10_10 
REMARK    3  A    between atoms: C10_10  and  O1_11 
REMARK    4  A    between atoms: C19_23  and  O3_24 
REMARK    5  A    between atoms: O3_24  and  C20_25 
REMARK    6  A    between atoms: C20_25  and  C21_26 
REMARK    7  A    between atoms: C21_26  and  O4_27 
ROOT
HETATM    1  C3  UNL     1      22.160   0.290  53.434  1.00  0.00     0.033 C 
HETATM    2  C4  UNL     1      21.397   1.330  53.078  1.00  0.00     0.036 C 
HETATM    3  C5  UNL     1      21.326   2.357  52.074  1.00  0.00    -0.055 C 
HETATM    4  C6  UNL     1      20.127   3.158  52.584  1.00  0.00     0.048 C 
HETATM    5  C7  UNL     1      21.738   3.038  51.003  1.00  0.00    -0.047 C 
HETATM    6  C8  UNL     1      20.950   4.179  50.481  1.00  0.00     0.046 C 
HETATM    7  C9  UNL     1      22.847   3.190  49.992  1.00  0.00     0.182 C 
HETATM    8  O2  UNL     1      23.922   2.343  50.025  1.00  0.00    -0.337 OA
HETATM    9  C12 UNL     1      24.993   2.266  50.900  1.00  0.00     0.104 A 
HETATM   10  C13 UNL     1      24.218   1.313  51.389  1.00  0.00     0.057 A 
HETATM   11  C14 UNL     1      25.033   0.914  52.469  1.00  0.00     0.042 A 
HETATM   12  C15 UNL     1      24.708  -0.049  53.432  1.00  0.00     0.142 A 
HETATM   13  N1  UNL     1      25.378  -0.452  54.477  1.00  0.00    -0.224 NA
HETATM   14  C16 UNL     1      26.600   0.108  54.745  1.00  0.00     0.236 A 
HETATM   15  N2  UNL     1      27.020   1.050  53.899  1.00  0.00    -0.241 NA
HETATM   16  C17 UNL     1      26.292   1.418  52.859  1.00  0.00     0.075 A 
HETATM   17  C18 UNL     1      26.902   2.461  52.132  1.00  0.00     0.072 A 
HETATM   18  C19 UNL     1      26.148   2.926  51.026  1.00  0.00     0.104 A 
HETATM   19  N3  UNL     1      23.377  -0.467  53.096  1.00  0.00    -0.340 N 
HETATM   20  H27 UNL     1      23.465  -1.353  52.610  1.00  0.00     0.167 HD
ENDROOT
BRANCH  18  21
HETATM   21  O3  UNL     1      26.420   3.860  50.174  1.00  0.00    -0.346 OA
BRANCH  21  22
HETATM   22  C20 UNL     1      26.694   4.785  49.315  1.00  0.00     0.201 C 
BRANCH  22  23
HETATM   23  C21 UNL     1      25.969   6.069  49.094  1.00  0.00     0.193 C 
BRANCH  23  24
HETATM   24  O4  UNL     1      25.802   6.901  50.142  1.00  0.00    -0.394 OA
HETATM   25  C22 UNL     1      24.613   6.779  50.819  1.00  0.00     0.201 C 
ENDBRANCH  23  24
ENDBRANCH  22  23
ENDBRANCH  21  22
ENDBRANCH  18  21
BRANCH   7  26
HETATM   26  C10 UNL     1      22.417   3.189  48.565  1.00  0.00     0.204 C 
BRANCH  26  27
HETATM   27  O1  UNL     1      22.809   4.170  47.703  1.00  0.00    -0.393 OA
HETATM   28  C11 UNL     1      21.896   4.241  46.618  1.00  0.00     0.201 C 
ENDBRANCH  26  27
ENDBRANCH   7  26
BRANCH   1  29
HETATM   29  C2  UNL     1      21.739  -0.456  54.635  1.00  0.00     0.019 C 
HETATM   30  C1  UNL     1      21.278  -1.660  54.568  1.00  0.00     0.013 C 
ENDBRANCH   1  29
TORSDOF 7
ENDMDL
MODEL 5
REMARK VINA RESULT:      -7.0      2.358      4.703
REMARK  7 active torsions:
REMARK  status: ('A' for Active; 'I' for Inactive)
REMARK    1  A    between atoms: C2_2  and  C3_3 
REMARK    2  A    between atoms: C9_9  and  C10_10 
REMARK    3  A    between atoms: C10_10  and  O1_11 
REMARK    4  A    between atoms: C19_23  and  O3_24 
REMARK    5  A    between atoms: O3_24  and  C20_25 
REMARK    6  A    between atoms: C20_25  and  C21_26 
REMARK    7  A    between atoms: C21_26  and  O4_27 
ROOT
HETATM    1  C3  UNL     1      22.661   5.145  48.464  1.00  0.00     0.033 C 
HETATM    2  C4  UNL     1      21.830   4.099  48.396  1.00  0.00     0.036 C 
HETATM    3  C5  UNL     1      21.464   2.927  49.143  1.00  0.00    -0.055 C 
HETATM    4  C6  UNL     1      20.478   2.277  48.171  1.00  0.00     0.048 C 
HETATM    5  C7  UNL     1      21.536   2.062  50.157  1.00  0.00    -0.047 C 
HETATM    6  C8  UNL     1      20.632   0.889  50.219  1.00  0.00     0.046 C 
HETATM    7  C9  UNL     1      22.289   1.694  51.412  1.00  0.00     0.182 C 
HETATM    8  O2  UNL     1      23.320   2.484  51.845  1.00  0.00    -0.337 OA
HETATM    9  C12 UNL     1      24.605   2.652  51.355  1.00  0.00     0.104 A 
HETATM   10  C13 UNL     1      24.010   3.708  50.826  1.00  0.00     0.057 A 
HETATM   11  C14 UNL     1      25.111   4.238  50.121  1.00  0.00     0.042 A 
HETATM   12  C15 UNL     1      25.088   5.359  49.283  1.00  0.00     0.142 A 
HETATM   13  N1  UNL     1      26.040   5.895  48.569  1.00  0.00    -0.224 NA
HETATM   14  C16 UNL     1      27.289   5.328  48.587  1.00  0.00     0.236 A 
HETATM   15  N2  UNL     1      27.437   4.242  49.347  1.00  0.00    -0.241 NA
HETATM   16  C17 UNL     1      26.431   3.745  50.045  1.00  0.00     0.075 A 
HETATM   17  C18 UNL     1      26.797   2.571  50.733  1.00  0.00     0.072 A 
HETATM   18  C19 UNL     1      25.747   1.968  51.469  1.00  0.00     0.104 A 
HETATM   19  N3  UNL     1      23.716   5.779  49.273  1.00  0.00    -0.340 N 
HETATM   20  H27 UNL     1      23.649   6.568  49.906  1.00  0.00     0.167 HD
ENDROOT
BRANCH  18  21
HETATM   21  O3  UNL     1      25.753   0.896  52.193  1.00  0.00    -0.346 OA
BRANCH  21  22
HETATM   22  C20 UNL     1      25.764  -0.180  52.907  1.00  0.00     0.201 C 
BRANCH  22  23
HETATM   23  C21 UNL     1      26.949  -0.891  53.469  1.00  0.00     0.193 C 
BRANCH  23  24
HETATM   24  O4  UNL     1      27.361  -0.571  54.713  1.00  0.00    -0.394 OA
HETATM   25  C22 UNL     1      28.506   0.183  54.788  1.00  0.00     0.201 C 
ENDBRANCH  23  24
ENDBRANCH  22  23
ENDBRANCH  21  22
ENDBRANCH  18  21
BRANCH   7  26
HETATM   26  C10 UNL     1      21.449   1.484  52.624  1.00  0.00     0.204 C 
BRANCH  26  27
HETATM   27  O1  UNL     1      21.877   0.709  53.662  1.00  0.00    -0.393 OA
HETATM   28  C11 UNL     1      20.760   0.100  54.292  1.00  0.00     0.201 C 
ENDBRANCH  26  27
ENDBRANCH   7  26
BRANCH   1  29
HETATM   29  C2  UNL     1      22.618   6.096  47.336  1.00  0.00     0.019 C 
HETATM   30  C1  UNL     1      22.221   5.745  46.159  1.00  0.00     0.013 C 
ENDBRANCH   1  29
TORSDOF 7
ENDMDL
MODEL 6
REMARK VINA RESULT:      -6.8      2.359      5.310
REMARK  7 active torsions:
REMARK  status: ('A' for Active; 'I' for Inactive)
REMARK    1  A    between atoms: C2_2  and  C3_3 
REMARK    2  A    between atoms: C9_9  and  C10_10 
REMARK    3  A    between atoms: C10_10  and  O1_11 
REMARK    4  A    between atoms: C19_23  and  O3_24 
REMARK    5  A    between atoms: O3_24  and  C20_25 
REMARK    6  A    between atoms: C20_25  and  C21_26 
REMARK    7  A    between atoms: C21_26  and  O4_27 
ROOT
HETATM    1  C3  UNL     1      23.944   0.983  52.171  1.00  0.00     0.033 C 
HETATM    2  C4  UNL     1      23.088   0.339  52.974  1.00  0.00     0.036 C 
HETATM    3  C5  UNL     1      21.682   0.072  53.104  1.00  0.00    -0.055 C 
HETATM    4  C6  UNL     1      21.666  -0.676  54.438  1.00  0.00     0.048 C 
HETATM    5  C7  UNL     1      20.394   0.154  52.764  1.00  0.00    -0.047 C 
HETATM    6  C8  UNL     1      19.356  -0.558  53.546  1.00  0.00     0.046 C 
HETATM    7  C9  UNL     1      19.407   0.797  51.821  1.00  0.00     0.182 C 
HETATM    8  O2  UNL     1      19.853   1.634  50.832  1.00  0.00    -0.337 OA
HETATM    9  C12 UNL     1      20.347   2.927  50.889  1.00  0.00     0.104 A 
HETATM   10  C13 UNL     1      21.478   2.243  50.831  1.00  0.00     0.057 A 
HETATM   11  C14 UNL     1      22.380   3.325  50.889  1.00  0.00     0.042 A 
HETATM   12  C15 UNL     1      23.776   3.231  50.935  1.00  0.00     0.142 A 
HETATM   13  N1  UNL     1      24.680   4.167  51.026  1.00  0.00    -0.224 NA
HETATM   14  C16 UNL     1      24.281   5.477  51.096  1.00  0.00     0.236 A 
HETATM   15  N2  UNL     1      22.966   5.699  51.071  1.00  0.00    -0.241 NA
HETATM   16  C17 UNL     1      22.099   4.705  50.980  1.00  0.00     0.075 A 
HETATM   17  C18 UNL     1      20.767   5.164  51.021  1.00  0.00     0.072 A 
HETATM   18  C19 UNL     1      19.790   4.138  50.968  1.00  0.00     0.104 A 
HETATM   19  N3  UNL     1      24.046   1.822  50.965  1.00  0.00    -0.340 N 
HETATM   20  H27 UNL     1      24.313   1.557  50.023  1.00  0.00     0.167 HD
ENDROOT
BRANCH  18  21
HETATM   21  O3  UNL     1      18.500   4.223  50.991  1.00  0.00    -0.346 OA
BRANCH  21  22
HETATM   22  C20 UNL     1      17.211   4.311  51.002  1.00  0.00     0.201 C 
BRANCH  22  23
HETATM   23  C21 UNL     1      16.262   3.674  51.959  1.00  0.00     0.193 C 
BRANCH  23  24
HETATM   24  O4  UNL     1      15.910   4.357  53.068  1.00  0.00    -0.394 OA
HETATM   25  C22 UNL     1      14.578   4.320  53.395  1.00  0.00     0.201 C 
ENDBRANCH  23  24
ENDBRANCH  22  23
ENDBRANCH  21  22
ENDBRANCH  18  21
BRANCH   7  26
HETATM   26  C10 UNL     1      18.483  -0.141  51.124  1.00  0.00     0.204 C 
BRANCH  26  27
HETATM   27  O1  UNL     1      17.325   0.296  50.549  1.00  0.00    -0.393 OA
HETATM   28  C11 UNL     1      16.217  -0.322  51.186  1.00  0.00     0.201 C 
ENDBRANCH  26  27
ENDBRANCH   7  26
BRANCH   1  29
HETATM   29  C2  UNL     1      25.369   0.931  52.549  1.00  0.00     0.019 C 
HETATM   30  C1  UNL     1      25.999  -0.187  52.693  1.00  0.00     0.013 C 
ENDBRANCH   1  29
TORSDOF 7
ENDMDL
MODEL 7
REMARK VINA RESULT:      -6.4      2.846      4.806
REMARK  7 active torsions:
REMARK  status: ('A' for Active; 'I' for Inactive)
REMARK    1  A    between atoms: C2_2  and  C3_3 
REMARK    2  A    between atoms: C9_9  and  C10_10 
REMARK    3  A    between atoms: C10_10  and  O1_11 
REMARK    4  A    between atoms: C19_23  and  O3_24 
REMARK    5  A    between atoms: O3_24  and  C20_25 
REMARK    6  A    between atoms: C20_25  and  C21_26 
REMARK    7  A    between atoms: C21_26  and  O4_27 
ROOT
HETATM    1  C3  UNL     1      23.942   7.099  47.624  1.00  0.00     0.033 C 
HETATM    2  C4  UNL     1      22.776   6.480  47.404  1.00  0.00     0.036 C 
HETATM    3  C5  UNL     1      21.873   5.562  48.043  1.00  0.00    -0.055 C 
HETATM    4  C6  UNL     1      20.846   5.365  46.927  1.00  0.00     0.048 C 
HETATM    5  C7  UNL     1      21.456   4.747  49.013  1.00  0.00    -0.047 C 
HETATM    6  C8  UNL     1      20.156   4.045  48.907  1.00  0.00     0.046 C 
HETATM    7  C9  UNL     1      21.825   4.111  50.331  1.00  0.00     0.182 C 
HETATM    8  O2  UNL     1      23.020   4.415  50.925  1.00  0.00    -0.337 OA
HETATM    9  C12 UNL     1      24.316   4.043  50.604  1.00  0.00     0.104 A 
HETATM   10  C13 UNL     1      24.273   5.248  50.059  1.00  0.00     0.057 A 
HETATM   11  C14 UNL     1      25.576   5.281  49.522  1.00  0.00     0.042 A 
HETATM   12  C15 UNL     1      26.118   6.310  48.743  1.00  0.00     0.142 A 
HETATM   13  N1  UNL     1      27.290   6.409  48.178  1.00  0.00    -0.224 NA
HETATM   14  C16 UNL     1      28.190   5.384  48.320  1.00  0.00     0.236 A 
HETATM   15  N2  UNL     1      27.785   4.335  49.038  1.00  0.00    -0.241 NA
HETATM   16  C17 UNL     1      26.582   4.293  49.583  1.00  0.00     0.075 A 
HETATM   17  C18 UNL     1      26.349   3.074  50.251  1.00  0.00     0.072 A 
HETATM   18  C19 UNL     1      25.058   2.954  50.823  1.00  0.00     0.104 A 
HETATM   19  N3  UNL     1      25.047   7.252  48.586  1.00  0.00    -0.340 N 
HETATM   20  H27 UNL     1      25.223   8.003  49.245  1.00  0.00     0.167 HD
ENDROOT
BRANCH  18  21
HETATM   21  O3  UNL     1      24.536   1.976  51.488  1.00  0.00    -0.346 OA
BRANCH  21  22
HETATM   22  C20 UNL     1      24.006   1.006  52.157  1.00  0.00     0.201 C 
BRANCH  22  23
HETATM   23  C21 UNL     1      24.553   0.325  53.366  1.00  0.00     0.193 C 
BRANCH  23  24
HETATM   24  O4  UNL     1      25.892   0.266  53.520  1.00  0.00    -0.394 OA
HETATM   25  C22 UNL     1      26.338   0.103  54.808  1.00  0.00     0.201 C 
ENDBRANCH  23  24
ENDBRANCH  22  23
ENDBRANCH  21  22
ENDBRANCH  18  21
BRANCH   7  26
HETATM   26  C10 UNL     1      20.819   4.266  51.420  1.00  0.00     0.204 C 
BRANCH  26  27
HETATM   27  O1  UNL     1      20.835   3.465  52.523  1.00  0.00    -0.393 OA
HETATM   28  C11 UNL     1      20.038   2.314  52.285  1.00  0.00     0.201 C 
ENDBRANCH  26  27
ENDBRANCH   7  26
BRANCH   1  29
HETATM   29  C2  UNL     1      24.436   7.979  46.549  1.00  0.00     0.019 C 
HETATM   30  C1  UNL     1      23.663   8.416  45.612  1.00  0.00     0.013 C 
ENDBRANCH   1  29
TORSDOF 7
ENDMDL
MODEL 8
REMARK VINA RESULT:      -6.2      7.439     11.258
REMARK  7 active torsions:
REMARK  status: ('A' for Active; 'I' for Inactive)
REMARK    1  A    between atoms: C2_2  and  C3_3 
REMARK    2  A    between atoms: C9_9  and  C10_10 
REMARK    3  A    between atoms: C10_10  and  O1_11 
REMARK    4  A    between atoms: C19_23  and  O3_24 
REMARK    5  A    between atoms: O3_24  and  C20_25 
REMARK    6  A    between atoms: C20_25  and  C21_26 
REMARK    7  A    between atoms: C21_26  and  O4_27 
ROOT
HETATM    1  C3  UNL     1      33.585   8.938  47.728  1.00  0.00     0.033 C 
HETATM    2  C4  UNL     1      33.178  10.003  47.027  1.00  0.00     0.036 C 
HETATM    3  C5  UNL     1      32.057  10.897  46.926  1.00  0.00    -0.055 C 
HETATM    4  C6  UNL     1      32.487  11.742  45.726  1.00  0.00     0.048 C 
HETATM    5  C7  UNL     1      30.847  11.367  47.235  1.00  0.00    -0.047 C 
HETATM    6  C8  UNL     1      30.307  12.572  46.563  1.00  0.00     0.046 C 
HETATM    7  C9  UNL     1      29.603  11.124  48.054  1.00  0.00     0.182 C 
HETATM    8  O2  UNL     1      29.544  10.052  48.904  1.00  0.00    -0.337 OA
HETATM    9  C12 UNL     1      29.408   8.697  48.650  1.00  0.00     0.104 A 
HETATM   10  C13 UNL     1      30.716   8.774  48.828  1.00  0.00     0.057 A 
HETATM   11  C14 UNL     1      31.038   7.418  48.610  1.00  0.00     0.042 A 
HETATM   12  C15 UNL     1      32.326   6.871  48.595  1.00  0.00     0.142 A 
HETATM   13  N1  UNL     1      32.716   5.647  48.367  1.00  0.00    -0.224 NA
HETATM   14  C16 UNL     1      31.778   4.686  48.088  1.00  0.00     0.236 A 
HETATM   15  N2  UNL     1      30.507   5.087  48.064  1.00  0.00    -0.241 NA
HETATM   16  C17 UNL     1      30.175   6.345  48.300  1.00  0.00     0.075 A 
HETATM   17  C18 UNL     1      28.787   6.555  48.173  1.00  0.00     0.072 A 
HETATM   18  C19 UNL     1      28.374   7.896  48.376  1.00  0.00     0.104 A 
HETATM   19  N3  UNL     1      33.201   7.991  48.789  1.00  0.00    -0.340 N 
HETATM   20  H27 UNL     1      33.481   7.975  49.764  1.00  0.00     0.167 HD
ENDROOT
BRANCH  18  21
HETATM   21  O3  UNL     1      27.190   8.413  48.326  1.00  0.00    -0.346 OA
BRANCH  21  22
HETATM   22  C20 UNL     1      26.004   8.924  48.287  1.00  0.00     0.201 C 
BRANCH  22  23
HETATM   23  C21 UNL     1      24.742   8.344  48.827  1.00  0.00     0.193 C 
BRANCH  23  24
HETATM   24  O4  UNL     1      24.431   8.573  50.120  1.00  0.00    -0.394 OA
HETATM   25  C22 UNL     1      23.981   7.486  50.828  1.00  0.00     0.201 C 
ENDBRANCH  23  24
ENDBRANCH  22  23
ENDBRANCH  21  22
ENDBRANCH  18  21
BRANCH   7  26
HETATM   26  C10 UNL     1      29.145  12.277  48.880  1.00  0.00     0.204 C 
BRANCH  26  27
HETATM   27  O1  UNL     1      27.841  12.412  49.253  1.00  0.00    -0.393 OA
HETATM   28  C11 UNL     1      27.127  13.109  48.243  1.00  0.00     0.201 C 
ENDBRANCH  26  27
ENDBRANCH   7  26
BRANCH   1  29
HETATM   29  C2  UNL     1      34.907   8.384  47.379  1.00  0.00     0.019 C 
HETATM   30  C1  UNL     1      35.775   8.064  48.280  1.00  0.00     0.013 C 
ENDBRANCH   1  29
TORSDOF 7
ENDMDL
MODEL 9
REMARK VINA RESULT:      -6.2      4.343      8.194
REMARK  7 active torsions:
REMARK  status: ('A' for Active; 'I' for Inactive)
REMARK    1  A    between atoms: C2_2  and  C3_3 
REMARK    2  A    between atoms: C9_9  and  C10_10 
REMARK    3  A    between atoms: C10_10  and  O1_11 
REMARK    4  A    between atoms: C19_23  and  O3_24 
REMARK    5  A    between atoms: O3_24  and  C20_25 
REMARK    6  A    between atoms: C20_25  and  C21_26 
REMARK    7  A    between atoms: C21_26  and  O4_27 
ROOT
HETATM    1  C3  UNL     1      24.227   3.200  51.819  1.00  0.00     0.033 C 
HETATM    2  C4  UNL     1      25.200   3.373  50.917  1.00  0.00     0.036 C 
HETATM    3  C5  UNL     1      25.820   4.417  50.146  1.00  0.00    -0.055 C 
HETATM    4  C6  UNL     1      26.790   3.593  49.298  1.00  0.00     0.048 C 
HETATM    5  C7  UNL     1      25.988   5.666  49.707  1.00  0.00    -0.047 C 
HETATM    6  C8  UNL     1      27.066   5.993  48.745  1.00  0.00     0.046 C 
HETATM    7  C9  UNL     1      25.435   7.069  49.743  1.00  0.00     0.182 C 
HETATM    8  O2  UNL     1      24.343   7.353  50.519  1.00  0.00    -0.337 OA
HETATM    9  C12 UNL     1      23.004   7.036  50.355  1.00  0.00     0.104 A 
HETATM   10  C13 UNL     1      23.369   6.089  51.203  1.00  0.00     0.057 A 
HETATM   11  C14 UNL     1      22.133   5.421  51.317  1.00  0.00     0.042 A 
HETATM   12  C15 UNL     1      21.894   4.253  52.050  1.00  0.00     0.142 A 
HETATM   13  N1  UNL     1      20.801   3.551  52.181  1.00  0.00    -0.224 NA
HETATM   14  C16 UNL     1      19.665   3.954  51.528  1.00  0.00     0.236 A 
HETATM   15  N2  UNL     1      19.767   5.057  50.785  1.00  0.00    -0.241 NA
HETATM   16  C17 UNL     1      20.905   5.722  50.689  1.00  0.00     0.075 A 
HETATM   17  C18 UNL     1      20.799   6.822  49.814  1.00  0.00     0.072 A 
HETATM   18  C19 UNL     1      22.001   7.553  49.639  1.00  0.00     0.104 A 
HETATM   19  N3  UNL     1      23.174   3.889  52.584  1.00  0.00    -0.340 N 
HETATM   20  H27 UNL     1      23.181   4.191  53.553  1.00  0.00     0.167 HD
ENDROOT
BRANCH  18  21
HETATM   21  O3  UNL     1      22.237   8.595  48.912  1.00  0.00    -0.346 OA
BRANCH  21  22
HETATM   22  C20 UNL     1      22.469   9.631  48.176  1.00  0.00     0.201 C 
BRANCH  22  23
HETATM   23  C21 UNL     1      23.595   9.838  47.220  1.00  0.00     0.193 C 
BRANCH  23  24
HETATM   24  O4  UNL     1      24.459   8.822  47.014  1.00  0.00    -0.394 OA
HETATM   25  C22 UNL     1      24.089   7.909  46.058  1.00  0.00     0.201 C 
ENDBRANCH  23  24
ENDBRANCH  22  23
ENDBRANCH  21  22
ENDBRANCH  18  21
BRANCH   7  26
HETATM   26  C10 UNL     1      26.418   8.136  50.082  1.00  0.00     0.204 C 
BRANCH  26  27
HETATM   27  O1  UNL     1      26.109   9.458  49.947  1.00  0.00    -0.393 OA
HETATM   28  C11 UNL     1      27.039  10.075  49.069  1.00  0.00     0.201 C 
ENDBRANCH  26  27
ENDBRANCH   7  26
BRANCH   1  29
HETATM   29  C2  UNL     1      24.005   1.820  52.291  1.00  0.00     0.019 C 
HETATM   30  C1  UNL     1      23.271   0.983  51.639  1.00  0.00     0.013 C 
ENDBRANCH   1  29
TORSDOF 7
ENDMDL
