MODEL 1
REMARK VINA RESULT:      -7.5      0.000      0.000
REMARK  2 active torsions:
REMARK  status: ('A' for Active; 'I' for Inactive)
REMARK    1  A    between atoms: C4_5  and  C5_6 
REMARK    2  A    between atoms: C14_19  and  C15_20 
ROOT
HETATM    1  C1  UNL     1      23.711  -0.770  53.579  1.00  0.00     0.149 C 
HETATM    2  N1  UNL     1      24.361   0.198  52.731  1.00  0.00    -0.387 N 
HETATM    3  C2  UNL     1      23.795   1.266  51.974  1.00  0.00     0.125 C 
HETATM    4  C3  UNL     1      23.236   2.408  52.810  1.00  0.00     0.059 C 
HETATM    5  C4  UNL     1      22.958   3.512  51.731  1.00  0.00     0.191 C 
HETATM    6  O2  UNL     1      24.076   3.635  50.946  1.00  0.00    -0.337 OA
HETATM    7  C6  UNL     1      24.609   4.462  50.063  1.00  0.00     0.097 A 
HETATM    8  C7  UNL     1      24.154   5.411  49.267  1.00  0.00     0.125 A 
HETATM    9  N2  UNL     1      24.985   6.153  48.403  1.00  0.00    -0.373 N 
HETATM   10  C8  UNL     1      26.381   5.895  48.360  1.00  0.00     0.088 A 
HETATM   11  C9  UNL     1      26.924   4.962  49.124  1.00  0.00     0.033 A 
HETATM   12  C10 UNL     1      26.060   4.180  50.031  1.00  0.00     0.022 A 
HETATM   13  C11 UNL     1      26.757   3.274  50.737  1.00  0.00     0.149 C 
HETATM   14  O3  UNL     1      26.400   2.343  51.680  1.00  0.00    -0.356 OA
HETATM   15  C12 UNL     1      26.549   0.965  51.571  1.00  0.00     0.231 C 
HETATM   16  C13 UNL     1      25.799   0.169  52.579  1.00  0.00     0.031 C 
HETATM   17  C14 UNL     1      26.479  -0.640  53.413  1.00  0.00     0.034 C 
HETATM   18  H11 UNL     1      24.524   6.879  47.817  1.00  0.00     0.164 HD
ENDROOT
BRANCH  17  19
HETATM   19  C15 UNL     1      27.946  -0.835  53.446  1.00  0.00    -0.056 A 
HETATM   20  C16 UNL     1      29.048  -1.629  53.128  1.00  0.00    -0.015 A 
HETATM   21  C17 UNL     1      29.304  -0.353  53.826  1.00  0.00     0.066 A 
ENDBRANCH  17  19
BRANCH   5  22
HETATM   22  C5  UNL     1      22.419   4.729  52.346  1.00  0.00     0.263 C 
HETATM   23  O1  UNL     1      21.590   5.388  51.731  1.00  0.00    -0.304 OA
ENDBRANCH   5  22
TORSDOF 2
ENDMDL
MODEL 2
REMARK VINA RESULT:      -7.4      3.003      5.739
REMARK  2 active torsions:
REMARK  status: ('A' for Active; 'I' for Inactive)
REMARK    1  A    between atoms: C4_5  and  C5_6 
REMARK    2  A    between atoms: C14_19  and  C15_20 
ROOT
HETATM    1  C1  UNL     1      21.537  -1.371  54.905  1.00  0.00     0.149 C 
HETATM    2  N1  UNL     1      22.001  -0.391  53.956  1.00  0.00    -0.387 N 
HETATM    3  C2  UNL     1      23.305   0.162  53.786  1.00  0.00     0.125 C 
HETATM    4  C3  UNL     1      24.341  -0.814  53.247  1.00  0.00     0.059 C 
HETATM    5  C4  UNL     1      25.550   0.127  52.912  1.00  0.00     0.191 C 
HETATM    6  O2  UNL     1      25.076   1.193  52.188  1.00  0.00    -0.337 OA
HETATM    7  C6  UNL     1      25.518   2.177  51.425  1.00  0.00     0.097 A 
HETATM    8  C7  UNL     1      26.670   2.799  51.265  1.00  0.00     0.125 A 
HETATM    9  N2  UNL     1      26.854   3.850  50.343  1.00  0.00    -0.373 N 
HETATM   10  C8  UNL     1      25.771   4.286  49.533  1.00  0.00     0.088 A 
HETATM   11  C9  UNL     1      24.581   3.719  49.627  1.00  0.00     0.033 A 
HETATM   12  C10 UNL     1      24.381   2.618  50.591  1.00  0.00     0.022 A 
HETATM   13  C11 UNL     1      23.121   2.149  50.568  1.00  0.00     0.149 C 
HETATM   14  O3  UNL     1      22.477   1.157  51.265  1.00  0.00    -0.356 OA
HETATM   15  C12 UNL     1      21.386   1.324  52.111  1.00  0.00     0.231 C 
HETATM   16  C13 UNL     1      21.082   0.159  52.984  1.00  0.00     0.031 C 
HETATM   17  C14 UNL     1      19.880  -0.439  52.882  1.00  0.00     0.034 C 
HETATM   18  H11 UNL     1      27.803   4.272  50.296  1.00  0.00     0.164 HD
ENDROOT
BRANCH  17  19
HETATM   19  C15 UNL     1      18.783  -0.057  51.965  1.00  0.00    -0.056 A 
HETATM   20  C16 UNL     1      17.424   0.194  51.774  1.00  0.00    -0.015 A 
HETATM   21  C17 UNL     1      18.315   0.334  50.606  1.00  0.00     0.066 A 
ENDBRANCH  17  19
BRANCH   5  22
HETATM   22  C5  UNL     1      26.672  -0.632  52.353  1.00  0.00     0.263 C 
HETATM   23  O1  UNL     1      27.088  -1.612  52.958  1.00  0.00    -0.304 OA
ENDBRANCH   5  22
TORSDOF 2
ENDMDL
MODEL 3
REMARK VINA RESULT:      -7.4      2.792      5.594
REMARK  2 active torsions:
REMARK  status: ('A' for Active; 'I' for Inactive)
REMARK    1  A    between atoms: C4_5  and  C5_6 
REMARK    2  A    between atoms: C14_19  and  C15_20 
ROOT
HETATM    1  C1  UNL     1      25.992   3.795  50.656  1.00  0.00     0.149 C 
HETATM    2  N1  UNL     1      25.204   2.844  51.398  1.00  0.00    -0.387 N 
HETATM    3  C2  UNL     1      23.794   2.628  51.387  1.00  0.00     0.125 C 
HETATM    4  C3  UNL     1      23.254   2.031  50.096  1.00  0.00     0.059 C 
HETATM    5  C4  UNL     1      21.781   1.660  50.484  1.00  0.00     0.191 C 
HETATM    6  O2  UNL     1      21.810   0.975  51.672  1.00  0.00    -0.337 OA
HETATM    7  C6  UNL     1      21.035   0.210  52.421  1.00  0.00     0.097 A 
HETATM    8  C7  UNL     1      19.736   0.011  52.534  1.00  0.00     0.125 A 
HETATM    9  N2  UNL     1      19.176  -0.901  53.453  1.00  0.00    -0.373 N 
HETATM   10  C8  UNL     1      20.018  -1.658  54.310  1.00  0.00     0.088 A 
HETATM   11  C9  UNL     1      21.332  -1.524  54.265  1.00  0.00     0.033 A 
HETATM   12  C10 UNL     1      21.926  -0.570  53.306  1.00  0.00     0.022 A 
HETATM   13  C11 UNL     1      23.268  -0.547  53.381  1.00  0.00     0.149 C 
HETATM   14  O3  UNL     1      24.234   0.160  52.709  1.00  0.00    -0.356 OA
HETATM   15  C12 UNL     1      25.138   1.053  53.272  1.00  0.00     0.231 C 
HETATM   16  C13 UNL     1      25.856   1.920  52.299  1.00  0.00     0.031 C 
HETATM   17  C14 UNL     1      27.200   1.858  52.236  1.00  0.00     0.034 C 
HETATM   18  H11 UNL     1      18.138  -0.981  53.461  1.00  0.00     0.164 HD
ENDROOT
BRANCH  17  19
HETATM   19  C15 UNL     1      28.080   0.994  53.054  1.00  0.00    -0.056 A 
HETATM   20  C16 UNL     1      29.070   0.889  54.031  1.00  0.00    -0.015 A 
HETATM   21  C17 UNL     1      28.558  -0.363  53.439  1.00  0.00     0.066 A 
ENDBRANCH  17  19
BRANCH   5  22
HETATM   22  C5  UNL     1      21.076   1.043  49.357  1.00  0.00     0.263 C 
HETATM   23  O1  UNL     1      21.646   0.950  48.278  1.00  0.00    -0.304 OA
ENDBRANCH   5  22
TORSDOF 2
ENDMDL
MODEL 4
REMARK VINA RESULT:      -7.3      2.917      6.325
REMARK  2 active torsions:
REMARK  status: ('A' for Active; 'I' for Inactive)
REMARK    1  A    between atoms: C4_5  and  C5_6 
REMARK    2  A    between atoms: C14_19  and  C15_20 
ROOT
HETATM    1  C1  UNL     1      22.109   6.464  50.298  1.00  0.00     0.149 C 
HETATM    2  N1  UNL     1      22.407   5.211  50.945  1.00  0.00    -0.387 N 
HETATM    3  C2  UNL     1      21.586   4.408  51.791  1.00  0.00     0.125 C 
HETATM    4  C3  UNL     1      20.416   3.738  51.087  1.00  0.00     0.059 C 
HETATM    5  C4  UNL     1      19.893   2.737  52.176  1.00  0.00     0.191 C 
HETATM    6  O2  UNL     1      20.968   2.043  52.671  1.00  0.00    -0.337 OA
HETATM    7  C6  UNL     1      21.236   0.963  53.384  1.00  0.00     0.097 A 
HETATM    8  C7  UNL     1      20.572   0.214  54.244  1.00  0.00     0.125 A 
HETATM    9  N2  UNL     1      21.134  -0.918  54.869  1.00  0.00    -0.373 N 
HETATM   10  C8  UNL     1      22.472  -1.300  54.585  1.00  0.00     0.088 A 
HETATM   11  C9  UNL     1      23.211  -0.608  53.736  1.00  0.00     0.033 A 
HETATM   12  C10 UNL     1      22.630   0.580  53.077  1.00  0.00     0.022 A 
HETATM   13  C11 UNL     1      23.503   1.175  52.246  1.00  0.00     0.149 C 
HETATM   14  O3  UNL     1      23.423   2.280  51.435  1.00  0.00    -0.356 OA
HETATM   15  C12 UNL     1      24.197   3.430  51.536  1.00  0.00     0.231 C 
HETATM   16  C13 UNL     1      23.701   4.593  50.753  1.00  0.00     0.031 C 
HETATM   17  C14 UNL     1      24.489   5.125  49.799  1.00  0.00     0.034 C 
HETATM   18  H11 UNL     1      20.524  -1.439  55.531  1.00  0.00     0.164 HD
ENDROOT
BRANCH  17  19
HETATM   19  C15 UNL     1      25.845   4.665  49.423  1.00  0.00    -0.056 A 
HETATM   20  C16 UNL     1      26.754   3.614  49.302  1.00  0.00    -0.015 A 
HETATM   21  C17 UNL     1      27.212   4.962  48.911  1.00  0.00     0.066 A 
ENDBRANCH  17  19
BRANCH   5  22
HETATM   22  C5  UNL     1      18.751   1.965  51.680  1.00  0.00     0.263 C 
HETATM   23  O1  UNL     1      18.917   1.189  50.748  1.00  0.00    -0.304 OA
ENDBRANCH   5  22
TORSDOF 2
ENDMDL
MODEL 5
REMARK VINA RESULT:      -7.3      1.770      4.301
REMARK  2 active torsions:
REMARK  status: ('A' for Active; 'I' for Inactive)
REMARK    1  A    between atoms: C4_5  and  C5_6 
REMARK    2  A    between atoms: C14_19  and  C15_20 
ROOT
HETATM    1  C1  UNL     1      26.589  -0.294  53.119  1.00  0.00     0.149 C 
HETATM    2  N1  UNL     1      25.715   0.820  52.849  1.00  0.00    -0.387 N 
HETATM    3  C2  UNL     1      26.024   2.107  52.315  1.00  0.00     0.125 C 
HETATM    4  C3  UNL     1      26.432   2.103  50.849  1.00  0.00     0.059 C 
HETATM    5  C4  UNL     1      26.428   3.629  50.492  1.00  0.00     0.191 C 
HETATM    6  O2  UNL     1      25.250   4.171  50.940  1.00  0.00    -0.337 OA
HETATM    7  C6  UNL     1      24.514   5.259  50.794  1.00  0.00     0.097 A 
HETATM    8  C7  UNL     1      24.732   6.497  50.393  1.00  0.00     0.125 A 
HETATM    9  N2  UNL     1      23.719   7.477  50.339  1.00  0.00    -0.373 N 
HETATM   10  C8  UNL     1      22.392   7.153  50.728  1.00  0.00     0.088 A 
HETATM   11  C9  UNL     1      22.082   5.937  51.143  1.00  0.00     0.033 A 
HETATM   12  C10 UNL     1      23.138   4.905  51.203  1.00  0.00     0.022 A 
HETATM   13  C11 UNL     1      22.667   3.726  51.645  1.00  0.00     0.149 C 
HETATM   14  O3  UNL     1      23.254   2.505  51.864  1.00  0.00    -0.356 OA
HETATM   15  C12 UNL     1      23.344   1.844  53.083  1.00  0.00     0.231 C 
HETATM   16  C13 UNL     1      24.298   0.703  53.112  1.00  0.00     0.031 C 
HETATM   17  C14 UNL     1      23.837  -0.529  53.401  1.00  0.00     0.034 C 
HETATM   18  H11 UNL     1      23.999   8.422  50.006  1.00  0.00     0.164 HD
ENDROOT
BRANCH  17  19
HETATM   19  C15 UNL     1      22.434  -0.893  53.704  1.00  0.00    -0.056 A 
HETATM   20  C16 UNL     1      21.535  -1.606  54.497  1.00  0.00    -0.015 A 
HETATM   21  C17 UNL     1      20.979  -0.782  53.406  1.00  0.00     0.066 A 
ENDBRANCH  17  19
BRANCH   5  22
HETATM   22  C5  UNL     1      26.788   3.846  49.088  1.00  0.00     0.263 C 
HETATM   23  O1  UNL     1      27.808   4.469  48.825  1.00  0.00    -0.304 OA
ENDBRANCH   5  22
TORSDOF 2
ENDMDL
MODEL 6
REMARK VINA RESULT:      -7.0      1.705      6.925
REMARK  2 active torsions:
REMARK  status: ('A' for Active; 'I' for Inactive)
REMARK    1  A    between atoms: C4_5  and  C5_6 
REMARK    2  A    between atoms: C14_19  and  C15_20 
ROOT
HETATM    1  C1  UNL     1      27.351   4.585  48.917  1.00  0.00     0.149 C 
HETATM    2  N1  UNL     1      26.247   3.994  49.630  1.00  0.00    -0.387 N 
HETATM    3  C2  UNL     1      26.162   2.730  50.285  1.00  0.00     0.125 C 
HETATM    4  C3  UNL     1      27.008   2.611  51.544  1.00  0.00     0.059 C 
HETATM    5  C4  UNL     1      26.500   1.265  52.168  1.00  0.00     0.191 C 
HETATM    6  O2  UNL     1      25.128   1.292  52.186  1.00  0.00    -0.337 OA
HETATM    7  C6  UNL     1      24.109   0.658  52.739  1.00  0.00     0.097 A 
HETATM    8  C7  UNL     1      23.923  -0.528  53.286  1.00  0.00     0.125 A 
HETATM    9  N2  UNL     1      22.682  -0.945  53.811  1.00  0.00    -0.373 N 
HETATM   10  C8  UNL     1      21.560  -0.077  53.766  1.00  0.00     0.088 A 
HETATM   11  C9  UNL     1      21.655   1.130  53.236  1.00  0.00     0.033 A 
HETATM   12  C10 UNL     1      22.951   1.575  52.683  1.00  0.00     0.022 A 
HETATM   13  C11 UNL     1      22.886   2.820  52.181  1.00  0.00     0.149 C 
HETATM   14  O3  UNL     1      23.809   3.638  51.578  1.00  0.00    -0.356 OA
HETATM   15  C12 UNL     1      23.741   4.136  50.282  1.00  0.00     0.231 C 
HETATM   16  C13 UNL     1      25.007   4.725  49.767  1.00  0.00     0.031 C 
HETATM   17  C14 UNL     1      25.023   6.019  49.396  1.00  0.00     0.034 C 
HETATM   18  H11 UNL     1      22.644  -1.901  54.221  1.00  0.00     0.164 HD
ENDROOT
BRANCH  17  19
HETATM   19  C15 UNL     1      23.883   6.962  49.445  1.00  0.00    -0.056 A 
HETATM   20  C16 UNL     1      22.750   7.492  48.828  1.00  0.00    -0.015 A 
HETATM   21  C17 UNL     1      23.110   8.016  50.160  1.00  0.00     0.066 A 
ENDBRANCH  17  19
BRANCH   5  22
HETATM   22  C5  UNL     1      27.193   0.969  53.425  1.00  0.00     0.263 C 
HETATM   23  O1  UNL     1      27.059   1.732  54.373  1.00  0.00    -0.304 OA
ENDBRANCH   5  22
TORSDOF 2
ENDMDL
MODEL 7
REMARK VINA RESULT:      -6.9      1.854      6.010
REMARK  2 active torsions:
REMARK  status: ('A' for Active; 'I' for Inactive)
REMARK    1  A    between atoms: C4_5  and  C5_6 
REMARK    2  A    between atoms: C14_19  and  C15_20 
ROOT
HETATM    1  C1  UNL     1      23.141   6.223  48.594  1.00  0.00     0.149 C 
HETATM    2  N1  UNL     1      23.773   5.217  49.410  1.00  0.00    -0.387 N 
HETATM    3  C2  UNL     1      23.180   4.213  50.234  1.00  0.00     0.125 C 
HETATM    4  C3  UNL     1      22.463   3.110  49.471  1.00  0.00     0.059 C 
HETATM    5  C4  UNL     1      22.180   2.051  50.593  1.00  0.00     0.191 C 
HETATM    6  O2  UNL     1      23.342   1.846  51.292  1.00  0.00    -0.337 OA
HETATM    7  C6  UNL     1      23.871   0.992  52.150  1.00  0.00     0.097 A 
HETATM    8  C7  UNL     1      23.402   0.099  53.000  1.00  0.00     0.125 A 
HETATM    9  N2  UNL     1      24.234  -0.697  53.815  1.00  0.00    -0.373 N 
HETATM   10  C8  UNL     1      25.646  -0.559  53.743  1.00  0.00     0.088 A 
HETATM   11  C9  UNL     1      26.203   0.310  52.919  1.00  0.00     0.033 A 
HETATM   12  C10 UNL     1      25.339   1.149  52.063  1.00  0.00     0.022 A 
HETATM   13  C11 UNL     1      26.052   1.980  51.284  1.00  0.00     0.149 C 
HETATM   14  O3  UNL     1      25.701   2.923  50.350  1.00  0.00    -0.356 OA
HETATM   15  C12 UNL     1      25.973   4.284  50.415  1.00  0.00     0.231 C 
HETATM   16  C13 UNL     1      25.215   5.125  49.450  1.00  0.00     0.031 C 
HETATM   17  C14 UNL     1      25.893   5.859  48.548  1.00  0.00     0.034 C 
HETATM   18  H11 UNL     1      23.761  -1.371  54.451  1.00  0.00     0.164 HD
ENDROOT
BRANCH  17  19
HETATM   19  C15 UNL     1      27.364   5.927  48.397  1.00  0.00    -0.056 A 
HETATM   20  C16 UNL     1      28.587   5.258  48.349  1.00  0.00    -0.015 A 
HETATM   21  C17 UNL     1      28.605   6.725  48.191  1.00  0.00     0.066 A 
ENDBRANCH  17  19
BRANCH   5  22
HETATM   22  C5  UNL     1      21.493   0.876  50.050  1.00  0.00     0.263 C 
HETATM   23  O1  UNL     1      21.369   0.766  48.837  1.00  0.00    -0.304 OA
ENDBRANCH   5  22
TORSDOF 2
ENDMDL
MODEL 8
REMARK VINA RESULT:      -6.9      3.274      6.320
REMARK  2 active torsions:
REMARK  status: ('A' for Active; 'I' for Inactive)
REMARK    1  A    between atoms: C4_5  and  C5_6 
REMARK    2  A    between atoms: C14_19  and  C15_20 
ROOT
HETATM    1  C1  UNL     1      19.879   2.023  48.890  1.00  0.00     0.149 C 
HETATM    2  N1  UNL     1      20.865   1.491  49.797  1.00  0.00    -0.387 N 
HETATM    3  C2  UNL     1      22.276   1.699  49.829  1.00  0.00     0.125 C 
HETATM    4  C3  UNL     1      22.699   3.104  50.232  1.00  0.00     0.059 C 
HETATM    5  C4  UNL     1      24.244   2.944  50.446  1.00  0.00     0.191 C 
HETATM    6  O2  UNL     1      24.456   1.841  51.235  1.00  0.00    -0.337 OA
HETATM    7  C6  UNL     1      25.409   1.281  51.959  1.00  0.00     0.097 A 
HETATM    8  C7  UNL     1      26.726   1.352  52.000  1.00  0.00     0.125 A 
HETATM    9  N2  UNL     1      27.507   0.613  52.912  1.00  0.00    -0.373 N 
HETATM   10  C8  UNL     1      26.882  -0.257  53.845  1.00  0.00     0.088 A 
HETATM   11  C9  UNL     1      25.567  -0.390  53.876  1.00  0.00     0.033 A 
HETATM   12  C10 UNL     1      24.742   0.380  52.923  1.00  0.00     0.022 A 
HETATM   13  C11 UNL     1      23.429   0.136  53.079  1.00  0.00     0.149 C 
HETATM   14  O3  UNL     1      22.307   0.604  52.442  1.00  0.00    -0.356 OA
HETATM   15  C12 UNL     1      21.391  -0.159  51.727  1.00  0.00     0.231 C 
HETATM   16  C13 UNL     1      20.452   0.619  50.875  1.00  0.00     0.031 C 
HETATM   17  C14 UNL     1      19.129   0.521  51.101  1.00  0.00     0.034 C 
HETATM   18  H11 UNL     1      28.538   0.743  52.859  1.00  0.00     0.164 HD
ENDROOT
BRANCH  17  19
HETATM   19  C15 UNL     1      18.474  -0.303  52.142  1.00  0.00    -0.056 A 
HETATM   20  C16 UNL     1      17.301  -0.850  52.662  1.00  0.00    -0.015 A 
HETATM   21  C17 UNL     1      18.563  -1.139  53.371  1.00  0.00     0.066 A 
ENDBRANCH  17  19
BRANCH   5  22
HETATM   22  C5  UNL     1      24.855   4.209  50.863  1.00  0.00     0.263 C 
HETATM   23  O1  UNL     1      25.686   4.737  50.135  1.00  0.00    -0.304 OA
ENDBRANCH   5  22
TORSDOF 2
ENDMDL
MODEL 9
REMARK VINA RESULT:      -6.6      3.262      5.292
REMARK  2 active torsions:
REMARK  status: ('A' for Active; 'I' for Inactive)
REMARK    1  A    between atoms: C4_5  and  C5_6 
REMARK    2  A    between atoms: C14_19  and  C15_20 
ROOT
HETATM    1  C1  UNL     1      26.297   3.658  50.126  1.00  0.00     0.149 C 
HETATM    2  N1  UNL     1      25.152   2.961  50.655  1.00  0.00    -0.387 N 
HETATM    3  C2  UNL     1      23.765   3.166  50.395  1.00  0.00     0.125 C 
HETATM    4  C3  UNL     1      23.320   2.781  48.992  1.00  0.00     0.059 C 
HETATM    5  C4  UNL     1      21.757   2.847  49.103  1.00  0.00     0.191 C 
HETATM    6  O2  UNL     1      21.377   2.156  50.226  1.00  0.00    -0.337 OA
HETATM    7  C6  UNL     1      20.295   1.634  50.777  1.00  0.00     0.097 A 
HETATM    8  C7  UNL     1      18.995   1.820  50.659  1.00  0.00     0.125 A 
HETATM    9  N2  UNL     1      18.044   1.091  51.402  1.00  0.00    -0.373 N 
HETATM   10  C8  UNL     1      18.469   0.103  52.330  1.00  0.00     0.088 A 
HETATM   11  C9  UNL     1      19.753  -0.151  52.513  1.00  0.00     0.033 A 
HETATM   12  C10 UNL     1      20.755   0.609  51.738  1.00  0.00     0.022 A 
HETATM   13  C11 UNL     1      22.012   0.238  52.037  1.00  0.00     0.149 C 
HETATM   14  O3  UNL     1      23.243   0.649  51.588  1.00  0.00    -0.356 OA
HETATM   15  C12 UNL     1      24.246   1.227  52.357  1.00  0.00     0.231 C 
HETATM   16  C13 UNL     1      25.343   1.868  51.582  1.00  0.00     0.031 C 
HETATM   17  C14 UNL     1      26.603   1.419  51.739  1.00  0.00     0.034 C 
HETATM   18  H11 UNL     1      17.042   1.316  51.232  1.00  0.00     0.164 HD
ENDROOT
BRANCH  17  19
HETATM   19  C15 UNL     1      27.040   0.318  52.625  1.00  0.00    -0.056 A 
HETATM   20  C16 UNL     1      27.734  -0.087  53.766  1.00  0.00    -0.015 A 
HETATM   21  C17 UNL     1      27.071  -1.133  52.962  1.00  0.00     0.066 A 
ENDBRANCH  17  19
BRANCH   5  22
HETATM   22  C5  UNL     1      21.121   2.487  47.832  1.00  0.00     0.263 C 
HETATM   23  O1  UNL     1      20.255   3.220  47.372  1.00  0.00    -0.304 OA
ENDBRANCH   5  22
TORSDOF 2
ENDMDL
