MODEL 1
REMARK VINA RESULT:      -8.6      0.000      0.000
REMARK  4 active torsions:
REMARK  status: ('A' for Active; 'I' for Inactive)
REMARK    1  A    between atoms: C2_2  and  O1_3 
REMARK    2  A    between atoms: O1_3  and  C3_4 
REMARK    3  A    between atoms: C7_10  and  N3_11 
REMARK    4  A    between atoms: N3_11  and  C8_12 
ROOT
HETATM    1  C3  UNL     1      20.463   0.188  53.133  1.00  0.00     0.107 A 
HETATM    2  C4  UNL     1      20.898  -0.579  54.176  1.00  0.00     0.072 A 
HETATM    3  C5  UNL     1      22.251  -0.685  54.392  1.00  0.00     0.077 A 
HETATM    4  N1  UNL     1      22.710  -1.447  55.427  1.00  0.00    -0.241 NA
HETATM    5  C6  UNL     1      24.040  -1.554  55.637  1.00  0.00     0.236 A 
HETATM    6  N2  UNL     1      24.940  -0.935  54.866  1.00  0.00    -0.223 NA
HETATM    7  C7  UNL     1      24.578  -0.183  53.849  1.00  0.00     0.144 A 
HETATM    8  C14 UNL     1      23.225  -0.074  53.632  1.00  0.00     0.075 A 
HETATM    9  C15 UNL     1      22.745   0.689  52.592  1.00  0.00     0.121 A 
HETATM   10  C16 UNL     1      21.393   0.843  52.313  1.00  0.00     0.136 A 
HETATM   11  O2  UNL     1      20.960   1.636  51.233  1.00  0.00    -0.344 OA
HETATM   12  C17 UNL     1      21.796   1.614  50.084  1.00  0.00     0.202 C 
HETATM   13  C18 UNL     1      23.241   1.769  50.417  1.00  0.00     0.202 C 
HETATM   14  O3  UNL     1      23.559   1.376  51.727  1.00  0.00    -0.345 OA
ENDROOT
BRANCH   7  15
HETATM   15  N3  UNL     1      25.545   0.441  53.060  1.00  0.00    -0.340 N 
HETATM   16  H8  UNL     1      25.620   1.082  52.250  1.00  0.00     0.167 HD
BRANCH  15  17
HETATM   17  C8  UNL     1      26.939   0.246  53.320  1.00  0.00     0.036 A 
HETATM   18  C9  UNL     1      27.723  -0.874  53.023  1.00  0.00     0.029 A 
HETATM   19  C10 UNL     1      29.066  -1.012  53.275  1.00  0.00     0.005 A 
HETATM   20  C11 UNL     1      29.708   0.045  53.876  1.00  0.00     0.042 A 
HETATM   21  C12 UNL     1      29.013   1.190  54.203  1.00  0.00     0.118 A 
HETATM   22  F1  UNL     1      29.770   2.132  54.781  1.00  0.00    -0.206 F 
HETATM   23  C13 UNL     1      27.665   1.267  53.924  1.00  0.00     0.071 A 
ENDBRANCH  15  17
ENDBRANCH   7  15
BRANCH   1  24
HETATM   24  O1  UNL     1      19.121   0.329  52.874  1.00  0.00    -0.348 OA
BRANCH  24  25
HETATM   25  C2  UNL     1      18.349  -0.629  52.203  1.00  0.00     0.171 C 
HETATM   26  C1  UNL     1      17.435  -1.431  53.073  1.00  0.00     0.034 C 
ENDBRANCH  24  25
ENDBRANCH   1  24
TORSDOF 4
ENDMDL
MODEL 2
REMARK VINA RESULT:      -8.6      1.004      1.373
REMARK  4 active torsions:
REMARK  status: ('A' for Active; 'I' for Inactive)
REMARK    1  A    between atoms: C2_2  and  O1_3 
REMARK    2  A    between atoms: O1_3  and  C3_4 
REMARK    3  A    between atoms: C7_10  and  N3_11 
REMARK    4  A    between atoms: N3_11  and  C8_12 
ROOT
HETATM    1  C3  UNL     1      20.483   0.123  53.231  1.00  0.00     0.107 A 
HETATM    2  C4  UNL     1      20.935  -0.637  54.273  1.00  0.00     0.072 A 
HETATM    3  C5  UNL     1      22.291  -0.733  54.472  1.00  0.00     0.077 A 
HETATM    4  N1  UNL     1      22.768  -1.487  55.506  1.00  0.00    -0.241 NA
HETATM    5  C6  UNL     1      24.101  -1.585  55.700  1.00  0.00     0.236 A 
HETATM    6  N2  UNL     1      24.988  -0.966  54.914  1.00  0.00    -0.223 NA
HETATM    7  C7  UNL     1      24.609  -0.221  53.898  1.00  0.00     0.144 A 
HETATM    8  C14 UNL     1      23.253  -0.121  53.697  1.00  0.00     0.075 A 
HETATM    9  C15 UNL     1      22.755   0.634  52.659  1.00  0.00     0.121 A 
HETATM   10  C16 UNL     1      21.399   0.779  52.396  1.00  0.00     0.136 A 
HETATM   11  O2  UNL     1      20.949   1.563  51.317  1.00  0.00    -0.344 OA
HETATM   12  C17 UNL     1      21.770   1.540  50.158  1.00  0.00     0.202 C 
HETATM   13  C18 UNL     1      23.218   1.705  50.473  1.00  0.00     0.202 C 
HETATM   14  O3  UNL     1      23.554   1.320  51.781  1.00  0.00    -0.345 OA
ENDROOT
BRANCH   7  15
HETATM   15  N3  UNL     1      25.563   0.405  53.094  1.00  0.00    -0.340 N 
HETATM   16  H8  UNL     1      25.624   1.043  52.281  1.00  0.00     0.167 HD
BRANCH  15  17
HETATM   17  C8  UNL     1      26.960   0.215  53.334  1.00  0.00     0.036 A 
HETATM   18  C9  UNL     1      27.872   1.124  53.884  1.00  0.00     0.029 A 
HETATM   19  C10 UNL     1      29.206   0.893  54.114  1.00  0.00     0.005 A 
HETATM   20  C11 UNL     1      29.701  -0.345  53.777  1.00  0.00     0.042 A 
HETATM   21  C12 UNL     1      28.872  -1.303  53.231  1.00  0.00     0.118 A 
HETATM   22  F1  UNL     1      29.495  -2.457  52.955  1.00  0.00    -0.206 F 
HETATM   23  C13 UNL     1      27.542  -1.010  53.024  1.00  0.00     0.071 A 
ENDBRANCH  15  17
ENDBRANCH   7  15
BRANCH   1  24
HETATM   24  O1  UNL     1      19.137   0.255  52.988  1.00  0.00    -0.348 OA
BRANCH  24  25
HETATM   25  C2  UNL     1      18.374  -0.685  52.282  1.00  0.00     0.171 C 
HETATM   26  C1  UNL     1      17.556  -1.605  53.131  1.00  0.00     0.034 C 
ENDBRANCH  24  25
ENDBRANCH   1  24
TORSDOF 4
ENDMDL
MODEL 3
REMARK VINA RESULT:      -8.6      2.070      3.568
REMARK  4 active torsions:
REMARK  status: ('A' for Active; 'I' for Inactive)
REMARK    1  A    between atoms: C2_2  and  O1_3 
REMARK    2  A    between atoms: O1_3  and  C3_4 
REMARK    3  A    between atoms: C7_10  and  N3_11 
REMARK    4  A    between atoms: N3_11  and  C8_12 
ROOT
HETATM    1  C3  UNL     1      21.534   0.433  51.608  1.00  0.00     0.107 A 
HETATM    2  C4  UNL     1      22.206   1.388  50.898  1.00  0.00     0.072 A 
HETATM    3  C5  UNL     1      23.480   1.720  51.291  1.00  0.00     0.077 A 
HETATM    4  N1  UNL     1      24.171   2.672  50.598  1.00  0.00    -0.241 NA
HETATM    5  C6  UNL     1      25.422   3.001  50.986  1.00  0.00     0.236 A 
HETATM    6  N2  UNL     1      26.024   2.426  52.033  1.00  0.00    -0.223 NA
HETATM    7  C7  UNL     1      25.424   1.501  52.751  1.00  0.00     0.144 A 
HETATM    8  C14 UNL     1      24.151   1.165  52.359  1.00  0.00     0.075 A 
HETATM    9  C15 UNL     1      23.439   0.208  53.047  1.00  0.00     0.121 A 
HETATM   10  C16 UNL     1      22.149  -0.180  52.710  1.00  0.00     0.136 A 
HETATM   11  O2  UNL     1      21.469  -1.164  53.452  1.00  0.00    -0.344 OA
HETATM   12  C17 UNL     1      21.736  -1.171  54.848  1.00  0.00     0.202 C 
HETATM   13  C18 UNL     1      23.190  -1.064  55.159  1.00  0.00     0.202 C 
HETATM   14  O3  UNL     1      23.938  -0.459  54.137  1.00  0.00    -0.345 OA
ENDROOT
BRANCH   7  15
HETATM   15  N3  UNL     1      26.080   0.927  53.842  1.00  0.00    -0.340 N 
HETATM   16  H8  UNL     1      25.965   0.801  54.863  1.00  0.00     0.167 HD
BRANCH  15  17
HETATM   17  C8  UNL     1      27.327   0.247  53.671  1.00  0.00     0.036 A 
HETATM   18  C9  UNL     1      28.619   0.754  53.855  1.00  0.00     0.029 A 
HETATM   19  C10 UNL     1      29.791   0.058  53.696  1.00  0.00     0.005 A 
HETATM   20  C11 UNL     1      29.698  -1.262  53.322  1.00  0.00     0.042 A 
HETATM   21  C12 UNL     1      28.464  -1.845  53.120  1.00  0.00     0.118 A 
HETATM   22  F1  UNL     1      28.531  -3.133  52.760  1.00  0.00    -0.206 F 
HETATM   23  C13 UNL     1      27.323  -1.092  53.295  1.00  0.00     0.071 A 
ENDBRANCH  15  17
ENDBRANCH   7  15
BRANCH   1  24
HETATM   24  O1  UNL     1      20.258   0.062  51.257  1.00  0.00    -0.348 OA
BRANCH  24  25
HETATM   25  C2  UNL     1      19.164   0.938  51.245  1.00  0.00     0.171 C 
HETATM   26  C1  UNL     1      18.055   0.555  50.318  1.00  0.00     0.034 C 
ENDBRANCH  24  25
ENDBRANCH   1  24
TORSDOF 4
ENDMDL
MODEL 4
REMARK VINA RESULT:      -8.2      2.287      3.424
REMARK  4 active torsions:
REMARK  status: ('A' for Active; 'I' for Inactive)
REMARK    1  A    between atoms: C2_2  and  O1_3 
REMARK    2  A    between atoms: O1_3  and  C3_4 
REMARK    3  A    between atoms: C7_10  and  N3_11 
REMARK    4  A    between atoms: N3_11  and  C8_12 
ROOT
HETATM    1  C3  UNL     1      22.391   2.478  50.441  1.00  0.00     0.107 A 
HETATM    2  C4  UNL     1      21.792   1.497  51.180  1.00  0.00     0.072 A 
HETATM    3  C5  UNL     1      22.547   0.826  52.112  1.00  0.00     0.077 A 
HETATM    4  N1  UNL     1      21.972  -0.160  52.861  1.00  0.00    -0.241 NA
HETATM    5  C6  UNL     1      22.715  -0.821  53.775  1.00  0.00     0.236 A 
HETATM    6  N2  UNL     1      24.008  -0.549  53.982  1.00  0.00    -0.223 NA
HETATM    7  C7  UNL     1      24.635   0.386  53.300  1.00  0.00     0.144 A 
HETATM    8  C14 UNL     1      23.881   1.060  52.369  1.00  0.00     0.075 A 
HETATM    9  C15 UNL     1      24.445   2.055  51.603  1.00  0.00     0.121 A 
HETATM   10  C16 UNL     1      23.746   2.776  50.644  1.00  0.00     0.136 A 
HETATM   11  O2  UNL     1      24.377   3.782  49.889  1.00  0.00    -0.344 OA
HETATM   12  C17 UNL     1      25.738   3.539  49.561  1.00  0.00     0.202 C 
HETATM   13  C18 UNL     1      26.536   3.054  50.724  1.00  0.00     0.202 C 
HETATM   14  O3  UNL     1      25.759   2.434  51.715  1.00  0.00    -0.345 OA
ENDROOT
BRANCH   7  15
HETATM   15  N3  UNL     1      25.987   0.638  53.536  1.00  0.00    -0.340 N 
HETATM   16  H8  UNL     1      26.613   1.406  53.835  1.00  0.00     0.167 HD
BRANCH  15  17
HETATM   17  C8  UNL     1      26.964  -0.393  53.365  1.00  0.00     0.036 A 
HETATM   18  C9  UNL     1      26.789  -1.663  52.801  1.00  0.00     0.029 A 
HETATM   19  C10 UNL     1      27.763  -2.617  52.640  1.00  0.00     0.005 A 
HETATM   20  C11 UNL     1      29.032  -2.306  53.069  1.00  0.00     0.042 A 
HETATM   21  C12 UNL     1      29.295  -1.077  53.636  1.00  0.00     0.118 A 
HETATM   22  F1  UNL     1      30.573  -0.918  54.005  1.00  0.00    -0.206 F 
HETATM   23  C13 UNL     1      28.274  -0.161  53.771  1.00  0.00     0.071 A 
ENDBRANCH  15  17
ENDBRANCH   7  15
BRANCH   1  24
HETATM   24  O1  UNL     1      21.681   3.180  49.497  1.00  0.00    -0.348 OA
BRANCH  24  25
HETATM   25  C2  UNL     1      21.332   2.669  48.240  1.00  0.00     0.171 C 
HETATM   26  C1  UNL     1      22.428   1.950  47.521  1.00  0.00     0.034 C 
ENDBRANCH  24  25
ENDBRANCH   1  24
TORSDOF 4
ENDMDL
MODEL 5
REMARK VINA RESULT:      -8.1      3.726      5.109
REMARK  4 active torsions:
REMARK  status: ('A' for Active; 'I' for Inactive)
REMARK    1  A    between atoms: C2_2  and  O1_3 
REMARK    2  A    between atoms: O1_3  and  C3_4 
REMARK    3  A    between atoms: C7_10  and  N3_11 
REMARK    4  A    between atoms: N3_11  and  C8_12 
ROOT
HETATM    1  C3  UNL     1      22.653   1.038  52.708  1.00  0.00     0.107 A 
HETATM    2  C4  UNL     1      23.849   1.025  53.369  1.00  0.00     0.072 A 
HETATM    3  C5  UNL     1      24.954   1.537  52.733  1.00  0.00     0.077 A 
HETATM    4  N1  UNL     1      26.161   1.533  53.372  1.00  0.00    -0.241 NA
HETATM    5  C6  UNL     1      27.248   2.033  52.746  1.00  0.00     0.236 A 
HETATM    6  N2  UNL     1      27.194   2.542  51.511  1.00  0.00    -0.223 NA
HETATM    7  C7  UNL     1      26.069   2.582  50.829  1.00  0.00     0.144 A 
HETATM    8  C14 UNL     1      24.962   2.072  51.463  1.00  0.00     0.075 A 
HETATM    9  C15 UNL     1      23.738   2.067  50.832  1.00  0.00     0.121 A 
HETATM   10  C16 UNL     1      22.579   1.567  51.411  1.00  0.00     0.136 A 
HETATM   11  O2  UNL     1      21.354   1.586  50.716  1.00  0.00    -0.344 OA
HETATM   12  C17 UNL     1      21.443   1.382  49.313  1.00  0.00     0.202 C 
HETATM   13  C18 UNL     1      22.521   2.193  48.677  1.00  0.00     0.202 C 
HETATM   14  O3  UNL     1      23.545   2.558  49.566  1.00  0.00    -0.345 OA
ENDROOT
BRANCH   7  15
HETATM   15  N3  UNL     1      26.052   3.112  49.538  1.00  0.00    -0.340 N 
HETATM   16  H8  UNL     1      25.804   2.842  48.569  1.00  0.00     0.167 HD
BRANCH  15  17
HETATM   17  C8  UNL     1      26.476   4.457  49.294  1.00  0.00     0.036 A 
HETATM   18  C9  UNL     1      27.610   4.891  48.597  1.00  0.00     0.029 A 
HETATM   19  C10 UNL     1      27.971   6.196  48.371  1.00  0.00     0.005 A 
HETATM   20  C11 UNL     1      27.146   7.176  48.872  1.00  0.00     0.042 A 
HETATM   21  C12 UNL     1      26.006   6.839  49.570  1.00  0.00     0.118 A 
HETATM   22  F1  UNL     1      25.304   7.898  49.996  1.00  0.00    -0.206 F 
HETATM   23  C13 UNL     1      25.698   5.509  49.765  1.00  0.00     0.071 A 
ENDBRANCH  15  17
ENDBRANCH   7  15
BRANCH   1  24
HETATM   24  O1  UNL     1      21.517   0.540  53.298  1.00  0.00    -0.348 OA
BRANCH  24  25
HETATM   25  C2  UNL     1      21.511  -0.183  54.498  1.00  0.00     0.171 C 
HETATM   26  C1  UNL     1      21.515  -1.670  54.344  1.00  0.00     0.034 C 
ENDBRANCH  24  25
ENDBRANCH   1  24
TORSDOF 4
ENDMDL
MODEL 6
REMARK VINA RESULT:      -7.9      3.406      7.163
REMARK  4 active torsions:
REMARK  status: ('A' for Active; 'I' for Inactive)
REMARK    1  A    between atoms: C2_2  and  O1_3 
REMARK    2  A    between atoms: O1_3  and  C3_4 
REMARK    3  A    between atoms: C7_10  and  N3_11 
REMARK    4  A    between atoms: N3_11  and  C8_12 
ROOT
HETATM    1  C3  UNL     1      26.363  -0.233  52.941  1.00  0.00     0.107 A 
HETATM    2  C4  UNL     1      25.532  -0.853  53.831  1.00  0.00     0.072 A 
HETATM    3  C5  UNL     1      24.214  -0.467  53.873  1.00  0.00     0.077 A 
HETATM    4  N1  UNL     1      23.364  -1.070  54.755  1.00  0.00    -0.241 NA
HETATM    5  C6  UNL     1      22.069  -0.689  54.799  1.00  0.00     0.236 A 
HETATM    6  N2  UNL     1      21.574   0.266  54.004  1.00  0.00    -0.223 NA
HETATM    7  C7  UNL     1      22.329   0.894  53.128  1.00  0.00     0.144 A 
HETATM    8  C14 UNL     1      23.647   0.509  53.082  1.00  0.00     0.075 A 
HETATM    9  C15 UNL     1      24.518   1.107  52.200  1.00  0.00     0.121 A 
HETATM   10  C16 UNL     1      25.862   0.771  52.100  1.00  0.00     0.136 A 
HETATM   11  O2  UNL     1      26.706   1.419  51.179  1.00  0.00    -0.344 OA
HETATM   12  C17 UNL     1      26.430   2.795  50.959  1.00  0.00     0.202 C 
HETATM   13  C18 UNL     1      24.978   3.069  50.757  1.00  0.00     0.202 C 
HETATM   14  O3  UNL     1      24.141   2.098  51.329  1.00  0.00    -0.345 OA
ENDROOT
BRANCH   7  15
HETATM   15  N3  UNL     1      21.780   1.891  52.319  1.00  0.00    -0.340 N 
HETATM   16  H8  UNL     1      22.023   2.816  51.921  1.00  0.00     0.167 HD
BRANCH  15  17
HETATM   17  C8  UNL     1      20.466   1.749  51.773  1.00  0.00     0.036 A 
HETATM   18  C9  UNL     1      19.959   0.692  51.008  1.00  0.00     0.029 A 
HETATM   19  C10 UNL     1      18.680   0.589  50.518  1.00  0.00     0.005 A 
HETATM   20  C11 UNL     1      17.810   1.616  50.799  1.00  0.00     0.042 A 
HETATM   21  C12 UNL     1      18.224   2.697  51.548  1.00  0.00     0.118 A 
HETATM   22  F1  UNL     1      17.268   3.616  51.740  1.00  0.00    -0.206 F 
HETATM   23  C13 UNL     1      19.521   2.742  52.012  1.00  0.00     0.071 A 
ENDBRANCH  15  17
ENDBRANCH   7  15
BRANCH   1  24
HETATM   24  O1  UNL     1      27.689  -0.582  52.856  1.00  0.00    -0.348 OA
BRANCH  24  25
HETATM   25  C2  UNL     1      28.672  -0.145  53.755  1.00  0.00     0.171 C 
HETATM   26  C1  UNL     1      29.955  -0.912  53.715  1.00  0.00     0.034 C 
ENDBRANCH  24  25
ENDBRANCH   1  24
TORSDOF 4
ENDMDL
MODEL 7
REMARK VINA RESULT:      -7.7      3.751      7.514
REMARK  4 active torsions:
REMARK  status: ('A' for Active; 'I' for Inactive)
REMARK    1  A    between atoms: C2_2  and  O1_3 
REMARK    2  A    between atoms: O1_3  and  C3_4 
REMARK    3  A    between atoms: C7_10  and  N3_11 
REMARK    4  A    between atoms: N3_11  and  C8_12 
ROOT
HETATM    1  C3  UNL     1      26.691   0.395  53.261  1.00  0.00     0.107 A 
HETATM    2  C4  UNL     1      27.270   1.246  52.361  1.00  0.00     0.072 A 
HETATM    3  C5  UNL     1      26.469   2.147  51.703  1.00  0.00     0.077 A 
HETATM    4  N1  UNL     1      27.024   3.007  50.799  1.00  0.00    -0.241 NA
HETATM    5  C6  UNL     1      26.237   3.891  50.150  1.00  0.00     0.236 A 
HETATM    6  N2  UNL     1      24.918   3.965  50.358  1.00  0.00    -0.223 NA
HETATM    7  C7  UNL     1      24.308   3.172  51.213  1.00  0.00     0.144 A 
HETATM    8  C14 UNL     1      25.107   2.270  51.874  1.00  0.00     0.075 A 
HETATM    9  C15 UNL     1      24.564   1.396  52.788  1.00  0.00     0.121 A 
HETATM   10  C16 UNL     1      25.309   0.458  53.490  1.00  0.00     0.136 A 
HETATM   11  O2  UNL     1      24.697  -0.413  54.412  1.00  0.00    -0.344 OA
HETATM   12  C17 UNL     1      23.387  -0.844  54.071  1.00  0.00     0.202 C 
HETATM   13  C18 UNL     1      22.513   0.273  53.609  1.00  0.00     0.202 C 
HETATM   14  O3  UNL     1      23.227   1.366  53.095  1.00  0.00    -0.345 OA
ENDROOT
BRANCH   7  15
HETATM   15  N3  UNL     1      22.928   3.271  51.398  1.00  0.00    -0.340 N 
HETATM   16  H8  UNL     1      22.240   3.534  52.126  1.00  0.00     0.167 HD
BRANCH  15  17
HETATM   17  C8  UNL     1      22.022   2.949  50.339  1.00  0.00     0.036 A 
HETATM   18  C9  UNL     1      21.966   1.775  49.579  1.00  0.00     0.029 A 
HETATM   19  C10 UNL     1      21.065   1.500  48.580  1.00  0.00     0.005 A 
HETATM   20  C11 UNL     1      20.126   2.462  48.292  1.00  0.00     0.042 A 
HETATM   21  C12 UNL     1      20.107   3.650  48.993  1.00  0.00     0.118 A 
HETATM   22  F1  UNL     1      19.138   4.489  48.602  1.00  0.00    -0.206 F 
HETATM   23  C13 UNL     1      21.039   3.867  49.985  1.00  0.00     0.071 A 
ENDBRANCH  15  17
ENDBRANCH   7  15
BRANCH   1  24
HETATM   24  O1  UNL     1      27.446  -0.525  53.947  1.00  0.00    -0.348 OA
BRANCH  24  25
HETATM   25  C2  UNL     1      28.766  -0.300  54.362  1.00  0.00     0.171 C 
HETATM   26  C1  UNL     1      29.805  -1.082  53.625  1.00  0.00     0.034 C 
ENDBRANCH  24  25
ENDBRANCH   1  24
TORSDOF 4
ENDMDL
MODEL 8
REMARK VINA RESULT:      -7.7      2.407      4.465
REMARK  4 active torsions:
REMARK  status: ('A' for Active; 'I' for Inactive)
REMARK    1  A    between atoms: C2_2  and  O1_3 
REMARK    2  A    between atoms: O1_3  and  C3_4 
REMARK    3  A    between atoms: C7_10  and  N3_11 
REMARK    4  A    between atoms: N3_11  and  C8_12 
ROOT
HETATM    1  C3  UNL     1      22.131   2.741  49.715  1.00  0.00     0.107 A 
HETATM    2  C4  UNL     1      23.251   3.349  49.222  1.00  0.00     0.072 A 
HETATM    3  C5  UNL     1      24.445   3.149  49.872  1.00  0.00     0.077 A 
HETATM    4  N1  UNL     1      25.578   3.747  49.400  1.00  0.00    -0.241 NA
HETATM    5  C6  UNL     1      26.750   3.552  50.041  1.00  0.00     0.236 A 
HETATM    6  N2  UNL     1      26.854   2.787  51.132  1.00  0.00    -0.223 NA
HETATM    7  C7  UNL     1      25.809   2.177  51.649  1.00  0.00     0.144 A 
HETATM    8  C14 UNL     1      24.614   2.374  51.000  1.00  0.00     0.075 A 
HETATM    9  C15 UNL     1      23.462   1.779  51.463  1.00  0.00     0.121 A 
HETATM   10  C16 UNL     1      22.221   1.936  50.860  1.00  0.00     0.136 A 
HETATM   11  O2  UNL     1      21.075   1.304  51.380  1.00  0.00    -0.344 OA
HETATM   12  C17 UNL     1      21.027   1.193  52.796  1.00  0.00     0.202 C 
HETATM   13  C18 UNL     1      22.312   0.714  53.382  1.00  0.00     0.202 C 
HETATM   14  O3  UNL     1      23.428   0.971  52.571  1.00  0.00    -0.345 OA
ENDROOT
BRANCH   7  15
HETATM   15  N3  UNL     1      25.952   1.392  52.795  1.00  0.00    -0.340 N 
HETATM   16  H8  UNL     1      25.442   1.151  53.663  1.00  0.00     0.167 HD
BRANCH  15  17
HETATM   17  C8  UNL     1      27.121   0.591  52.991  1.00  0.00     0.036 A 
HETATM   18  C9  UNL     1      28.391   1.006  53.409  1.00  0.00     0.029 A 
HETATM   19  C10 UNL     1      29.483   0.198  53.603  1.00  0.00     0.005 A 
HETATM   20  C11 UNL     1      29.325  -1.147  53.365  1.00  0.00     0.042 A 
HETATM   21  C12 UNL     1      28.107  -1.644  52.951  1.00  0.00     0.118 A 
HETATM   22  F1  UNL     1      28.105  -2.971  52.761  1.00  0.00    -0.206 F 
HETATM   23  C13 UNL     1      27.048  -0.781  52.775  1.00  0.00     0.071 A 
ENDBRANCH  15  17
ENDBRANCH   7  15
BRANCH   1  24
HETATM   24  O1  UNL     1      20.913   2.906  49.102  1.00  0.00    -0.348 OA
BRANCH  24  25
HETATM   25  C2  UNL     1      20.186   4.105  49.116  1.00  0.00     0.171 C 
HETATM   26  C1  UNL     1      20.126   4.795  50.442  1.00  0.00     0.034 C 
ENDBRANCH  24  25
ENDBRANCH   1  24
TORSDOF 4
ENDMDL
MODEL 9
REMARK VINA RESULT:      -7.3      3.950      6.989
REMARK  4 active torsions:
REMARK  status: ('A' for Active; 'I' for Inactive)
REMARK    1  A    between atoms: C2_2  and  O1_3 
REMARK    2  A    between atoms: O1_3  and  C3_4 
REMARK    3  A    between atoms: C7_10  and  N3_11 
REMARK    4  A    between atoms: N3_11  and  C8_12 
ROOT
HETATM    1  C3  UNL     1      25.656   4.481  49.581  1.00  0.00     0.107 A 
HETATM    2  C4  UNL     1      26.457   3.435  49.946  1.00  0.00     0.072 A 
HETATM    3  C5  UNL     1      25.993   2.553  50.891  1.00  0.00     0.077 A 
HETATM    4  N1  UNL     1      26.775   1.501  51.273  1.00  0.00    -0.241 NA
HETATM    5  C6  UNL     1      26.320   0.636  52.204  1.00  0.00     0.236 A 
HETATM    6  N2  UNL     1      25.118   0.764  52.777  1.00  0.00    -0.223 NA
HETATM    7  C7  UNL     1      24.305   1.750  52.463  1.00  0.00     0.144 A 
HETATM    8  C14 UNL     1      24.767   2.633  51.516  1.00  0.00     0.075 A 
HETATM    9  C15 UNL     1      23.991   3.700  51.121  1.00  0.00     0.121 A 
HETATM   10  C16 UNL     1      24.393   4.631  50.172  1.00  0.00     0.136 A 
HETATM   11  O2  UNL     1      23.557   5.704  49.809  1.00  0.00    -0.344 OA
HETATM   12  C17 UNL     1      22.760   6.241  50.855  1.00  0.00     0.202 C 
HETATM   13  C18 UNL     1      22.088   5.189  51.669  1.00  0.00     0.202 C 
HETATM   14  O3  UNL     1      22.741   3.946  51.627  1.00  0.00    -0.345 OA
ENDROOT
BRANCH   7  15
HETATM   15  N3  UNL     1      23.061   1.858  53.087  1.00  0.00    -0.340 N 
HETATM   16  H8  UNL     1      22.396   2.579  53.418  1.00  0.00     0.167 HD
BRANCH  15  17
HETATM   17  C8  UNL     1      22.322   0.688  53.451  1.00  0.00     0.036 A 
HETATM   18  C9  UNL     1      22.764  -0.416  54.190  1.00  0.00     0.029 A 
HETATM   19  C10 UNL     1      22.012  -1.513  54.532  1.00  0.00     0.005 A 
HETATM   20  C11 UNL     1      20.702  -1.538  54.115  1.00  0.00     0.042 A 
HETATM   21  C12 UNL     1      20.183  -0.491  53.383  1.00  0.00     0.118 A 
HETATM   22  F1  UNL     1      18.896  -0.656  53.048  1.00  0.00    -0.206 F 
HETATM   23  C13 UNL     1      20.989   0.582  53.070  1.00  0.00     0.071 A 
ENDBRANCH  15  17
ENDBRANCH   7  15
BRANCH   1  24
HETATM   24  O1  UNL     1      26.071   5.391  48.639  1.00  0.00    -0.348 OA
BRANCH  24  25
HETATM   25  C2  UNL     1      27.135   6.283  48.829  1.00  0.00     0.171 C 
HETATM   26  C1  UNL     1      26.742   7.653  49.282  1.00  0.00     0.034 C 
ENDBRANCH  24  25
ENDBRANCH   1  24
TORSDOF 4
ENDMDL
