MODEL 1
REMARK VINA RESULT:      -8.1      0.000      0.000
REMARK  6 active torsions:
REMARK  status: ('A' for Active; 'I' for Inactive)
REMARK    1  A    between atoms: N1_2  and  C2_3 
REMARK    2  A    between atoms: C9_10  and  O1_11 
REMARK    3  A    between atoms: C12_14  and  N2_15 
REMARK    4  A    between atoms: N2_15  and  C13_16 
REMARK    5  A    between atoms: C13_16  and  N3_17 
REMARK    6  A    between atoms: N3_17  and  C14_18 
ROOT
HETATM    1  C2  UNL     1      26.380   0.128  53.008  1.00  0.00     0.133 A 
HETATM    2  C3  UNL     1      25.189  -0.223  53.489  1.00  0.00     0.100 A 
HETATM    3  C4  UNL     1      24.219  -0.493  53.861  1.00  0.00    -0.165 C 
HETATM    4  C5  UNL     1      23.014  -0.809  54.302  1.00  0.00     0.081 C 
HETATM    5  C6  UNL     1      21.725  -1.117  54.793  1.00  0.00     0.012 C 
HETATM    6  C7  UNL     1      21.037   0.214  54.280  1.00  0.00     0.007 C 
HETATM    7  C8  UNL     1      21.328   0.709  52.933  1.00  0.00     0.064 C 
HETATM    8  C9  UNL     1      22.573   1.099  52.312  1.00  0.00     0.044 C 
HETATM    9  C11 UNL     1      23.941   1.144  52.092  1.00  0.00     0.042 C 
HETATM   10  C12 UNL     1      25.322   0.882  52.229  1.00  0.00     0.123 A 
ENDROOT
BRANCH  10  11
HETATM   11  N2  UNL     1      26.422   1.211  51.708  1.00  0.00    -0.291 NA
BRANCH  11  12
HETATM   12  C13 UNL     1      26.750   2.578  51.386  1.00  0.00     0.265 C 
BRANCH  12  13
HETATM   13  N3  UNL     1      26.417   2.818  49.998  1.00  0.00    -0.372 N 
HETATM   14  H18 UNL     1      26.177   1.992  49.378  1.00  0.00     0.161 HD
BRANCH  13  15
HETATM   15  C14 UNL     1      26.399   4.119  49.440  1.00  0.00     0.030 A 
HETATM   16  C15 UNL     1      25.230   4.882  49.473  1.00  0.00     0.029 A 
HETATM   17  C16 UNL     1      25.250   6.135  48.931  1.00  0.00     0.004 A 
HETATM   18  C17 UNL     1      26.346   6.717  48.342  1.00  0.00     0.024 A 
HETATM   19  C18 UNL     1      27.491   5.937  48.323  1.00  0.00     0.036 A 
HETATM   20 CL1  UNL     1      28.936   6.588  47.590  1.00  0.00    -0.084 Cl
HETATM   21  C19 UNL     1      27.547   4.641  48.862  1.00  0.00     0.053 A 
ENDBRANCH  13  15
ENDBRANCH  12  13
ENDBRANCH  11  12
ENDBRANCH  10  11
BRANCH   1  22
HETATM   22  N1  UNL     1      26.934  -0.636  53.873  1.00  0.00    -0.316 NA
HETATM   23  C1  UNL     1      28.088  -0.078  54.579  1.00  0.00     0.172 C 
ENDBRANCH   1  22
BRANCH   8  24
HETATM   24  O1  UNL     1      22.131   1.994  51.269  1.00  0.00    -0.360 OA
HETATM   25  C10 UNL     1      22.326   3.360  51.642  1.00  0.00     0.209 C 
ENDBRANCH   8  24
TORSDOF 6
ENDMDL
MODEL 2
REMARK VINA RESULT:      -8.1      3.244      5.385
REMARK  6 active torsions:
REMARK  status: ('A' for Active; 'I' for Inactive)
REMARK    1  A    between atoms: N1_2  and  C2_3 
REMARK    2  A    between atoms: C9_10  and  O1_11 
REMARK    3  A    between atoms: C12_14  and  N2_15 
REMARK    4  A    between atoms: N2_15  and  C13_16 
REMARK    5  A    between atoms: C13_16  and  N3_17 
REMARK    6  A    between atoms: N3_17  and  C14_18 
ROOT
HETATM    1  C2  UNL     1      22.982   3.224  51.548  1.00  0.00     0.133 A 
HETATM    2  C3  UNL     1      22.169   2.334  52.115  1.00  0.00     0.100 A 
HETATM    3  C4  UNL     1      21.533   1.607  52.581  1.00  0.00    -0.165 C 
HETATM    4  C5  UNL     1      20.769   0.700  53.165  1.00  0.00     0.081 C 
HETATM    5  C6  UNL     1      19.960  -0.292  53.763  1.00  0.00     0.012 C 
HETATM    6  C7  UNL     1      21.095  -1.393  53.850  1.00  0.00     0.007 C 
HETATM    7  C8  UNL     1      22.436  -1.017  54.302  1.00  0.00     0.064 C 
HETATM    8  C9  UNL     1      23.385  -0.063  53.774  1.00  0.00     0.044 C 
HETATM    9  C11 UNL     1      23.839   1.050  53.084  1.00  0.00     0.042 C 
HETATM   10  C12 UNL     1      23.836   2.229  52.307  1.00  0.00     0.123 A 
ENDROOT
BRANCH  10  11
HETATM   11  N2  UNL     1      24.644   3.071  51.830  1.00  0.00    -0.291 NA
BRANCH  11  12
HETATM   12  C13 UNL     1      25.797   2.688  51.053  1.00  0.00     0.265 C 
BRANCH  12  13
HETATM   13  N3  UNL     1      26.984   2.895  51.855  1.00  0.00    -0.372 N 
HETATM   14  H18 UNL     1      27.414   3.864  51.894  1.00  0.00     0.161 HD
BRANCH  13  15
HETATM   15  C14 UNL     1      27.588   1.850  52.594  1.00  0.00     0.030 A 
HETATM   16  C15 UNL     1      28.529   2.141  53.584  1.00  0.00     0.029 A 
HETATM   17  C16 UNL     1      29.087   1.108  54.281  1.00  0.00     0.004 A 
HETATM   18  C17 UNL     1      28.796  -0.220  54.083  1.00  0.00     0.024 A 
HETATM   19  C18 UNL     1      27.861  -0.479  53.094  1.00  0.00     0.036 A 
HETATM   20 CL1  UNL     1      27.428  -2.138  52.764  1.00  0.00    -0.084 Cl
HETATM   21  C19 UNL     1      27.243   0.531  52.338  1.00  0.00     0.053 A 
ENDBRANCH  13  15
ENDBRANCH  12  13
ENDBRANCH  11  12
ENDBRANCH  10  11
BRANCH   1  22
HETATM   22  N1  UNL     1      21.961   3.803  51.037  1.00  0.00    -0.316 NA
HETATM   23  C1  UNL     1      21.683   5.158  51.516  1.00  0.00     0.172 C 
ENDBRANCH   1  22
BRANCH   8  24
HETATM   24  O1  UNL     1      24.642  -0.571  54.268  1.00  0.00    -0.360 OA
HETATM   25  C10 UNL     1      24.474  -1.248  55.515  1.00  0.00     0.209 C 
ENDBRANCH   8  24
TORSDOF 6
ENDMDL
MODEL 3
REMARK VINA RESULT:      -8.0      1.941      2.173
REMARK  6 active torsions:
REMARK  status: ('A' for Active; 'I' for Inactive)
REMARK    1  A    between atoms: N1_2  and  C2_3 
REMARK    2  A    between atoms: C9_10  and  O1_11 
REMARK    3  A    between atoms: C12_14  and  N2_15 
REMARK    4  A    between atoms: N2_15  and  C13_16 
REMARK    5  A    between atoms: C13_16  and  N3_17 
REMARK    6  A    between atoms: N3_17  and  C14_18 
ROOT
HETATM    1  C2  UNL     1      26.328   0.560  53.434  1.00  0.00     0.133 A 
HETATM    2  C3  UNL     1      25.141   0.037  53.738  1.00  0.00     0.100 A 
HETATM    3  C4  UNL     1      24.176  -0.370  53.970  1.00  0.00    -0.165 C 
HETATM    4  C5  UNL     1      22.975  -0.851  54.243  1.00  0.00     0.081 C 
HETATM    5  C6  UNL     1      21.689  -1.341  54.560  1.00  0.00     0.012 C 
HETATM    6  C7  UNL     1      20.934   0.032  54.329  1.00  0.00     0.007 C 
HETATM    7  C8  UNL     1      21.257   0.850  53.159  1.00  0.00     0.064 C 
HETATM    8  C9  UNL     1      22.501   1.449  52.731  1.00  0.00     0.044 C 
HETATM    9  C11 UNL     1      23.872   1.623  52.620  1.00  0.00     0.042 C 
HETATM   10  C12 UNL     1      25.259   1.416  52.784  1.00  0.00     0.123 A 
ENDROOT
BRANCH  10  11
HETATM   11  N2  UNL     1      26.358   1.923  52.430  1.00  0.00    -0.291 NA
BRANCH  11  12
HETATM   12  C13 UNL     1      26.668   2.220  51.053  1.00  0.00     0.265 C 
BRANCH  12  13
HETATM   13  N3  UNL     1      26.474   3.637  50.832  1.00  0.00    -0.372 N 
HETATM   14  H18 UNL     1      27.192   4.319  51.212  1.00  0.00     0.161 HD
BRANCH  13  15
HETATM   15  C14 UNL     1      25.360   4.145  50.122  1.00  0.00     0.030 A 
HETATM   16  C15 UNL     1      25.088   5.515  50.127  1.00  0.00     0.029 A 
HETATM   17  C16 UNL     1      24.008   5.971  49.426  1.00  0.00     0.004 A 
HETATM   18  C17 UNL     1      23.150   5.177  48.704  1.00  0.00     0.024 A 
HETATM   19  C18 UNL     1      23.444   3.823  48.718  1.00  0.00     0.036 A 
HETATM   20 CL1  UNL     1      22.406   2.731  47.834  1.00  0.00    -0.084 Cl
HETATM   21  C19 UNL     1      24.537   3.281  49.414  1.00  0.00     0.053 A 
ENDBRANCH  13  15
ENDBRANCH  12  13
ENDBRANCH  11  12
ENDBRANCH  10  11
BRANCH   1  22
HETATM   22  N1  UNL     1      26.889  -0.354  54.131  1.00  0.00    -0.316 NA
HETATM   23  C1  UNL     1      28.131   0.024  54.808  1.00  0.00     0.172 C 
ENDBRANCH   1  22
BRANCH   8  24
HETATM   24  O1  UNL     1      22.050   2.540  51.901  1.00  0.00    -0.360 OA
HETATM   25  C10 UNL     1      22.453   3.801  52.439  1.00  0.00     0.209 C 
ENDBRANCH   8  24
TORSDOF 6
ENDMDL
MODEL 4
REMARK VINA RESULT:      -7.7      3.709      4.909
REMARK  6 active torsions:
REMARK  status: ('A' for Active; 'I' for Inactive)
REMARK    1  A    between atoms: N1_2  and  C2_3 
REMARK    2  A    between atoms: C9_10  and  O1_11 
REMARK    3  A    between atoms: C12_14  and  N2_15 
REMARK    4  A    between atoms: N2_15  and  C13_16 
REMARK    5  A    between atoms: C13_16  and  N3_17 
REMARK    6  A    between atoms: N3_17  and  C14_18 
ROOT
HETATM    1  C2  UNL     1      22.795  -0.654  54.376  1.00  0.00     0.133 A 
HETATM    2  C3  UNL     1      21.533  -1.010  54.140  1.00  0.00     0.100 A 
HETATM    3  C4  UNL     1      20.518  -1.285  53.931  1.00  0.00    -0.165 C 
HETATM    4  C5  UNL     1      19.266  -1.608  53.654  1.00  0.00     0.081 C 
HETATM    5  C6  UNL     1      17.917  -1.922  53.374  1.00  0.00     0.012 C 
HETATM    6  C7  UNL     1      17.610  -0.598  52.560  1.00  0.00     0.007 C 
HETATM    7  C8  UNL     1      18.581  -0.108  51.579  1.00  0.00     0.064 C 
HETATM    8  C9  UNL     1      19.964   0.288  51.726  1.00  0.00     0.044 C 
HETATM    9  C11 UNL     1      21.234   0.341  52.280  1.00  0.00     0.042 C 
HETATM   10  C12 UNL     1      22.322   0.089  53.143  1.00  0.00     0.123 A 
ENDROOT
BRANCH  10  11
HETATM   11  N2  UNL     1      23.528   0.423  53.296  1.00  0.00    -0.291 NA
BRANCH  11  12
HETATM   12  C13 UNL     1      24.134   1.504  52.558  1.00  0.00     0.265 C 
BRANCH  12  13
HETATM   13  N3  UNL     1      25.309   0.998  51.880  1.00  0.00    -0.372 N 
HETATM   14  H18 UNL     1      25.213   0.634  50.889  1.00  0.00     0.161 HD
BRANCH  13  15
HETATM   15  C14 UNL     1      26.584   0.976  52.495  1.00  0.00     0.030 A 
HETATM   16  C15 UNL     1      27.163   2.160  52.957  1.00  0.00     0.029 A 
HETATM   17  C16 UNL     1      28.391   2.101  53.551  1.00  0.00     0.004 A 
HETATM   18  C17 UNL     1      29.120   0.950  53.732  1.00  0.00     0.024 A 
HETATM   19  C18 UNL     1      28.522  -0.208  53.264  1.00  0.00     0.036 A 
HETATM   20 CL1  UNL     1      29.373  -1.722  53.443  1.00  0.00    -0.084 Cl
HETATM   21  C19 UNL     1      27.261  -0.226  52.644  1.00  0.00     0.053 A 
ENDBRANCH  13  15
ENDBRANCH  12  13
ENDBRANCH  11  12
ENDBRANCH  10  11
BRANCH   1  22
HETATM   22  N1  UNL     1      22.795  -1.410  55.409  1.00  0.00    -0.316 NA
HETATM   23  C1  UNL     1      24.070  -1.527  56.120  1.00  0.00     0.172 C 
ENDBRANCH   1  22
BRANCH   8  24
HETATM   24  O1  UNL     1      20.152   1.175  50.603  1.00  0.00    -0.360 OA
HETATM   25  C10 UNL     1      21.296   0.800  49.833  1.00  0.00     0.209 C 
ENDBRANCH   8  24
TORSDOF 6
ENDMDL
MODEL 5
REMARK VINA RESULT:      -7.4      1.524      2.266
REMARK  6 active torsions:
REMARK  status: ('A' for Active; 'I' for Inactive)
REMARK    1  A    between atoms: N1_2  and  C2_3 
REMARK    2  A    between atoms: C9_10  and  O1_11 
REMARK    3  A    between atoms: C12_14  and  N2_15 
REMARK    4  A    between atoms: N2_15  and  C13_16 
REMARK    5  A    between atoms: C13_16  and  N3_17 
REMARK    6  A    between atoms: N3_17  and  C14_18 
ROOT
HETATM    1  C2  UNL     1      25.047   1.757  51.480  1.00  0.00     0.133 A 
HETATM    2  C3  UNL     1      24.406   0.967  52.340  1.00  0.00     0.100 A 
HETATM    3  C4  UNL     1      23.871   0.340  53.026  1.00  0.00    -0.165 C 
HETATM    4  C5  UNL     1      23.189  -0.420  53.866  1.00  0.00     0.081 C 
HETATM    5  C6  UNL     1      22.462  -1.207  54.787  1.00  0.00     0.012 C 
HETATM    6  C7  UNL     1      21.267  -0.182  54.964  1.00  0.00     0.007 C 
HETATM    7  C8  UNL     1      20.698   0.478  53.787  1.00  0.00     0.064 C 
HETATM    8  C9  UNL     1      21.302   1.335  52.792  1.00  0.00     0.044 C 
HETATM    9  C11 UNL     1      22.303   1.886  52.007  1.00  0.00     0.042 C 
HETATM   10  C12 UNL     1      23.579   2.131  51.453  1.00  0.00     0.123 A 
ENDROOT
BRANCH  10  11
HETATM   11  N2  UNL     1      24.130   2.871  50.595  1.00  0.00    -0.291 NA
BRANCH  11  12
HETATM   12  C13 UNL     1      24.374   4.275  50.821  1.00  0.00     0.265 C 
BRANCH  12  13
HETATM   13  N3  UNL     1      24.517   4.930  49.538  1.00  0.00    -0.372 N 
HETATM   14  H18 UNL     1      23.654   5.084  48.941  1.00  0.00     0.161 HD
BRANCH  13  15
HETATM   15  C14 UNL     1      25.770   5.377  49.054  1.00  0.00     0.030 A 
HETATM   16  C15 UNL     1      26.874   4.521  49.065  1.00  0.00     0.029 A 
HETATM   17  C16 UNL     1      28.065   4.983  48.584  1.00  0.00     0.004 A 
HETATM   18  C17 UNL     1      28.273   6.246  48.084  1.00  0.00     0.024 A 
HETATM   19  C18 UNL     1      27.161   7.073  48.086  1.00  0.00     0.036 A 
HETATM   20 CL1  UNL     1      27.325   8.700  47.474  1.00  0.00    -0.084 Cl
HETATM   21  C19 UNL     1      25.903   6.667  48.562  1.00  0.00     0.053 A 
ENDBRANCH  13  15
ENDBRANCH  12  13
ENDBRANCH  11  12
ENDBRANCH  10  11
BRANCH   1  22
HETATM   22  N1  UNL     1      26.146   1.187  51.803  1.00  0.00    -0.316 NA
HETATM   23  C1  UNL     1      27.214   2.068  52.278  1.00  0.00     0.172 C 
ENDBRANCH   1  22
BRANCH   8  24
HETATM   24  O1  UNL     1      20.169   2.081  52.298  1.00  0.00    -0.360 OA
HETATM   25  C10 UNL     1      19.202   1.218  51.697  1.00  0.00     0.209 C 
ENDBRANCH   8  24
TORSDOF 6
ENDMDL
MODEL 6
REMARK VINA RESULT:      -7.4      3.979      7.492
REMARK  6 active torsions:
REMARK  status: ('A' for Active; 'I' for Inactive)
REMARK    1  A    between atoms: N1_2  and  C2_3 
REMARK    2  A    between atoms: C9_10  and  O1_11 
REMARK    3  A    between atoms: C12_14  and  N2_15 
REMARK    4  A    between atoms: N2_15  and  C13_16 
REMARK    5  A    between atoms: C13_16  and  N3_17 
REMARK    6  A    between atoms: N3_17  and  C14_18 
ROOT
HETATM    1  C2  UNL     1      23.872   2.406  52.882  1.00  0.00     0.133 A 
HETATM    2  C3  UNL     1      25.182   2.399  53.120  1.00  0.00     0.100 A 
HETATM    3  C4  UNL     1      26.238   2.371  53.311  1.00  0.00    -0.165 C 
HETATM    4  C5  UNL     1      27.537   2.310  53.547  1.00  0.00     0.081 C 
HETATM    5  C6  UNL     1      28.919   2.241  53.834  1.00  0.00     0.012 C 
HETATM    6  C7  UNL     1      28.870   0.807  54.506  1.00  0.00     0.007 C 
HETATM    7  C8  UNL     1      28.086  -0.260  53.881  1.00  0.00     0.064 C 
HETATM    8  C9  UNL     1      26.678  -0.347  53.567  1.00  0.00     0.044 C 
HETATM    9  C11 UNL     1      25.398   0.095  53.272  1.00  0.00     0.042 C 
HETATM   10  C12 UNL     1      24.316   0.963  53.007  1.00  0.00     0.123 A 
ENDROOT
BRANCH  10  11
HETATM   11  N2  UNL     1      23.085   0.915  52.738  1.00  0.00    -0.291 NA
BRANCH  11  12
HETATM   12  C13 UNL     1      22.092   0.526  53.710  1.00  0.00     0.265 C 
BRANCH  12  13
HETATM   13  N3  UNL     1      21.396  -0.643  53.216  1.00  0.00    -0.372 N 
HETATM   14  H18 UNL     1      21.922  -1.561  53.142  1.00  0.00     0.161 HD
BRANCH  13  15
HETATM   15  C14 UNL     1      20.035  -0.603  52.829  1.00  0.00     0.030 A 
HETATM   16  C15 UNL     1      19.069  -1.270  53.586  1.00  0.00     0.029 A 
HETATM   17  C16 UNL     1      17.765  -1.205  53.187  1.00  0.00     0.004 A 
HETATM   18  C17 UNL     1      17.316  -0.528  52.079  1.00  0.00     0.024 A 
HETATM   19  C18 UNL     1      18.296   0.122  51.347  1.00  0.00     0.036 A 
HETATM   20 CL1  UNL     1      17.825   1.007  49.917  1.00  0.00    -0.084 Cl
HETATM   21  C19 UNL     1      19.656   0.102  51.696  1.00  0.00     0.053 A 
ENDBRANCH  13  15
ENDBRANCH  12  13
ENDBRANCH  11  12
ENDBRANCH  10  11
BRANCH   1  22
HETATM   22  N1  UNL     1      23.899   3.686  52.874  1.00  0.00    -0.316 NA
HETATM   23  C1  UNL     1      23.535   4.330  51.611  1.00  0.00     0.172 C 
ENDBRANCH   1  22
BRANCH   8  24
HETATM   24  O1  UNL     1      26.456  -1.772  53.531  1.00  0.00    -0.360 OA
HETATM   25  C10 UNL     1      27.145  -2.376  52.435  1.00  0.00     0.209 C 
ENDBRANCH   8  24
TORSDOF 6
ENDMDL
MODEL 7
REMARK VINA RESULT:      -7.3      2.533      4.339
REMARK  6 active torsions:
REMARK  status: ('A' for Active; 'I' for Inactive)
REMARK    1  A    between atoms: N1_2  and  C2_3 
REMARK    2  A    between atoms: C9_10  and  O1_11 
REMARK    3  A    between atoms: C12_14  and  N2_15 
REMARK    4  A    between atoms: N2_15  and  C13_16 
REMARK    5  A    between atoms: C13_16  and  N3_17 
REMARK    6  A    between atoms: N3_17  and  C14_18 
ROOT
HETATM    1  C2  UNL     1      25.848   3.546  50.640  1.00  0.00     0.133 A 
HETATM    2  C3  UNL     1      26.142   2.337  51.115  1.00  0.00     0.100 A 
HETATM    3  C4  UNL     1      26.358   1.361  51.506  1.00  0.00    -0.165 C 
HETATM    4  C5  UNL     1      26.602   0.160  51.999  1.00  0.00     0.081 C 
HETATM    5  C6  UNL     1      26.871  -1.110  52.558  1.00  0.00     0.012 C 
HETATM    6  C7  UNL     1      25.849  -0.975  53.761  1.00  0.00     0.007 C 
HETATM    7  C8  UNL     1      24.512  -0.429  53.518  1.00  0.00     0.064 C 
HETATM    8  C9  UNL     1      24.088   0.851  52.998  1.00  0.00     0.044 C 
HETATM    9  C11 UNL     1      24.166   2.041  52.291  1.00  0.00     0.042 C 
HETATM   10  C12 UNL     1      24.670   3.069  51.466  1.00  0.00     0.123 A 
ENDROOT
BRANCH  10  11
HETATM   11  N2  UNL     1      24.326   4.191  51.004  1.00  0.00    -0.291 NA
BRANCH  11  12
HETATM   12  C13 UNL     1      23.572   5.149  51.775  1.00  0.00     0.265 C 
BRANCH  12  13
HETATM   13  N3  UNL     1      24.359   6.357  51.905  1.00  0.00    -0.372 N 
HETATM   14  H18 UNL     1      24.853   6.551  52.823  1.00  0.00     0.161 HD
BRANCH  13  15
HETATM   15  C14 UNL     1      24.494   7.288  50.847  1.00  0.00     0.030 A 
HETATM   16  C15 UNL     1      25.759   7.605  50.347  1.00  0.00     0.029 A 
HETATM   17  C16 UNL     1      25.852   8.502  49.322  1.00  0.00     0.004 A 
HETATM   18  C17 UNL     1      24.783   9.133  48.732  1.00  0.00     0.024 A 
HETATM   19  C18 UNL     1      23.541   8.799  49.249  1.00  0.00     0.036 A 
HETATM   20 CL1  UNL     1      22.120   9.553  48.568  1.00  0.00    -0.084 Cl
HETATM   21  C19 UNL     1      23.367   7.885  50.300  1.00  0.00     0.053 A 
ENDBRANCH  13  15
ENDBRANCH  12  13
ENDBRANCH  11  12
ENDBRANCH  10  11
BRANCH   1  22
HETATM   22  N1  UNL     1      27.000   3.587  50.084  1.00  0.00    -0.316 NA
HETATM   23  C1  UNL     1      27.145   4.532  48.975  1.00  0.00     0.172 C 
ENDBRANCH   1  22
BRANCH   8  24
HETATM   24  O1  UNL     1      22.756   0.979  53.541  1.00  0.00    -0.360 OA
HETATM   25  C10 UNL     1      22.174  -0.301  53.793  1.00  0.00     0.209 C 
ENDBRANCH   8  24
TORSDOF 6
ENDMDL
MODEL 8
REMARK VINA RESULT:      -7.3      3.462      5.062
REMARK  6 active torsions:
REMARK  status: ('A' for Active; 'I' for Inactive)
REMARK    1  A    between atoms: N1_2  and  C2_3 
REMARK    2  A    between atoms: C9_10  and  O1_11 
REMARK    3  A    between atoms: C12_14  and  N2_15 
REMARK    4  A    between atoms: N2_15  and  C13_16 
REMARK    5  A    between atoms: C13_16  and  N3_17 
REMARK    6  A    between atoms: N3_17  and  C14_18 
ROOT
HETATM    1  C2  UNL     1      23.415   0.632  53.051  1.00  0.00     0.133 A 
HETATM    2  C3  UNL     1      22.174   0.476  52.594  1.00  0.00     0.100 A 
HETATM    3  C4  UNL     1      21.175   0.371  52.219  1.00  0.00    -0.165 C 
HETATM    4  C5  UNL     1      19.942   0.267  51.752  1.00  0.00     0.081 C 
HETATM    5  C6  UNL     1      18.612   0.169  51.285  1.00  0.00     0.012 C 
HETATM    6  C7  UNL     1      18.249   1.693  51.516  1.00  0.00     0.007 C 
HETATM    7  C8  UNL     1      19.202   2.734  51.126  1.00  0.00     0.064 C 
HETATM    8  C9  UNL     1      20.563   2.982  51.546  1.00  0.00     0.044 C 
HETATM    9  C11 UNL     1      21.824   2.702  52.048  1.00  0.00     0.042 C 
HETATM   10  C12 UNL     1      22.917   1.984  52.580  1.00  0.00     0.123 A 
ENDROOT
BRANCH  10  11
HETATM   11  N2  UNL     1      24.104   2.175  52.958  1.00  0.00    -0.291 NA
BRANCH  11  12
HETATM   12  C13 UNL     1      25.189   2.396  52.032  1.00  0.00     0.265 C 
BRANCH  12  13
HETATM   13  N3  UNL     1      26.411   2.572  52.787  1.00  0.00    -0.372 N 
HETATM   14  H18 UNL     1      26.648   3.535  53.163  1.00  0.00     0.161 HD
BRANCH  13  15
HETATM   15  C14 UNL     1      27.301   1.502  53.045  1.00  0.00     0.030 A 
HETATM   16  C15 UNL     1      28.542   1.746  53.637  1.00  0.00     0.029 A 
HETATM   17  C16 UNL     1      29.372   0.689  53.877  1.00  0.00     0.004 A 
HETATM   18  C17 UNL     1      29.083  -0.620  53.575  1.00  0.00     0.024 A 
HETATM   19  C18 UNL     1      27.847  -0.832  52.987  1.00  0.00     0.036 A 
HETATM   20 CL1  UNL     1      27.390  -2.463  52.561  1.00  0.00    -0.084 Cl
HETATM   21  C19 UNL     1      26.939   0.204  52.712  1.00  0.00     0.053 A 
ENDBRANCH  13  15
ENDBRANCH  12  13
ENDBRANCH  11  12
ENDBRANCH  10  11
BRANCH   1  22
HETATM   22  N1  UNL     1      23.444  -0.613  53.345  1.00  0.00    -0.316 NA
HETATM   23  C1  UNL     1      23.972  -0.950  54.668  1.00  0.00     0.172 C 
ENDBRANCH   1  22
BRANCH   8  24
HETATM   24  O1  UNL     1      20.717   4.392  51.277  1.00  0.00    -0.360 OA
HETATM   25  C10 UNL     1      21.738   4.625  50.305  1.00  0.00     0.209 C 
ENDBRANCH   8  24
TORSDOF 6
ENDMDL
MODEL 9
REMARK VINA RESULT:      -7.1      3.302      6.029
REMARK  6 active torsions:
REMARK  status: ('A' for Active; 'I' for Inactive)
REMARK    1  A    between atoms: N1_2  and  C2_3 
REMARK    2  A    between atoms: C9_10  and  O1_11 
REMARK    3  A    between atoms: C12_14  and  N2_15 
REMARK    4  A    between atoms: N2_15  and  C13_16 
REMARK    5  A    between atoms: C13_16  and  N3_17 
REMARK    6  A    between atoms: N3_17  and  C14_18 
ROOT
HETATM    1  C2  UNL     1      22.111  -0.009  52.851  1.00  0.00     0.133 A 
HETATM    2  C3  UNL     1      21.892   0.428  51.612  1.00  0.00     0.100 A 
HETATM    3  C4  UNL     1      21.735   0.792  50.616  1.00  0.00    -0.165 C 
HETATM    4  C5  UNL     1      21.562   1.257  49.390  1.00  0.00     0.081 C 
HETATM    5  C6  UNL     1      21.361   1.782  48.094  1.00  0.00     0.012 C 
HETATM    6  C7  UNL     1      22.156   3.129  48.343  1.00  0.00     0.007 C 
HETATM    7  C8  UNL     1      23.439   3.095  49.047  1.00  0.00     0.064 C 
HETATM    8  C9  UNL     1      23.785   2.632  50.372  1.00  0.00     0.044 C 
HETATM    9  C11 UNL     1      23.678   1.906  51.549  1.00  0.00     0.042 C 
HETATM   10  C12 UNL     1      23.191   0.998  52.514  1.00  0.00     0.123 A 
ENDROOT
BRANCH  10  11
HETATM   11  N2  UNL     1      23.468   0.582  53.672  1.00  0.00    -0.291 NA
BRANCH  11  12
HETATM   12  C13 UNL     1      24.705  -0.094  53.979  1.00  0.00     0.265 C 
BRANCH  12  13
HETATM   13  N3  UNL     1      25.763   0.890  54.051  1.00  0.00    -0.372 N 
HETATM   14  H18 UNL     1      25.511   1.902  54.247  1.00  0.00     0.161 HD
BRANCH  13  15
HETATM   15  C14 UNL     1      27.125   0.548  53.872  1.00  0.00     0.030 A 
HETATM   16  C15 UNL     1      28.110   1.537  53.923  1.00  0.00     0.029 A 
HETATM   17  C16 UNL     1      29.415   1.171  53.753  1.00  0.00     0.004 A 
HETATM   18  C17 UNL     1      29.846  -0.114  53.529  1.00  0.00     0.024 A 
HETATM   19  C18 UNL     1      28.847  -1.073  53.483  1.00  0.00     0.036 A 
HETATM   20 CL1  UNL     1      29.295  -2.737  53.198  1.00  0.00    -0.084 Cl
HETATM   21  C19 UNL     1      27.485  -0.773  53.651  1.00  0.00     0.053 A 
ENDBRANCH  13  15
ENDBRANCH  12  13
ENDBRANCH  11  12
ENDBRANCH  10  11
BRANCH   1  22
HETATM   22  N1  UNL     1      21.065  -0.741  52.757  1.00  0.00    -0.316 NA
HETATM   23  C1  UNL     1      19.882  -0.269  53.478  1.00  0.00     0.172 C 
ENDBRANCH   1  22
BRANCH   8  24
HETATM   24  O1  UNL     1      24.988   3.376  50.656  1.00  0.00    -0.360 OA
HETATM   25  C10 UNL     1      26.109   2.506  50.824  1.00  0.00     0.209 C 
ENDBRANCH   8  24
TORSDOF 6
ENDMDL
