MODEL 1
REMARK VINA RESULT:      -8.8      0.000      0.000
REMARK  3 active torsions:
REMARK  status: ('A' for Active; 'I' for Inactive)
REMARK    1  A    between atoms: C2_2  and  C3_3 
REMARK    2  A    between atoms: C8_8  and  C9_9 
REMARK    3  A    between atoms: C12_12  and  O1_13 
ROOT
HETATM    1  C9  UNL     1      25.452  -0.546  53.763  1.00  0.00     0.070 C 
HETATM    2  C10 UNL     1      24.430  -0.065  53.044  1.00  0.00     0.049 C 
HETATM    3  C11 UNL     1      23.073  -0.208  53.356  1.00  0.00     0.031 A 
HETATM    4  C12 UNL     1      22.065   0.104  52.496  1.00  0.00     0.114 A 
HETATM    5  C14 UNL     1      20.914  -0.352  53.045  1.00  0.00     0.104 A 
HETATM    6  O2  UNL     1      19.842  -0.120  52.350  1.00  0.00    -0.353 OA
HETATM    7  C15 UNL     1      18.773   0.111  51.656  1.00  0.00     0.210 C 
HETATM    8  C16 UNL     1      20.954  -0.968  54.236  1.00  0.00     0.072 A 
HETATM    9  C17 UNL     1      22.362  -0.919  54.490  1.00  0.00     0.074 A 
HETATM   10  N1  UNL     1      23.040  -1.439  55.579  1.00  0.00    -0.241 NA
HETATM   11  C18 UNL     1      24.343  -1.347  55.851  1.00  0.00     0.234 C 
HETATM   12  N2  UNL     1      25.335  -1.172  54.974  1.00  0.00    -0.241 NA
ENDROOT
BRANCH   4  13
HETATM   13  O1  UNL     1      22.177   0.782  51.247  1.00  0.00    -0.352 OA
HETATM   14  C13 UNL     1      22.130   2.215  51.442  1.00  0.00     0.210 C 
ENDBRANCH   4  13
BRANCH   1  15
HETATM   15  C8  UNL     1      26.893  -0.659  53.439  1.00  0.00    -0.001 A 
HETATM   16  C3  UNL     1      27.868   0.262  53.585  1.00  0.00    -0.046 A 
HETATM   17  C4  UNL     1      29.201   0.021  53.487  1.00  0.00     0.008 A 
HETATM   18  C5  UNL     1      29.365  -1.329  53.199  1.00  0.00     0.001 A 
HETATM   19  C6  UNL     1      28.638  -2.417  52.983  1.00  0.00     0.001 A 
HETATM   20  C7  UNL     1      27.228  -1.996  53.143  1.00  0.00     0.014 A 
BRANCH  16  21
HETATM   21  C2  UNL     1      27.591   1.714  53.802  1.00  0.00     0.035 C 
HETATM   22  C1  UNL     1      28.871   2.507  53.706  1.00  0.00     0.010 C 
ENDBRANCH  16  21
ENDBRANCH   1  15
TORSDOF 3
ENDMDL
MODEL 2
REMARK VINA RESULT:      -8.2      2.646      6.955
REMARK  3 active torsions:
REMARK  status: ('A' for Active; 'I' for Inactive)
REMARK    1  A    between atoms: C2_2  and  C3_3 
REMARK    2  A    between atoms: C8_8  and  C9_9 
REMARK    3  A    between atoms: C12_12  and  O1_13 
ROOT
HETATM    1  C9  UNL     1      23.259   0.870  52.779  1.00  0.00     0.070 C 
HETATM    2  C10 UNL     1      24.319   0.122  53.115  1.00  0.00     0.049 C 
HETATM    3  C11 UNL     1      25.626   0.592  53.292  1.00  0.00     0.031 A 
HETATM    4  C12 UNL     1      26.708  -0.223  53.421  1.00  0.00     0.114 A 
HETATM    5  C14 UNL     1      27.810   0.562  53.364  1.00  0.00     0.104 A 
HETATM    6  O2  UNL     1      28.941  -0.066  53.486  1.00  0.00    -0.353 OA
HETATM    7  C15 UNL     1      30.068  -0.692  53.608  1.00  0.00     0.210 C 
HETATM    8  C16 UNL     1      27.666   1.886  53.214  1.00  0.00     0.072 A 
HETATM    9  C17 UNL     1      26.238   1.971  53.144  1.00  0.00     0.074 A 
HETATM   10  N1  UNL     1      25.469   3.105  52.953  1.00  0.00    -0.241 NA
HETATM   11  C18 UNL     1      24.138   3.200  52.946  1.00  0.00     0.234 C 
HETATM   12  N2  UNL     1      23.267   2.231  52.650  1.00  0.00    -0.241 NA
ENDROOT
BRANCH   4  13
HETATM   13  O1  UNL     1      26.705  -1.640  53.584  1.00  0.00    -0.352 OA
HETATM   14  C13 UNL     1      26.877  -2.297  52.307  1.00  0.00     0.210 C 
ENDBRANCH   4  13
BRANCH   1  15
HETATM   15  C8  UNL     1      21.898   0.477  52.349  1.00  0.00    -0.001 A 
HETATM   16  C3  UNL     1      20.857   0.068  53.105  1.00  0.00    -0.046 A 
HETATM   17  C4  UNL     1      19.573  -0.055  52.677  1.00  0.00     0.008 A 
HETATM   18  C5  UNL     1      19.540   0.301  51.333  1.00  0.00     0.001 A 
HETATM   19  C6  UNL     1      20.359   0.699  50.368  1.00  0.00     0.001 A 
HETATM   20  C7  UNL     1      21.697   0.801  50.992  1.00  0.00     0.014 A 
BRANCH  16  21
HETATM   21  C2  UNL     1      21.006  -0.387  54.520  1.00  0.00     0.035 C 
HETATM   22  C1  UNL     1      21.487  -1.816  54.559  1.00  0.00     0.010 C 
ENDBRANCH  16  21
ENDBRANCH   1  15
TORSDOF 3
ENDMDL
MODEL 3
REMARK VINA RESULT:      -7.8      1.591      2.518
REMARK  3 active torsions:
REMARK  status: ('A' for Active; 'I' for Inactive)
REMARK    1  A    between atoms: C2_2  and  C3_3 
REMARK    2  A    between atoms: C8_8  and  C9_9 
REMARK    3  A    between atoms: C12_12  and  O1_13 
ROOT
HETATM    1  C9  UNL     1      23.436   0.142  53.422  1.00  0.00     0.070 C 
HETATM    2  C10 UNL     1      22.278   0.499  52.852  1.00  0.00     0.049 C 
HETATM    3  C11 UNL     1      21.026  -0.070  53.119  1.00  0.00     0.031 A 
HETATM    4  C12 UNL     1      19.915   0.170  52.371  1.00  0.00     0.114 A 
HETATM    5  C14 UNL     1      18.959  -0.695  52.785  1.00  0.00     0.104 A 
HETATM    6  O2  UNL     1      17.817  -0.588  52.174  1.00  0.00    -0.353 OA
HETATM    7  C15 UNL     1      16.679  -0.483  51.566  1.00  0.00     0.210 C 
HETATM    8  C16 UNL     1      19.237  -1.555  53.776  1.00  0.00     0.072 A 
HETATM    9  C17 UNL     1      20.601  -1.202  54.032  1.00  0.00     0.074 A 
HETATM   10  N1  UNL     1      21.463  -1.779  54.948  1.00  0.00    -0.241 NA
HETATM   11  C18 UNL     1      22.714  -1.417  55.233  1.00  0.00     0.234 C 
HETATM   12  N2  UNL     1      23.566  -0.774  54.429  1.00  0.00    -0.241 NA
ENDROOT
BRANCH   4  13
HETATM   13  O1  UNL     1      19.764   1.142  51.338  1.00  0.00    -0.352 OA
HETATM   14  C13 UNL     1      19.354   2.412  51.896  1.00  0.00     0.210 C 
ENDBRANCH   4  13
BRANCH   1  15
HETATM   15  C8  UNL     1      24.831   0.496  53.077  1.00  0.00    -0.001 A 
HETATM   16  C3  UNL     1      25.441   1.699  53.148  1.00  0.00    -0.046 A 
HETATM   17  C4  UNL     1      26.778   1.912  53.039  1.00  0.00     0.008 A 
HETATM   18  C5  UNL     1      27.386   0.679  52.830  1.00  0.00     0.001 A 
HETATM   19  C6  UNL     1      27.066  -0.602  52.694  1.00  0.00     0.001 A 
HETATM   20  C7  UNL     1      25.596  -0.667  52.856  1.00  0.00     0.014 A 
BRANCH  16  21
HETATM   21  C2  UNL     1      24.694   2.985  53.282  1.00  0.00     0.035 C 
HETATM   22  C1  UNL     1      24.283   3.492  51.922  1.00  0.00     0.010 C 
ENDBRANCH  16  21
ENDBRANCH   1  15
TORSDOF 3
ENDMDL
MODEL 4
REMARK VINA RESULT:      -7.8      1.939      3.412
REMARK  3 active torsions:
REMARK  status: ('A' for Active; 'I' for Inactive)
REMARK    1  A    between atoms: C2_2  and  C3_3 
REMARK    2  A    between atoms: C8_8  and  C9_9 
REMARK    3  A    between atoms: C12_12  and  O1_13 
ROOT
HETATM    1  C9  UNL     1      25.551   0.842  52.528  1.00  0.00     0.070 C 
HETATM    2  C10 UNL     1      24.460   0.102  52.761  1.00  0.00     0.049 C 
HETATM    3  C11 UNL     1      23.164   0.395  52.319  1.00  0.00     0.031 A 
HETATM    4  C12 UNL     1      22.053  -0.260  52.753  1.00  0.00     0.114 A 
HETATM    5  C14 UNL     1      20.979   0.416  52.282  1.00  0.00     0.104 A 
HETATM    6  O2  UNL     1      19.825  -0.092  52.598  1.00  0.00    -0.353 OA
HETATM    7  C15 UNL     1      18.676  -0.597  52.914  1.00  0.00     0.210 C 
HETATM    8  C16 UNL     1      21.170   1.510  51.530  1.00  0.00     0.072 A 
HETATM    9  C17 UNL     1      22.601   1.560  51.529  1.00  0.00     0.074 A 
HETATM   10  N1  UNL     1      23.411   2.511  50.933  1.00  0.00    -0.241 NA
HETATM   11  C18 UNL     1      24.743   2.532  50.878  1.00  0.00     0.234 C 
HETATM   12  N2  UNL     1      25.590   1.956  51.736  1.00  0.00    -0.241 NA
ENDROOT
BRANCH   4  13
HETATM   13  O1  UNL     1      22.006  -1.439  53.555  1.00  0.00    -0.352 OA
HETATM   14  C13 UNL     1      22.024  -1.095  54.960  1.00  0.00     0.210 C 
ENDBRANCH   4  13
BRANCH   1  15
HETATM   15  C8  UNL     1      26.910   0.769  53.112  1.00  0.00    -0.001 A 
HETATM   16  C3  UNL     1      27.772  -0.269  53.122  1.00  0.00    -0.046 A 
HETATM   17  C4  UNL     1      29.084  -0.201  53.468  1.00  0.00     0.008 A 
HETATM   18  C5  UNL     1      29.360   1.117  53.816  1.00  0.00     0.001 A 
HETATM   19  C6  UNL     1      28.748   2.288  53.924  1.00  0.00     0.001 A 
HETATM   20  C7  UNL     1      27.350   2.051  53.499  1.00  0.00     0.014 A 
BRANCH  16  21
HETATM   21  C2  UNL     1      27.360  -1.673  52.821  1.00  0.00     0.035 C 
HETATM   22  C1  UNL     1      28.530  -2.608  53.002  1.00  0.00     0.010 C 
ENDBRANCH  16  21
ENDBRANCH   1  15
TORSDOF 3
ENDMDL
MODEL 5
REMARK VINA RESULT:      -7.8      2.230      6.642
REMARK  3 active torsions:
REMARK  status: ('A' for Active; 'I' for Inactive)
REMARK    1  A    between atoms: C2_2  and  C3_3 
REMARK    2  A    between atoms: C8_8  and  C9_9 
REMARK    3  A    between atoms: C12_12  and  O1_13 
ROOT
HETATM    1  C9  UNL     1      21.467  -0.233  52.604  1.00  0.00     0.070 C 
HETATM    2  C10 UNL     1      22.793  -0.076  52.500  1.00  0.00     0.049 C 
HETATM    3  C11 UNL     1      23.739  -0.454  53.462  1.00  0.00     0.031 A 
HETATM    4  C12 UNL     1      25.048  -0.086  53.415  1.00  0.00     0.114 A 
HETATM    5  C14 UNL     1      25.608  -0.447  54.594  1.00  0.00     0.104 A 
HETATM    6  O2  UNL     1      26.873  -0.176  54.709  1.00  0.00    -0.353 OA
HETATM    7  C15 UNL     1      28.134   0.093  54.824  1.00  0.00     0.210 C 
HETATM    8  C16 UNL     1      24.853  -1.057  55.520  1.00  0.00     0.072 A 
HETATM    9  C17 UNL     1      23.595  -1.078  54.835  1.00  0.00     0.074 A 
HETATM   10  N1  UNL     1      22.388  -1.563  55.306  1.00  0.00    -0.241 NA
HETATM   11  C18 UNL     1      21.227  -1.640  54.653  1.00  0.00     0.234 C 
HETATM   12  N2  UNL     1      20.831  -0.877  53.629  1.00  0.00    -0.241 NA
ENDROOT
BRANCH   4  13
HETATM   13  O1  UNL     1      25.724   0.560  52.338  1.00  0.00    -0.352 OA
HETATM   14  C13 UNL     1      25.677   1.997  52.501  1.00  0.00     0.210 C 
ENDBRANCH   4  13
BRANCH   1  15
HETATM   15  C8  UNL     1      20.363   0.311  51.783  1.00  0.00    -0.001 A 
HETATM   16  C3  UNL     1      20.425   0.934  50.587  1.00  0.00    -0.046 A 
HETATM   17  C4  UNL     1      19.365   1.202  49.781  1.00  0.00     0.008 A 
HETATM   18  C5  UNL     1      18.221   0.732  50.419  1.00  0.00     0.001 A 
HETATM   19  C6  UNL     1      17.861   0.134  51.547  1.00  0.00     0.001 A 
HETATM   20  C7  UNL     1      19.116  -0.103  52.295  1.00  0.00     0.014 A 
BRANCH  16  21
HETATM   21  C2  UNL     1      21.692   1.490  50.023  1.00  0.00     0.035 C 
HETATM   22  C1  UNL     1      21.704   1.338  48.522  1.00  0.00     0.010 C 
ENDBRANCH  16  21
ENDBRANCH   1  15
TORSDOF 3
ENDMDL
MODEL 6
REMARK VINA RESULT:      -7.8      2.777      4.502
REMARK  3 active torsions:
REMARK  status: ('A' for Active; 'I' for Inactive)
REMARK    1  A    between atoms: C2_2  and  C3_3 
REMARK    2  A    between atoms: C8_8  and  C9_9 
REMARK    3  A    between atoms: C12_12  and  O1_13 
ROOT
HETATM    1  C9  UNL     1      26.168   1.832  51.877  1.00  0.00     0.070 C 
HETATM    2  C10 UNL     1      24.832   1.794  51.962  1.00  0.00     0.049 C 
HETATM    3  C11 UNL     1      23.942   2.551  51.189  1.00  0.00     0.031 A 
HETATM    4  C12 UNL     1      22.610   2.644  51.450  1.00  0.00     0.114 A 
HETATM    5  C14 UNL     1      22.110   3.609  50.642  1.00  0.00     0.104 A 
HETATM    6  O2  UNL     1      20.833   3.817  50.756  1.00  0.00    -0.353 OA
HETATM    7  C15 UNL     1      19.560   4.024  50.870  1.00  0.00     0.210 C 
HETATM    8  C16 UNL     1      22.931   4.245  49.793  1.00  0.00     0.072 A 
HETATM    9  C17 UNL     1      24.168   3.599  50.118  1.00  0.00     0.074 A 
HETATM   10  N1  UNL     1      25.418   3.857  49.586  1.00  0.00    -0.241 NA
HETATM   11  C18 UNL     1      26.563   3.220  49.841  1.00  0.00     0.234 C 
HETATM   12  N2  UNL     1      26.876   2.548  50.952  1.00  0.00    -0.241 NA
ENDROOT
BRANCH   4  13
HETATM   13  O1  UNL     1      21.860   1.880  52.393  1.00  0.00    -0.352 OA
HETATM   14  C13 UNL     1      21.421   0.636  51.801  1.00  0.00     0.210 C 
ENDBRANCH   4  13
BRANCH   1  15
HETATM   15  C8  UNL     1      27.208   1.266  52.765  1.00  0.00    -0.001 A 
HETATM   16  C3  UNL     1      27.574  -0.023  52.926  1.00  0.00    -0.046 A 
HETATM   17  C4  UNL     1      28.685  -0.452  53.580  1.00  0.00     0.008 A 
HETATM   18  C5  UNL     1      29.354   0.671  54.055  1.00  0.00     0.001 A 
HETATM   19  C6  UNL     1      29.233   1.992  54.076  1.00  0.00     0.001 A 
HETATM   20  C7  UNL     1      28.000   2.294  53.315  1.00  0.00     0.014 A 
BRANCH  16  21
HETATM   21  C2  UNL     1      26.740  -1.171  52.459  1.00  0.00     0.035 C 
HETATM   22  C1  UNL     1      27.497  -2.465  52.623  1.00  0.00     0.010 C 
ENDBRANCH  16  21
ENDBRANCH   1  15
TORSDOF 3
ENDMDL
MODEL 7
REMARK VINA RESULT:      -7.4      3.570      5.445
REMARK  3 active torsions:
REMARK  status: ('A' for Active; 'I' for Inactive)
REMARK    1  A    between atoms: C2_2  and  C3_3 
REMARK    2  A    between atoms: C8_8  and  C9_9 
REMARK    3  A    between atoms: C12_12  and  O1_13 
ROOT
HETATM    1  C9  UNL     1      25.599   3.089  51.153  1.00  0.00     0.070 C 
HETATM    2  C10 UNL     1      24.467   2.573  51.648  1.00  0.00     0.049 C 
HETATM    3  C11 UNL     1      24.376   1.451  52.481  1.00  0.00     0.031 A 
HETATM    4  C12 UNL     1      23.203   0.831  52.786  1.00  0.00     0.114 A 
HETATM    5  C14 UNL     1      23.513  -0.318  53.431  1.00  0.00     0.104 A 
HETATM    6  O2  UNL     1      22.494  -1.031  53.808  1.00  0.00    -0.353 OA
HETATM    7  C15 UNL     1      21.478  -1.741  54.184  1.00  0.00     0.210 C 
HETATM    8  C16 UNL     1      24.801  -0.622  53.649  1.00  0.00     0.072 A 
HETATM    9  C17 UNL     1      25.427   0.506  53.028  1.00  0.00     0.074 A 
HETATM   10  N1  UNL     1      26.783   0.750  52.897  1.00  0.00    -0.241 NA
HETATM   11  C18 UNL     1      27.373   1.826  52.373  1.00  0.00     0.234 C 
HETATM   12  N2  UNL     1      26.859   2.659  51.464  1.00  0.00    -0.241 NA
ENDROOT
BRANCH   4  13
HETATM   13  O1  UNL     1      21.885   1.289  52.491  1.00  0.00    -0.352 OA
HETATM   14  C13 UNL     1      21.432   0.745  51.229  1.00  0.00     0.210 C 
ENDBRANCH   4  13
BRANCH   1  15
HETATM   15  C8  UNL     1      25.817   4.111  50.104  1.00  0.00    -0.001 A 
HETATM   16  C3  UNL     1      25.094   5.220  49.841  1.00  0.00    -0.046 A 
HETATM   17  C4  UNL     1      25.476   6.232  49.019  1.00  0.00     0.008 A 
HETATM   18  C5  UNL     1      26.725   5.907  48.501  1.00  0.00     0.001 A 
HETATM   19  C6  UNL     1      27.623   4.932  48.552  1.00  0.00     0.001 A 
HETATM   20  C7  UNL     1      27.073   3.928  49.492  1.00  0.00     0.014 A 
BRANCH  16  21
HETATM   21  C2  UNL     1      23.715   5.440  50.372  1.00  0.00     0.035 C 
HETATM   22  C1  UNL     1      22.690   4.985  49.363  1.00  0.00     0.010 C 
ENDBRANCH  16  21
ENDBRANCH   1  15
TORSDOF 3
ENDMDL
MODEL 8
REMARK VINA RESULT:      -7.3      3.228      6.227
REMARK  3 active torsions:
REMARK  status: ('A' for Active; 'I' for Inactive)
REMARK    1  A    between atoms: C2_2  and  C3_3 
REMARK    2  A    between atoms: C8_8  and  C9_9 
REMARK    3  A    between atoms: C12_12  and  O1_13 
ROOT
HETATM    1  C9  UNL     1      24.026   0.949  52.160  1.00  0.00     0.070 C 
HETATM    2  C10 UNL     1      23.719   1.944  51.319  1.00  0.00     0.049 C 
HETATM    3  C11 UNL     1      24.638   2.745  50.631  1.00  0.00     0.031 A 
HETATM    4  C12 UNL     1      24.295   3.878  49.957  1.00  0.00     0.114 A 
HETATM    5  C14 UNL     1      25.445   4.496  49.600  1.00  0.00     0.104 A 
HETATM    6  O2  UNL     1      25.293   5.598  48.929  1.00  0.00    -0.353 OA
HETATM    7  C15 UNL     1      25.142   6.697  48.261  1.00  0.00     0.210 C 
HETATM    8  C16 UNL     1      26.620   3.938  49.930  1.00  0.00     0.072 A 
HETATM    9  C17 UNL     1      26.153   2.780  50.631  1.00  0.00     0.074 A 
HETATM   10  N1  UNL     1      26.916   1.808  51.253  1.00  0.00    -0.241 NA
HETATM   11  C18 UNL     1      26.491   0.696  51.856  1.00  0.00     0.234 C 
HETATM   12  N2  UNL     1      25.291   0.492  52.408  1.00  0.00    -0.241 NA
ENDROOT
BRANCH   4  13
HETATM   13  O1  UNL     1      22.978   4.344  49.672  1.00  0.00    -0.352 OA
HETATM   14  C13 UNL     1      22.500   3.780  48.428  1.00  0.00     0.210 C 
ENDBRANCH   4  13
BRANCH   1  15
HETATM   15  C8  UNL     1      23.179   0.187  53.106  1.00  0.00    -0.001 A 
HETATM   16  C3  UNL     1      21.902  -0.225  52.954  1.00  0.00    -0.046 A 
HETATM   17  C4  UNL     1      21.261  -1.114  53.757  1.00  0.00     0.008 A 
HETATM   18  C5  UNL     1      22.150  -1.501  54.753  1.00  0.00     0.001 A 
HETATM   19  C6  UNL     1      23.392  -1.263  55.155  1.00  0.00     0.001 A 
HETATM   20  C7  UNL     1      23.953  -0.302  54.178  1.00  0.00     0.014 A 
BRANCH  16  21
HETATM   21  C2  UNL     1      20.989   0.320  51.905  1.00  0.00     0.035 C 
HETATM   22  C1  UNL     1      20.178   1.462  52.464  1.00  0.00     0.010 C 
ENDBRANCH  16  21
ENDBRANCH   1  15
TORSDOF 3
ENDMDL
MODEL 9
REMARK VINA RESULT:      -7.1      3.741      5.617
REMARK  3 active torsions:
REMARK  status: ('A' for Active; 'I' for Inactive)
REMARK    1  A    between atoms: C2_2  and  C3_3 
REMARK    2  A    between atoms: C8_8  and  C9_9 
REMARK    3  A    between atoms: C12_12  and  O1_13 
ROOT
HETATM    1  C9  UNL     1      25.943   2.579  51.778  1.00  0.00     0.070 C 
HETATM    2  C10 UNL     1      24.771   3.214  51.911  1.00  0.00     0.049 C 
HETATM    3  C11 UNL     1      24.285   4.219  51.064  1.00  0.00     0.031 A 
HETATM    4  C12 UNL     1      23.198   4.985  51.352  1.00  0.00     0.114 A 
HETATM    5  C14 UNL     1      23.148   5.973  50.426  1.00  0.00     0.104 A 
HETATM    6  O2  UNL     1      22.149   6.794  50.551  1.00  0.00    -0.353 OA
HETATM    7  C15 UNL     1      21.154   7.614  50.674  1.00  0.00     0.210 C 
HETATM    8  C16 UNL     1      24.083   6.020  49.466  1.00  0.00     0.072 A 
HETATM    9  C17 UNL     1      24.879   4.891  49.843  1.00  0.00     0.074 A 
HETATM   10  N1  UNL     1      26.037   4.437  49.237  1.00  0.00    -0.241 NA
HETATM   11  C18 UNL     1      26.750   3.352  49.546  1.00  0.00     0.234 C 
HETATM   12  N2  UNL     1      26.810   2.743  50.734  1.00  0.00    -0.241 NA
ENDROOT
BRANCH   4  13
HETATM   13  O1  UNL     1      22.273   4.802  52.422  1.00  0.00    -0.352 OA
HETATM   14  C13 UNL     1      21.207   3.910  52.022  1.00  0.00     0.210 C 
ENDBRANCH   4  13
BRANCH   1  15
HETATM   15  C8  UNL     1      26.664   1.679  52.705  1.00  0.00    -0.001 A 
HETATM   16  C3  UNL     1      26.386   0.398  53.028  1.00  0.00    -0.046 A 
HETATM   17  C4  UNL     1      27.214  -0.442  53.703  1.00  0.00     0.008 A 
HETATM   18  C5  UNL     1      28.375   0.262  54.004  1.00  0.00     0.001 A 
HETATM   19  C6  UNL     1      28.898   1.472  53.850  1.00  0.00     0.001 A 
HETATM   20  C7  UNL     1      27.894   2.250  53.089  1.00  0.00     0.014 A 
BRANCH  16  21
HETATM   21  C2  UNL     1      25.069  -0.247  52.744  1.00  0.00     0.035 C 
HETATM   22  C1  UNL     1      24.343  -0.536  54.034  1.00  0.00     0.010 C 
ENDBRANCH  16  21
ENDBRANCH   1  15
TORSDOF 3
ENDMDL
