MODEL 1
REMARK VINA RESULT:      -7.6      0.000      0.000
REMARK  2 active torsions:
REMARK  status: ('A' for Active; 'I' for Inactive)
REMARK    1  A    between atoms: C11_16  and  C12_17 
REMARK    2  A    between atoms: C13_19  and  O3_20 
ROOT
HETATM    1  C1  UNL     1      25.415   2.217  53.135  1.00  0.00     0.161 C 
HETATM    2  N1  UNL     1      24.001   2.276  52.855  1.00  0.00    -0.301 N 
HETATM    3  C2  UNL     1      23.395   1.086  52.902  1.00  0.00     0.255 A 
HETATM    4  O1  UNL     1      23.752  -0.089  53.131  1.00  0.00    -0.267 OA
HETATM    5  C3  UNL     1      22.071   1.240  52.627  1.00  0.00     0.015 A 
HETATM    6  C4  UNL     1      21.320   2.394  52.332  1.00  0.00     0.029 A 
HETATM    7  C5  UNL     1      22.008   3.613  52.294  1.00  0.00     0.030 A 
HETATM    8  C6  UNL     1      21.377   4.775  51.922  1.00  0.00     0.151 C 
HETATM    9  N2  UNL     1      22.168   5.878  51.801  1.00  0.00    -0.074 NA
HETATM   10  C7  UNL     1      23.478   5.609  52.083  1.00  0.00     0.724 C 
HETATM   11  N3  UNL     1      24.111   4.454  52.460  1.00  0.00    -0.044 NA
HETATM   12  C8  UNL     1      23.325   3.383  52.573  1.00  0.00     0.163 A 
HETATM   13  N4  UNL     1      24.217   6.792  51.804  1.00  0.00    -0.219 N 
HETATM   14  C9  UNL     1      24.895   6.231  50.668  1.00  0.00     0.166 C 
HETATM   15  C10 UNL     1      24.065   5.771  49.558  1.00  0.00     0.005 C 
HETATM   16  C11 UNL     1      23.665   4.742  48.779  1.00  0.00    -0.003 C 
HETATM   17  C13 UNL     1      23.887   3.296  48.586  1.00  0.00     0.197 C 
HETATM   18  C14 UNL     1      22.682   2.515  48.341  1.00  0.00     0.045 C 
HETATM   19 CL1  UNL     1      22.154   2.768  46.676  1.00  0.00    -0.086 Cl
HETATM   20  C15 UNL     1      21.859   1.714  48.995  1.00  0.00     0.022 C 
HETATM   21  C16 UNL     1      21.405   1.007  50.178  1.00  0.00    -0.002 C 
HETATM   22  C17 UNL     1      20.657   0.213  50.953  1.00  0.00    -0.022 C 
HETATM   23  C18 UNL     1      21.099   0.098  52.410  1.00  0.00     0.071 C 
HETATM   24  H6  UNL     1      24.231   7.730  52.288  1.00  0.00     0.178 HD
ENDROOT
BRANCH  16  25
HETATM   25  C12 UNL     1      22.684   5.045  47.709  1.00  0.00     0.387 C 
HETATM   26  O2  UNL     1      21.912   5.593  46.899  1.00  0.00    -0.405 OA
ENDBRANCH  16  25
BRANCH  17  27
HETATM   27  O3  UNL     1      24.608   2.806  49.694  1.00  0.00    -0.385 OA
HETATM   28  H12 UNL     1      24.141   3.038  50.529  1.00  0.00     0.210 HD
ENDBRANCH  17  27
TORSDOF 2
ENDMDL
MODEL 2
REMARK VINA RESULT:      -7.5      2.141      2.967
REMARK  2 active torsions:
REMARK  status: ('A' for Active; 'I' for Inactive)
REMARK    1  A    between atoms: C11_16  and  C12_17 
REMARK    2  A    between atoms: C13_19  and  O3_20 
ROOT
HETATM    1  C1  UNL     1      26.417   3.282  49.623  1.00  0.00     0.161 C 
HETATM    2  N1  UNL     1      25.578   3.122  50.785  1.00  0.00    -0.301 N 
HETATM    3  C2  UNL     1      25.855   2.027  51.500  1.00  0.00     0.255 A 
HETATM    4  O1  UNL     1      26.673   1.088  51.413  1.00  0.00    -0.267 OA
HETATM    5  C3  UNL     1      25.018   1.962  52.571  1.00  0.00     0.015 A 
HETATM    6  C4  UNL     1      23.991   2.829  52.992  1.00  0.00     0.029 A 
HETATM    7  C5  UNL     1      23.744   3.960  52.203  1.00  0.00     0.030 A 
HETATM    8  C6  UNL     1      22.702   4.808  52.483  1.00  0.00     0.151 C 
HETATM    9  N2  UNL     1      22.478   5.806  51.581  1.00  0.00    -0.074 NA
HETATM   10  C7  UNL     1      23.362   5.769  50.539  1.00  0.00     0.724 C 
HETATM   11  N3  UNL     1      24.407   4.928  50.259  1.00  0.00    -0.044 NA
HETATM   12  C8  UNL     1      24.612   3.957  51.149  1.00  0.00     0.163 A 
HETATM   13  N4  UNL     1      22.956   6.767  49.612  1.00  0.00    -0.219 N 
HETATM   14  C9  UNL     1      22.548   5.824  48.608  1.00  0.00     0.166 C 
HETATM   15  C10 UNL     1      21.491   4.882  48.971  1.00  0.00     0.005 C 
HETATM   16  C11 UNL     1      21.118   3.596  49.147  1.00  0.00    -0.003 C 
HETATM   17  C13 UNL     1      21.649   2.223  49.045  1.00  0.00     0.197 C 
HETATM   18  C14 UNL     1      21.271   1.334  50.136  1.00  0.00     0.045 C 
HETATM   19 CL1  UNL     1      19.598   0.820  49.913  1.00  0.00    -0.086 Cl
HETATM   20  C15 UNL     1      21.789   0.833  51.244  1.00  0.00     0.022 C 
HETATM   21  C16 UNL     1      22.851   0.667  52.219  1.00  0.00    -0.002 C 
HETATM   22  C17 UNL     1      23.496   0.230  53.306  1.00  0.00    -0.022 C 
HETATM   23  C18 UNL     1      24.908   0.775  53.507  1.00  0.00     0.071 C 
HETATM   24  H6  UNL     1      22.967   7.821  49.679  1.00  0.00     0.178 HD
ENDROOT
BRANCH  16  25
HETATM   25  C12 UNL     1      19.717   3.349  49.568  1.00  0.00     0.387 C 
HETATM   26  O2  UNL     1      18.516   3.450  49.883  1.00  0.00    -0.405 OA
ENDBRANCH  16  25
BRANCH  17  27
HETATM   27  O3  UNL     1      23.049   2.299  48.897  1.00  0.00    -0.385 OA
HETATM   28  H12 UNL     1      23.485   1.624  49.466  1.00  0.00     0.210 HD
ENDBRANCH  17  27
TORSDOF 2
ENDMDL
MODEL 3
REMARK VINA RESULT:      -7.2      8.290     10.733
REMARK  2 active torsions:
REMARK  status: ('A' for Active; 'I' for Inactive)
REMARK    1  A    between atoms: C11_16  and  C12_17 
REMARK    2  A    between atoms: C13_19  and  O3_20 
ROOT
HETATM    1  C1  UNL     1      30.542  10.747  49.330  1.00  0.00     0.161 C 
HETATM    2  N1  UNL     1      29.963   9.773  48.439  1.00  0.00    -0.301 N 
HETATM    3  C2  UNL     1      28.881   9.167  48.936  1.00  0.00     0.255 A 
HETATM    4  O1  UNL     1      28.232   9.232  50.002  1.00  0.00    -0.267 OA
HETATM    5  C3  UNL     1      28.406   8.271  48.029  1.00  0.00     0.015 A 
HETATM    6  C4  UNL     1      28.863   7.933  46.741  1.00  0.00     0.029 A 
HETATM    7  C5  UNL     1      30.003   8.599  46.272  1.00  0.00     0.030 A 
HETATM    8  C6  UNL     1      30.575   8.267  45.069  1.00  0.00     0.151 C 
HETATM    9  N2  UNL     1      31.749   8.891  44.767  1.00  0.00    -0.074 NA
HETATM   10  C7  UNL     1      32.143   9.755  45.751  1.00  0.00     0.724 C 
HETATM   11  N3  UNL     1      31.572  10.094  46.949  1.00  0.00    -0.044 NA
HETATM   12  C8  UNL     1      30.426   9.474  47.231  1.00  0.00     0.163 A 
HETATM   13  N4  UNL     1      33.427  10.246  45.386  1.00  0.00    -0.219 N 
HETATM   14  C9  UNL     1      34.111   9.560  46.446  1.00  0.00     0.166 C 
HETATM   15  C10 UNL     1      34.014   8.102  46.466  1.00  0.00     0.005 C 
HETATM   16  C11 UNL     1      33.617   6.993  47.126  1.00  0.00    -0.003 C 
HETATM   17  C13 UNL     1      32.972   6.576  48.387  1.00  0.00     0.197 C 
HETATM   18  C14 UNL     1      31.977   5.521  48.250  1.00  0.00     0.045 C 
HETATM   19 CL1  UNL     1      32.797   3.974  48.032  1.00  0.00    -0.086 Cl
HETATM   20  C15 UNL     1      30.663   5.384  48.207  1.00  0.00     0.022 C 
HETATM   21  C16 UNL     1      29.305   5.894  48.231  1.00  0.00    -0.002 C 
HETATM   22  C17 UNL     1      27.967   5.897  48.207  1.00  0.00    -0.022 C 
HETATM   23  C18 UNL     1      27.303   7.269  48.306  1.00  0.00     0.071 C 
HETATM   24  H6  UNL     1      33.726  10.888  44.602  1.00  0.00     0.178 HD
ENDROOT
BRANCH  16  25
HETATM   25  C12 UNL     1      33.877   5.687  46.472  1.00  0.00     0.387 C 
HETATM   26  O2  UNL     1      34.259   4.766  45.725  1.00  0.00    -0.405 OA
ENDBRANCH  16  25
BRANCH  17  27
HETATM   27  O3  UNL     1      32.434   7.721  49.009  1.00  0.00    -0.385 OA
HETATM   28  H12 UNL     1      31.520   7.885  48.681  1.00  0.00     0.210 HD
ENDBRANCH  17  27
TORSDOF 2
ENDMDL
MODEL 4
REMARK VINA RESULT:      -7.2      3.177      4.645
REMARK  2 active torsions:
REMARK  status: ('A' for Active; 'I' for Inactive)
REMARK    1  A    between atoms: C11_16  and  C12_17 
REMARK    2  A    between atoms: C13_19  and  O3_20 
ROOT
HETATM    1  C1  UNL     1      17.901   1.254  51.587  1.00  0.00     0.161 C 
HETATM    2  N1  UNL     1      19.278   0.939  51.297  1.00  0.00    -0.301 N 
HETATM    3  C2  UNL     1      19.892   0.264  52.274  1.00  0.00     0.255 A 
HETATM    4  O1  UNL     1      19.567  -0.169  53.399  1.00  0.00    -0.267 OA
HETATM    5  C3  UNL     1      21.179   0.012  51.912  1.00  0.00     0.015 A 
HETATM    6  C4  UNL     1      21.886   0.336  50.738  1.00  0.00     0.029 A 
HETATM    7  C5  UNL     1      21.193   1.045  49.748  1.00  0.00     0.030 A 
HETATM    8  C6  UNL     1      21.828   1.485  48.613  1.00  0.00     0.151 C 
HETATM    9  N2  UNL     1      21.091   2.270  47.777  1.00  0.00    -0.074 NA
HETATM   10  C7  UNL     1      19.822   2.472  48.243  1.00  0.00     0.724 C 
HETATM   11  N3  UNL     1      19.183   2.030  49.371  1.00  0.00    -0.044 NA
HETATM   12  C8  UNL     1      19.917   1.266  50.180  1.00  0.00     0.163 A 
HETATM   13  N4  UNL     1      19.196   3.396  47.360  1.00  0.00    -0.219 N 
HETATM   14  C9  UNL     1      19.154   4.458  48.327  1.00  0.00     0.166 C 
HETATM   15  C10 UNL     1      20.431   4.920  48.864  1.00  0.00     0.005 C 
HETATM   16  C11 UNL     1      21.222   5.086  49.946  1.00  0.00    -0.003 C 
HETATM   17  C13 UNL     1      21.230   4.870  51.407  1.00  0.00     0.197 C 
HETATM   18  C14 UNL     1      22.475   4.336  51.943  1.00  0.00     0.045 C 
HETATM   19 CL1  UNL     1      23.677   5.625  52.018  1.00  0.00    -0.086 Cl
HETATM   20  C15 UNL     1      22.975   3.182  52.352  1.00  0.00     0.022 C 
HETATM   21  C16 UNL     1      22.899   1.757  52.616  1.00  0.00    -0.002 C 
HETATM   22  C17 UNL     1      23.276   0.533  53.002  1.00  0.00    -0.022 C 
HETATM   23  C18 UNL     1      22.234  -0.570  52.832  1.00  0.00     0.071 C 
HETATM   24  H6  UNL     1      18.888   3.294  46.355  1.00  0.00     0.178 HD
ENDROOT
BRANCH  16  25
HETATM   25  C12 UNL     1      22.554   5.701  49.723  1.00  0.00     0.387 C 
HETATM   26  O2  UNL     1      23.573   6.232  49.241  1.00  0.00    -0.405 OA
ENDBRANCH  16  25
BRANCH  17  27
HETATM   27  O3  UNL     1      20.129   4.057  51.740  1.00  0.00    -0.385 OA
HETATM   28  H12 UNL     1      19.418   4.157  51.066  1.00  0.00     0.210 HD
ENDBRANCH  17  27
TORSDOF 2
ENDMDL
MODEL 5
REMARK VINA RESULT:      -7.1      2.657      4.802
REMARK  2 active torsions:
REMARK  status: ('A' for Active; 'I' for Inactive)
REMARK    1  A    between atoms: C11_16  and  C12_17 
REMARK    2  A    between atoms: C13_19  and  O3_20 
ROOT
HETATM    1  C1  UNL     1      24.891   1.698  52.907  1.00  0.00     0.161 C 
HETATM    2  N1  UNL     1      24.914   2.203  51.556  1.00  0.00    -0.301 N 
HETATM    3  C2  UNL     1      26.102   2.689  51.185  1.00  0.00     0.255 A 
HETATM    4  O1  UNL     1      27.220   2.821  51.725  1.00  0.00    -0.267 OA
HETATM    5  C3  UNL     1      26.027   3.138  49.903  1.00  0.00     0.015 A 
HETATM    6  C4  UNL     1      24.954   3.149  48.992  1.00  0.00     0.029 A 
HETATM    7  C5  UNL     1      23.732   2.629  49.436  1.00  0.00     0.030 A 
HETATM    8  C6  UNL     1      22.607   2.685  48.650  1.00  0.00     0.151 C 
HETATM    9  N2  UNL     1      21.447   2.261  49.227  1.00  0.00    -0.074 NA
HETATM   10  C7  UNL     1      21.632   1.848  50.517  1.00  0.00     0.724 C 
HETATM   11  N3  UNL     1      22.753   1.785  51.302  1.00  0.00    -0.044 NA
HETATM   12  C8  UNL     1      23.879   2.204  50.725  1.00  0.00     0.163 A 
HETATM   13  N4  UNL     1      20.347   1.552  51.049  1.00  0.00    -0.219 N 
HETATM   14  C9  UNL     1      20.348   2.661  51.962  1.00  0.00     0.166 C 
HETATM   15  C10 UNL     1      20.460   3.998  51.384  1.00  0.00     0.005 C 
HETATM   16  C11 UNL     1      21.164   5.147  51.289  1.00  0.00    -0.003 C 
HETATM   17  C13 UNL     1      22.390   5.787  51.804  1.00  0.00     0.197 C 
HETATM   18  C14 UNL     1      23.170   6.513  50.809  1.00  0.00     0.045 C 
HETATM   19 CL1  UNL     1      22.381   8.052  50.463  1.00  0.00    -0.086 Cl
HETATM   20  C15 UNL     1      24.257   6.348  50.075  1.00  0.00     0.022 C 
HETATM   21  C16 UNL     1      25.408   5.594  49.614  1.00  0.00    -0.002 C 
HETATM   22  C17 UNL     1      26.524   5.301  48.936  1.00  0.00    -0.022 C 
HETATM   23  C18 UNL     1      27.119   3.920  49.200  1.00  0.00     0.071 C 
HETATM   24  H6  UNL     1      19.665   0.778  50.823  1.00  0.00     0.178 HD
ENDROOT
BRANCH  16  25
HETATM   25  C12 UNL     1      20.610   6.210  50.415  1.00  0.00     0.387 C 
HETATM   26  O2  UNL     1      19.903   6.909  49.664  1.00  0.00    -0.405 OA
ENDBRANCH  16  25
BRANCH  17  27
HETATM   27  O3  UNL     1      23.163   4.805  52.454  1.00  0.00    -0.385 OA
HETATM   28  H12 UNL     1      22.758   4.575  53.322  1.00  0.00     0.210 HD
ENDBRANCH  17  27
TORSDOF 2
ENDMDL
MODEL 6
REMARK VINA RESULT:      -7.1      3.158      4.938
REMARK  2 active torsions:
REMARK  status: ('A' for Active; 'I' for Inactive)
REMARK    1  A    between atoms: C11_16  and  C12_17 
REMARK    2  A    between atoms: C13_19  and  O3_20 
ROOT
HETATM    1  C1  UNL     1      22.462   4.533  52.638  1.00  0.00     0.161 C 
HETATM    2  N1  UNL     1      23.079   4.346  51.348  1.00  0.00    -0.301 N 
HETATM    3  C2  UNL     1      24.217   3.646  51.393  1.00  0.00     0.255 A 
HETATM    4  O1  UNL     1      24.895   3.104  52.291  1.00  0.00    -0.267 OA
HETATM    5  C3  UNL     1      24.723   3.521  50.137  1.00  0.00     0.015 A 
HETATM    6  C4  UNL     1      24.241   3.986  48.899  1.00  0.00     0.029 A 
HETATM    7  C5  UNL     1      23.045   4.715  48.911  1.00  0.00     0.030 A 
HETATM    8  C6  UNL     1      22.550   5.288  47.766  1.00  0.00     0.151 C 
HETATM    9  N2  UNL     1      21.447   6.077  47.914  1.00  0.00    -0.074 NA
HETATM   10  C7  UNL     1      21.034   6.147  49.215  1.00  0.00     0.724 C 
HETATM   11  N3  UNL     1      21.520   5.572  50.359  1.00  0.00    -0.044 NA
HETATM   12  C8  UNL     1      22.599   4.806  50.199  1.00  0.00     0.163 A 
HETATM   13  N4  UNL     1      19.966   7.086  49.264  1.00  0.00    -0.219 N 
HETATM   14  C9  UNL     1      20.716   8.064  50.002  1.00  0.00     0.166 C 
HETATM   15  C10 UNL     1      21.934   8.578  49.381  1.00  0.00     0.005 C 
HETATM   16  C11 UNL     1      23.275   8.720  49.441  1.00  0.00    -0.003 C 
HETATM   17  C13 UNL     1      24.426   8.393  50.307  1.00  0.00     0.197 C 
HETATM   18  C14 UNL     1      25.609   7.914  49.603  1.00  0.00     0.045 C 
HETATM   19 CL1  UNL     1      26.427   9.281  48.846  1.00  0.00    -0.086 Cl
HETATM   20  C15 UNL     1      26.222   6.773  49.339  1.00  0.00     0.022 C 
HETATM   21  C16 UNL     1      26.363   5.331  49.407  1.00  0.00    -0.002 C 
HETATM   22  C17 UNL     1      26.882   4.113  49.218  1.00  0.00    -0.022 C 
HETATM   23  C18 UNL     1      26.090   2.951  49.812  1.00  0.00     0.071 C 
HETATM   24  H6  UNL     1      18.984   7.039  48.878  1.00  0.00     0.178 HD
ENDROOT
BRANCH  16  25
HETATM   25  C12 UNL     1      23.930   9.449  48.327  1.00  0.00     0.387 C 
HETATM   26  O2  UNL     1      24.186  10.105  47.300  1.00  0.00    -0.405 OA
ENDBRANCH  16  25
BRANCH  17  27
HETATM   27  O3  UNL     1      23.997   7.475  51.287  1.00  0.00    -0.385 OA
HETATM   28  H12 UNL     1      23.042   7.272  51.163  1.00  0.00     0.210 HD
ENDBRANCH  17  27
TORSDOF 2
ENDMDL
MODEL 7
REMARK VINA RESULT:      -6.9      7.495     10.022
REMARK  2 active torsions:
REMARK  status: ('A' for Active; 'I' for Inactive)
REMARK    1  A    between atoms: C11_16  and  C12_17 
REMARK    2  A    between atoms: C13_19  and  O3_20 
ROOT
HETATM    1  C1  UNL     1      31.493   9.382  44.764  1.00  0.00     0.161 C 
HETATM    2  N1  UNL     1      31.745   8.657  45.985  1.00  0.00    -0.301 N 
HETATM    3  C2  UNL     1      32.315   7.463  45.793  1.00  0.00     0.255 A 
HETATM    4  O1  UNL     1      32.691   6.804  44.802  1.00  0.00    -0.267 OA
HETATM    5  C3  UNL     1      32.514   6.857  46.995  1.00  0.00     0.015 A 
HETATM    6  C4  UNL     1      32.229   7.291  48.304  1.00  0.00     0.029 A 
HETATM    7  C5  UNL     1      31.629   8.549  48.446  1.00  0.00     0.030 A 
HETATM    8  C6  UNL     1      31.229   9.012  49.675  1.00  0.00     0.151 C 
HETATM    9  N2  UNL     1      30.547  10.192  49.681  1.00  0.00    -0.074 NA
HETATM   10  C7  UNL     1      30.389  10.705  48.423  1.00  0.00     0.724 C 
HETATM   11  N3  UNL     1      30.792  10.250  47.196  1.00  0.00    -0.044 NA
HETATM   12  C8  UNL     1      31.456   9.094  47.205  1.00  0.00     0.163 A 
HETATM   13  N4  UNL     1      29.565  11.858  48.544  1.00  0.00    -0.219 N 
HETATM   14  C9  UNL     1      28.445  11.262  47.869  1.00  0.00     0.166 C 
HETATM   15  C10 UNL     1      27.874  10.056  48.466  1.00  0.00     0.005 C 
HETATM   16  C11 UNL     1      27.589   8.742  48.337  1.00  0.00    -0.003 C 
HETATM   17  C13 UNL     1      27.707   7.632  47.371  1.00  0.00     0.197 C 
HETATM   18  C14 UNL     1      28.130   6.361  47.944  1.00  0.00     0.045 C 
HETATM   19 CL1  UNL     1      26.769   5.624  48.791  1.00  0.00    -0.086 Cl
HETATM   20  C15 UNL     1      29.222   5.623  48.044  1.00  0.00     0.022 C 
HETATM   21  C16 UNL     1      30.628   5.350  47.812  1.00  0.00    -0.002 C 
HETATM   22  C17 UNL     1      31.799   4.704  47.836  1.00  0.00    -0.022 C 
HETATM   23  C18 UNL     1      32.970   5.423  47.170  1.00  0.00     0.071 C 
HETATM   24  H6  UNL     1      29.751  12.800  48.982  1.00  0.00     0.178 HD
ENDROOT
BRANCH  16  25
HETATM   25  C12 UNL     1      26.913   8.081  49.480  1.00  0.00     0.387 C 
HETATM   26  O2  UNL     1      26.184   7.792  50.448  1.00  0.00    -0.405 OA
ENDBRANCH  16  25
BRANCH  17  27
HETATM   27  O3  UNL     1      28.560   8.041  46.327  1.00  0.00    -0.385 OA
HETATM   28  H12 UNL     1      29.009   7.260  45.932  1.00  0.00     0.210 HD
ENDBRANCH  17  27
TORSDOF 2
ENDMDL
MODEL 8
REMARK VINA RESULT:      -6.8      2.186      2.884
REMARK  2 active torsions:
REMARK  status: ('A' for Active; 'I' for Inactive)
REMARK    1  A    between atoms: C11_16  and  C12_17 
REMARK    2  A    between atoms: C13_19  and  O3_20 
ROOT
HETATM    1  C1  UNL     1      21.684  -0.179  52.158  1.00  0.00     0.161 C 
HETATM    2  N1  UNL     1      21.066   1.122  52.096  1.00  0.00    -0.301 N 
HETATM    3  C2  UNL     1      19.768   1.086  51.777  1.00  0.00     0.255 A 
HETATM    4  O1  UNL     1      18.940   0.190  51.512  1.00  0.00    -0.267 OA
HETATM    5  C3  UNL     1      19.274   2.353  51.744  1.00  0.00     0.015 A 
HETATM    6  C4  UNL     1      19.897   3.592  51.989  1.00  0.00     0.029 A 
HETATM    7  C5  UNL     1      21.259   3.570  52.317  1.00  0.00     0.030 A 
HETATM    8  C6  UNL     1      21.971   4.733  52.479  1.00  0.00     0.151 C 
HETATM    9  N2  UNL     1      23.313   4.596  52.675  1.00  0.00    -0.074 NA
HETATM   10  C7  UNL     1      23.704   3.286  52.674  1.00  0.00     0.724 C 
HETATM   11  N3  UNL     1      22.997   2.123  52.519  1.00  0.00    -0.044 NA
HETATM   12  C8  UNL     1      21.687   2.273  52.326  1.00  0.00     0.163 A 
HETATM   13  N4  UNL     1      25.124   3.275  52.760  1.00  0.00    -0.219 N 
HETATM   14  C9  UNL     1      25.310   2.783  51.424  1.00  0.00     0.166 C 
HETATM   15  C10 UNL     1      24.786   3.602  50.334  1.00  0.00     0.005 C 
HETATM   16  C11 UNL     1      23.938   3.706  49.288  1.00  0.00    -0.003 C 
HETATM   17  C13 UNL     1      22.925   2.925  48.550  1.00  0.00     0.197 C 
HETATM   18  C14 UNL     1      21.723   3.664  48.187  1.00  0.00     0.045 C 
HETATM   19 CL1  UNL     1      22.078   4.710  46.810  1.00  0.00    -0.086 Cl
HETATM   20  C15 UNL     1      20.475   3.808  48.596  1.00  0.00     0.022 C 
HETATM   21  C16 UNL     1      19.361   3.528  49.483  1.00  0.00    -0.002 C 
HETATM   22  C17 UNL     1      18.127   3.576  49.998  1.00  0.00    -0.022 C 
HETATM   23  C18 UNL     1      17.892   2.726  51.245  1.00  0.00     0.071 C 
HETATM   24  H6  UNL     1      25.772   3.543  53.550  1.00  0.00     0.178 HD
ENDROOT
BRANCH  16  25
HETATM   25  C12 UNL     1      23.946   4.983  48.533  1.00  0.00     0.387 C 
HETATM   26  O2  UNL     1      24.174   6.131  48.106  1.00  0.00    -0.405 OA
ENDBRANCH  16  25
BRANCH  17  27
HETATM   27  O3  UNL     1      22.619   1.773  49.302  1.00  0.00    -0.385 OA
HETATM   28  H12 UNL     1      21.649   1.605  49.283  1.00  0.00     0.210 HD
ENDBRANCH  17  27
TORSDOF 2
ENDMDL
MODEL 9
REMARK VINA RESULT:      -6.7     10.533     11.787
REMARK  2 active torsions:
REMARK  status: ('A' for Active; 'I' for Inactive)
REMARK    1  A    between atoms: C11_16  and  C12_17 
REMARK    2  A    between atoms: C13_19  and  O3_20 
ROOT
HETATM    1  C1  UNL     1      35.582   7.188  48.653  1.00  0.00     0.161 C 
HETATM    2  N1  UNL     1      34.315   6.612  48.276  1.00  0.00    -0.301 N 
HETATM    3  C2  UNL     1      34.319   5.276  48.250  1.00  0.00     0.255 A 
HETATM    4  O1  UNL     1      35.163   4.382  48.472  1.00  0.00    -0.267 OA
HETATM    5  C3  UNL     1      33.088   4.826  47.887  1.00  0.00     0.015 A 
HETATM    6  C4  UNL     1      31.908   5.525  47.570  1.00  0.00     0.029 A 
HETATM    7  C5  UNL     1      31.962   6.924  47.612  1.00  0.00     0.030 A 
HETATM    8  C6  UNL     1      30.888   7.689  47.227  1.00  0.00     0.151 C 
HETATM    9  N2  UNL     1      31.091   9.037  47.190  1.00  0.00    -0.074 NA
HETATM   10  C7  UNL     1      32.364   9.378  47.556  1.00  0.00     0.724 C 
HETATM   11  N3  UNL     1      33.435   8.619  47.947  1.00  0.00    -0.044 NA
HETATM   12  C8  UNL     1      33.222   7.304  47.976  1.00  0.00     0.163 A 
HETATM   13  N4  UNL     1      32.492  10.781  47.361  1.00  0.00    -0.219 N 
HETATM   14  C9  UNL     1      33.407  10.654  46.261  1.00  0.00     0.166 C 
HETATM   15  C10 UNL     1      32.937   9.929  45.083  1.00  0.00     0.005 C 
HETATM   16  C11 UNL     1      33.092   8.876  44.252  1.00  0.00    -0.003 C 
HETATM   17  C13 UNL     1      33.962   7.702  44.038  1.00  0.00     0.197 C 
HETATM   18  C14 UNL     1      33.261   6.473  43.688  1.00  0.00     0.045 C 
HETATM   19 CL1  UNL     1      32.762   6.549  41.998  1.00  0.00    -0.086 Cl
HETATM   20  C15 UNL     1      32.865   5.350  44.262  1.00  0.00     0.022 C 
HETATM   21  C16 UNL     1      32.726   4.450  45.392  1.00  0.00    -0.002 C 
HETATM   22  C17 UNL     1      32.388   3.361  46.092  1.00  0.00    -0.022 C 
HETATM   23  C18 UNL     1      32.758   3.380  47.573  1.00  0.00     0.071 C 
HETATM   24  H6  UNL     1      32.050  11.594  47.869  1.00  0.00     0.178 HD
ENDROOT
BRANCH  16  25
HETATM   25  C12 UNL     1      32.137   8.757  43.124  1.00  0.00     0.387 C 
HETATM   26  O2  UNL     1      31.297   8.962  42.227  1.00  0.00    -0.405 OA
ENDBRANCH  16  25
BRANCH  17  27
HETATM   27  O3  UNL     1      34.770   7.534  45.180  1.00  0.00    -0.385 OA
HETATM   28  H12 UNL     1      34.219   7.590  45.994  1.00  0.00     0.210 HD
ENDBRANCH  17  27
TORSDOF 2
ENDMDL
