MODEL 1
REMARK VINA RESULT:      -7.5      0.000      0.000
REMARK  11 active torsions:
REMARK  status: ('A' for Active; 'I' for Inactive)
REMARK    1  A    between atoms: O1_2  and  C2_3 
REMARK    2  A    between atoms: C7_8  and  C8_9 
REMARK       I    between atoms: C8_9  and  N1_11 
REMARK    3  A    between atoms: C10_13  and  N2_14 
REMARK    4  A    between atoms: C11_15  and  C12_16 
REMARK    5  A    between atoms: C12_16  and  N3_17 
REMARK    6  A    between atoms: N3_17  and  C13_18 
REMARK    7  A    between atoms: C13_18  and  C14_19 
REMARK    8  A    between atoms: C14_19  and  C15_20 
REMARK    9  A    between atoms: C16_21  and  C17_22 
REMARK   10  A    between atoms: C17_22  and  C18_23 
REMARK   11  A    between atoms: C18_23  and  N4_24 
ROOT
HETATM    1  C8  UNL     1      25.793   0.340  53.300  1.00  0.00     0.260 C 
HETATM    2  O2  UNL     1      24.967  -0.109  54.166  1.00  0.00    -0.267 OA
HETATM    3  N1  UNL     1      25.455   1.431  52.450  1.00  0.00    -0.318 N 
HETATM    4  C9  UNL     1      24.150   1.961  52.646  1.00  0.00     0.124 A 
HETATM    5  C10 UNL     1      23.812   2.979  51.840  1.00  0.00     0.050 A 
HETATM    6  C11 UNL     1      24.740   3.490  50.849  1.00  0.00    -0.003 A 
HETATM    7  C19 UNL     1      25.945   2.964  50.713  1.00  0.00     0.005 A 
HETATM    8  C20 UNL     1      26.472   1.854  51.508  1.00  0.00     0.160 A 
ENDROOT
BRANCH   6   9
HETATM    9  C12 UNL     1      24.264   4.645  49.981  1.00  0.00     0.257 C 
BRANCH   9  10
HETATM   10  N3  UNL     1      25.121   5.660  49.873  1.00  0.00    -0.460 NA
BRANCH  10  11
HETATM   11  C13 UNL     1      25.900   6.466  49.735  1.00  0.00     0.151 C 
BRANCH  11  12
HETATM   12  C14 UNL     1      26.610   6.406  48.428  1.00  0.00     0.085 C 
BRANCH  12  13
HETATM   13  C15 UNL     1      27.638   5.349  48.534  1.00  0.00    -0.025 C 
HETATM   14  C16 UNL     1      28.905   5.525  48.217  1.00  0.00    -0.029 C 
BRANCH  14  15
HETATM   15  C17 UNL     1      29.685   6.680  47.707  1.00  0.00     0.056 C 
BRANCH  15  16
HETATM   16  C18 UNL     1      30.582   7.243  48.776  1.00  0.00     0.270 C 
BRANCH  16  17
HETATM   17  N4  UNL     1      29.925   8.347  49.411  1.00  0.00     0.078 N 
HETATM   18  H22 UNL     1      29.610   9.063  48.692  1.00  0.00     0.312 HD
HETATM   19  H23 UNL     1      29.013   7.956  49.796  1.00  0.00     0.312 HD
ENDBRANCH  16  17
ENDBRANCH  15  16
ENDBRANCH  14  15
ENDBRANCH  12  13
ENDBRANCH  11  12
ENDBRANCH  10  11
ENDBRANCH   9  10
ENDBRANCH   6   9
BRANCH   5  20
HETATM   20  N2  UNL     1      22.542   3.552  51.974  1.00  0.00    -0.397 N 
HETATM   21  H9  UNL     1      22.401   4.245  52.767  1.00  0.00     0.156 HD
HETATM   22  H10 UNL     1      21.686   3.408  51.404  1.00  0.00     0.156 HD
ENDBRANCH   5  20
BRANCH   1  23
HETATM   23  C7  UNL     1      27.036  -0.412  53.344  1.00  0.00     0.065 A 
HETATM   24  C2  UNL     1      28.259  -0.077  53.886  1.00  0.00     0.084 A 
HETATM   25  C3  UNL     1      29.288  -0.993  53.786  1.00  0.00     0.038 A 
HETATM   26  C4  UNL     1      29.135  -2.217  53.169  1.00  0.00     0.003 A 
HETATM   27  C5  UNL     1      27.918  -2.560  52.624  1.00  0.00     0.001 A 
HETATM   28  C6  UNL     1      26.864  -1.647  52.715  1.00  0.00     0.020 A 
BRANCH  24  29
HETATM   29  O1  UNL     1      28.276   1.160  54.467  1.00  0.00    -0.355 OA
HETATM   30  C1  UNL     1      28.950   2.290  53.960  1.00  0.00     0.210 C 
ENDBRANCH  24  29
ENDBRANCH   1  23
TORSDOF 11
ENDMDL
MODEL 2
REMARK VINA RESULT:      -7.2      2.754      4.863
REMARK  11 active torsions:
REMARK  status: ('A' for Active; 'I' for Inactive)
REMARK    1  A    between atoms: O1_2  and  C2_3 
REMARK    2  A    between atoms: C7_8  and  C8_9 
REMARK       I    between atoms: C8_9  and  N1_11 
REMARK    3  A    between atoms: C10_13  and  N2_14 
REMARK    4  A    between atoms: C11_15  and  C12_16 
REMARK    5  A    between atoms: C12_16  and  N3_17 
REMARK    6  A    between atoms: N3_17  and  C13_18 
REMARK    7  A    between atoms: C13_18  and  C14_19 
REMARK    8  A    between atoms: C14_19  and  C15_20 
REMARK    9  A    between atoms: C16_21  and  C17_22 
REMARK   10  A    between atoms: C17_22  and  C18_23 
REMARK   11  A    between atoms: C18_23  and  N4_24 
ROOT
HETATM    1  C8  UNL     1      26.057   0.459  53.449  1.00  0.00     0.260 C 
HETATM    2  O2  UNL     1      25.292   0.137  54.420  1.00  0.00    -0.267 OA
HETATM    3  N1  UNL     1      25.690   1.476  52.522  1.00  0.00    -0.318 N 
HETATM    4  C9  UNL     1      24.427   2.083  52.769  1.00  0.00     0.124 A 
HETATM    5  C10 UNL     1      24.061   3.031  51.893  1.00  0.00     0.050 A 
HETATM    6  C11 UNL     1      24.919   3.399  50.783  1.00  0.00    -0.003 A 
HETATM    7  C19 UNL     1      26.087   2.806  50.604  1.00  0.00     0.005 A 
HETATM    8  C20 UNL     1      26.638   1.756  51.462  1.00  0.00     0.160 A 
ENDROOT
BRANCH   6   9
HETATM    9  C12 UNL     1      24.415   4.483  49.844  1.00  0.00     0.257 C 
BRANCH   9  10
HETATM   10  N3  UNL     1      23.486   4.088  48.973  1.00  0.00    -0.460 NA
BRANCH  10  11
HETATM   11  C13 UNL     1      22.639   3.762  48.299  1.00  0.00     0.151 C 
BRANCH  11  12
HETATM   12  C14 UNL     1      22.620   2.301  48.015  1.00  0.00     0.085 C 
BRANCH  12  13
HETATM   13  C15 UNL     1      21.235   1.830  48.226  1.00  0.00    -0.025 C 
HETATM   14  C16 UNL     1      20.843   1.159  49.291  1.00  0.00    -0.029 C 
BRANCH  14  15
HETATM   15  C17 UNL     1      21.532   0.685  50.516  1.00  0.00     0.056 C 
BRANCH  15  16
HETATM   16  C18 UNL     1      20.545   0.383  51.611  1.00  0.00     0.270 C 
BRANCH  16  17
HETATM   17  N4  UNL     1      21.197   0.504  52.881  1.00  0.00     0.078 N 
HETATM   18  H22 UNL     1      22.236   0.689  52.755  1.00  0.00     0.312 HD
HETATM   19  H23 UNL     1      20.829   1.407  53.309  1.00  0.00     0.312 HD
ENDBRANCH  16  17
ENDBRANCH  15  16
ENDBRANCH  14  15
ENDBRANCH  12  13
ENDBRANCH  11  12
ENDBRANCH  10  11
ENDBRANCH   9  10
ENDBRANCH   6   9
BRANCH   5  20
HETATM   20  N2  UNL     1      22.830   3.674  52.071  1.00  0.00    -0.397 N 
HETATM   21  H9  UNL     1      21.961   3.164  51.731  1.00  0.00     0.156 HD
HETATM   22  H10 UNL     1      22.619   4.598  52.495  1.00  0.00     0.156 HD
ENDBRANCH   5  20
BRANCH   1  23
HETATM   23  C7  UNL     1      27.270  -0.342  53.468  1.00  0.00     0.065 A 
HETATM   24  C2  UNL     1      28.513  -0.061  53.994  1.00  0.00     0.084 A 
HETATM   25  C3  UNL     1      29.503  -1.017  53.871  1.00  0.00     0.038 A 
HETATM   26  C4  UNL     1      29.292  -2.228  53.245  1.00  0.00     0.003 A 
HETATM   27  C5  UNL     1      28.055  -2.517  52.716  1.00  0.00     0.001 A 
HETATM   28  C6  UNL     1      27.040  -1.563  52.830  1.00  0.00     0.020 A 
BRANCH  24  29
HETATM   29  O1  UNL     1      28.587   1.169  54.586  1.00  0.00    -0.355 OA
HETATM   30  C1  UNL     1      29.103   2.334  53.982  1.00  0.00     0.210 C 
ENDBRANCH  24  29
ENDBRANCH   1  23
TORSDOF 11
ENDMDL
MODEL 3
REMARK VINA RESULT:      -7.2      1.384      2.124
REMARK  11 active torsions:
REMARK  status: ('A' for Active; 'I' for Inactive)
REMARK    1  A    between atoms: O1_2  and  C2_3 
REMARK    2  A    between atoms: C7_8  and  C8_9 
REMARK       I    between atoms: C8_9  and  N1_11 
REMARK    3  A    between atoms: C10_13  and  N2_14 
REMARK    4  A    between atoms: C11_15  and  C12_16 
REMARK    5  A    between atoms: C12_16  and  N3_17 
REMARK    6  A    between atoms: N3_17  and  C13_18 
REMARK    7  A    between atoms: C13_18  and  C14_19 
REMARK    8  A    between atoms: C14_19  and  C15_20 
REMARK    9  A    between atoms: C16_21  and  C17_22 
REMARK   10  A    between atoms: C17_22  and  C18_23 
REMARK   11  A    between atoms: C18_23  and  N4_24 
ROOT
HETATM    1  C8  UNL     1      25.918  -0.089  53.611  1.00  0.00     0.260 C 
HETATM    2  O2  UNL     1      25.291  -0.618  54.589  1.00  0.00    -0.267 OA
HETATM    3  N1  UNL     1      25.286   0.845  52.742  1.00  0.00    -0.318 N 
HETATM    4  C9  UNL     1      23.927   1.126  53.054  1.00  0.00     0.124 A 
HETATM    5  C10 UNL     1      23.313   1.993  52.233  1.00  0.00     0.050 A 
HETATM    6  C11 UNL     1      24.016   2.593  51.115  1.00  0.00    -0.003 A 
HETATM    7  C19 UNL     1      25.283   2.301  50.874  1.00  0.00     0.005 A 
HETATM    8  C20 UNL     1      26.098   1.380  51.668  1.00  0.00     0.160 A 
ENDROOT
BRANCH   6   9
HETATM    9  C12 UNL     1      23.234   3.561  50.241  1.00  0.00     0.257 C 
BRANCH   9  10
HETATM   10  N3  UNL     1      23.007   4.756  50.787  1.00  0.00    -0.460 NA
BRANCH  10  11
HETATM   11  C13 UNL     1      22.731   5.762  51.222  1.00  0.00     0.151 C 
BRANCH  11  12
HETATM   12  C14 UNL     1      23.203   6.921  50.416  1.00  0.00     0.085 C 
BRANCH  12  13
HETATM   13  C15 UNL     1      24.606   7.182  50.800  1.00  0.00    -0.025 C 
HETATM   14  C16 UNL     1      25.646   6.742  50.121  1.00  0.00    -0.029 C 
BRANCH  14  15
HETATM   15  C17 UNL     1      25.798   5.933  48.887  1.00  0.00     0.056 C 
BRANCH  15  16
HETATM   16  C18 UNL     1      27.248   5.657  48.595  1.00  0.00     0.270 C 
BRANCH  16  17
HETATM   17  N4  UNL     1      28.033   6.793  48.981  1.00  0.00     0.078 N 
HETATM   18  H22 UNL     1      29.013   6.495  49.264  1.00  0.00     0.312 HD
HETATM   19  H23 UNL     1      28.185   7.354  48.089  1.00  0.00     0.312 HD
ENDBRANCH  16  17
ENDBRANCH  15  16
ENDBRANCH  14  15
ENDBRANCH  12  13
ENDBRANCH  11  12
ENDBRANCH  10  11
ENDBRANCH   9  10
ENDBRANCH   6   9
BRANCH   5  20
HETATM   20  N2  UNL     1      21.974   2.319  52.476  1.00  0.00    -0.397 N 
HETATM   21  H9  UNL     1      21.233   1.720  52.005  1.00  0.00     0.156 HD
HETATM   22  H10 UNL     1      21.571   3.075  53.063  1.00  0.00     0.156 HD
ENDBRANCH   5  20
BRANCH   1  23
HETATM   23  C7  UNL     1      27.286  -0.581  53.557  1.00  0.00     0.065 A 
HETATM   24  C2  UNL     1      28.464   0.025  53.937  1.00  0.00     0.084 A 
HETATM   25  C3  UNL     1      29.641  -0.680  53.773  1.00  0.00     0.038 A 
HETATM   26  C4  UNL     1      29.676  -1.955  53.249  1.00  0.00     0.003 A 
HETATM   27  C5  UNL     1      28.504  -2.569  52.867  1.00  0.00     0.001 A 
HETATM   28  C6  UNL     1      27.303  -1.871  53.024  1.00  0.00     0.020 A 
BRANCH  24  29
HETATM   29  O1  UNL     1      28.290   1.285  54.439  1.00  0.00    -0.355 OA
HETATM   30  C1  UNL     1      28.701   2.478  53.810  1.00  0.00     0.210 C 
ENDBRANCH  24  29
ENDBRANCH   1  23
TORSDOF 11
ENDMDL
MODEL 4
REMARK VINA RESULT:      -6.8      3.097      5.297
REMARK  11 active torsions:
REMARK  status: ('A' for Active; 'I' for Inactive)
REMARK    1  A    between atoms: O1_2  and  C2_3 
REMARK    2  A    between atoms: C7_8  and  C8_9 
REMARK       I    between atoms: C8_9  and  N1_11 
REMARK    3  A    between atoms: C10_13  and  N2_14 
REMARK    4  A    between atoms: C11_15  and  C12_16 
REMARK    5  A    between atoms: C12_16  and  N3_17 
REMARK    6  A    between atoms: N3_17  and  C13_18 
REMARK    7  A    between atoms: C13_18  and  C14_19 
REMARK    8  A    between atoms: C14_19  and  C15_20 
REMARK    9  A    between atoms: C16_21  and  C17_22 
REMARK   10  A    between atoms: C17_22  and  C18_23 
REMARK   11  A    between atoms: C18_23  and  N4_24 
ROOT
HETATM    1  C8  UNL     1      26.608   1.345  53.790  1.00  0.00     0.260 C 
HETATM    2  O2  UNL     1      26.198   1.380  54.999  1.00  0.00    -0.267 OA
HETATM    3  N1  UNL     1      25.935   2.058  52.758  1.00  0.00    -0.318 N 
HETATM    4  C9  UNL     1      24.792   2.790  53.184  1.00  0.00     0.124 A 
HETATM    5  C10 UNL     1      24.138   3.453  52.218  1.00  0.00     0.050 A 
HETATM    6  C11 UNL     1      24.592   3.415  50.841  1.00  0.00    -0.003 A 
HETATM    7  C19 UNL     1      25.665   2.722  50.500  1.00  0.00     0.005 A 
HETATM    8  C20 UNL     1      26.493   1.945  51.425  1.00  0.00     0.160 A 
ENDROOT
BRANCH   6   9
HETATM    9  C12 UNL     1      23.782   4.197  49.819  1.00  0.00     0.257 C 
BRANCH   9  10
HETATM   10  N3  UNL     1      22.610   3.653  49.492  1.00  0.00    -0.460 NA
BRANCH  10  11
HETATM   11  C13 UNL     1      21.659   3.147  49.150  1.00  0.00     0.151 C 
BRANCH  11  12
HETATM   12  C14 UNL     1      21.002   2.319  50.199  1.00  0.00     0.085 C 
BRANCH  12  13
HETATM   13  C15 UNL     1      21.801   1.084  50.348  1.00  0.00    -0.025 C 
HETATM   14  C16 UNL     1      21.992   0.470  51.498  1.00  0.00    -0.029 C 
BRANCH  14  15
HETATM   15  C17 UNL     1      21.548   0.734  52.889  1.00  0.00     0.056 C 
BRANCH  15  16
HETATM   16  C18 UNL     1      22.454   0.061  53.884  1.00  0.00     0.270 C 
BRANCH  16  17
HETATM   17  N4  UNL     1      23.524  -0.589  53.185  1.00  0.00     0.078 N 
HETATM   18  H22 UNL     1      24.467  -0.267  53.555  1.00  0.00     0.312 HD
HETATM   19  H23 UNL     1      23.475  -1.613  53.472  1.00  0.00     0.312 HD
ENDBRANCH  16  17
ENDBRANCH  15  16
ENDBRANCH  14  15
ENDBRANCH  12  13
ENDBRANCH  11  12
ENDBRANCH  10  11
ENDBRANCH   9  10
ENDBRANCH   6   9
BRANCH   5  20
HETATM   20  N2  UNL     1      23.002   4.197  52.561  1.00  0.00    -0.397 N 
HETATM   21  H9  UNL     1      22.489   3.920  53.450  1.00  0.00     0.156 HD
HETATM   22  H10 UNL     1      22.565   5.003  52.074  1.00  0.00     0.156 HD
ENDBRANCH   5  20
BRANCH   1  23
HETATM   23  C7  UNL     1      27.794   0.510  53.677  1.00  0.00     0.065 A 
HETATM   24  C2  UNL     1      27.912  -0.828  53.368  1.00  0.00     0.084 A 
HETATM   25  C3  UNL     1      29.180  -1.377  53.330  1.00  0.00     0.038 A 
HETATM   26  C4  UNL     1      30.316  -0.640  53.587  1.00  0.00     0.003 A 
HETATM   27  C5  UNL     1      30.208   0.697  53.897  1.00  0.00     0.001 A 
HETATM   28  C6  UNL     1      28.934   1.271  53.942  1.00  0.00     0.020 A 
BRANCH  24  29
HETATM   29  O1  UNL     1      26.713  -1.440  53.135  1.00  0.00    -0.355 OA
HETATM   30  C1  UNL     1      26.456  -2.365  52.102  1.00  0.00     0.210 C 
ENDBRANCH  24  29
ENDBRANCH   1  23
TORSDOF 11
ENDMDL
MODEL 5
REMARK VINA RESULT:      -6.8      3.004      4.633
REMARK  11 active torsions:
REMARK  status: ('A' for Active; 'I' for Inactive)
REMARK    1  A    between atoms: O1_2  and  C2_3 
REMARK    2  A    between atoms: C7_8  and  C8_9 
REMARK       I    between atoms: C8_9  and  N1_11 
REMARK    3  A    between atoms: C10_13  and  N2_14 
REMARK    4  A    between atoms: C11_15  and  C12_16 
REMARK    5  A    between atoms: C12_16  and  N3_17 
REMARK    6  A    between atoms: N3_17  and  C13_18 
REMARK    7  A    between atoms: C13_18  and  C14_19 
REMARK    8  A    between atoms: C14_19  and  C15_20 
REMARK    9  A    between atoms: C16_21  and  C17_22 
REMARK   10  A    between atoms: C17_22  and  C18_23 
REMARK   11  A    between atoms: C18_23  and  N4_24 
ROOT
HETATM    1  C8  UNL     1      25.640  -0.174  54.206  1.00  0.00     0.260 C 
HETATM    2  O2  UNL     1      25.543  -0.878  55.268  1.00  0.00    -0.267 OA
HETATM    3  N1  UNL     1      24.494   0.153  53.427  1.00  0.00    -0.318 N 
HETATM    4  C9  UNL     1      23.265  -0.363  53.923  1.00  0.00     0.124 A 
HETATM    5  C10 UNL     1      22.179  -0.076  53.189  1.00  0.00     0.050 A 
HETATM    6  C11 UNL     1      22.280   0.717  51.978  1.00  0.00    -0.003 A 
HETATM    7  C19 UNL     1      23.448   1.177  51.565  1.00  0.00     0.005 A 
HETATM    8  C20 UNL     1      24.727   0.958  52.244  1.00  0.00     0.160 A 
ENDROOT
BRANCH   6   9
HETATM    9  C12 UNL     1      20.993   0.986  51.215  1.00  0.00     0.257 C 
BRANCH   9  10
HETATM   10  N3  UNL     1      20.423   2.164  51.468  1.00  0.00    -0.460 NA
BRANCH  10  11
HETATM   11  C13 UNL     1      19.970   3.156  51.766  1.00  0.00     0.151 C 
BRANCH  11  12
HETATM   12  C14 UNL     1      20.780   4.337  51.360  1.00  0.00     0.085 C 
BRANCH  12  13
HETATM   13  C15 UNL     1      21.838   4.515  52.376  1.00  0.00    -0.025 C 
HETATM   14  C16 UNL     1      23.097   4.774  52.086  1.00  0.00    -0.029 C 
BRANCH  14  15
HETATM   15  C17 UNL     1      23.840   4.960  50.816  1.00  0.00     0.056 C 
BRANCH  15  16
HETATM   16  C18 UNL     1      24.432   6.341  50.732  1.00  0.00     0.270 C 
BRANCH  16  17
HETATM   17  N4  UNL     1      24.412   6.944  52.032  1.00  0.00     0.078 N 
HETATM   18  H22 UNL     1      25.196   6.558  52.638  1.00  0.00     0.312 HD
HETATM   19  H23 UNL     1      24.685   7.962  51.882  1.00  0.00     0.312 HD
ENDBRANCH  16  17
ENDBRANCH  15  16
ENDBRANCH  14  15
ENDBRANCH  12  13
ENDBRANCH  11  12
ENDBRANCH  10  11
ENDBRANCH   9  10
ENDBRANCH   6   9
BRANCH   5  20
HETATM   20  N2  UNL     1      20.933  -0.550  53.615  1.00  0.00    -0.397 N 
HETATM   21  H9  UNL     1      20.910  -1.123  54.510  1.00  0.00     0.156 HD
HETATM   22  H10 UNL     1      19.995  -0.430  53.186  1.00  0.00     0.156 HD
ENDBRANCH   5  20
BRANCH   1  23
HETATM   23  C7  UNL     1      27.025   0.197  53.965  1.00  0.00     0.065 A 
HETATM   24  C2  UNL     1      28.099  -0.577  53.579  1.00  0.00     0.084 A 
HETATM   25  C3  UNL     1      29.324   0.042  53.421  1.00  0.00     0.038 A 
HETATM   26  C4  UNL     1      29.506   1.393  53.634  1.00  0.00     0.003 A 
HETATM   27  C5  UNL     1      28.440   2.174  54.019  1.00  0.00     0.001 A 
HETATM   28  C6  UNL     1      27.192   1.566  54.186  1.00  0.00     0.020 A 
BRANCH  24  29
HETATM   29  O1  UNL     1      27.783  -1.895  53.403  1.00  0.00    -0.355 OA
HETATM   30  C1  UNL     1      28.700  -2.918  53.086  1.00  0.00     0.210 C 
ENDBRANCH  24  29
ENDBRANCH   1  23
TORSDOF 11
ENDMDL
MODEL 6
REMARK VINA RESULT:      -6.8      2.190      3.709
REMARK  11 active torsions:
REMARK  status: ('A' for Active; 'I' for Inactive)
REMARK    1  A    between atoms: O1_2  and  C2_3 
REMARK    2  A    between atoms: C7_8  and  C8_9 
REMARK       I    between atoms: C8_9  and  N1_11 
REMARK    3  A    between atoms: C10_13  and  N2_14 
REMARK    4  A    between atoms: C11_15  and  C12_16 
REMARK    5  A    between atoms: C12_16  and  N3_17 
REMARK    6  A    between atoms: N3_17  and  C13_18 
REMARK    7  A    between atoms: C13_18  and  C14_19 
REMARK    8  A    between atoms: C14_19  and  C15_20 
REMARK    9  A    between atoms: C16_21  and  C17_22 
REMARK   10  A    between atoms: C17_22  and  C18_23 
REMARK   11  A    between atoms: C18_23  and  N4_24 
ROOT
HETATM    1  C8  UNL     1      22.545   1.395  51.591  1.00  0.00     0.260 C 
HETATM    2  O2  UNL     1      22.042   0.757  50.605  1.00  0.00    -0.267 OA
HETATM    3  N1  UNL     1      22.902   2.769  51.481  1.00  0.00    -0.318 N 
HETATM    4  C9  UNL     1      22.657   3.350  50.206  1.00  0.00     0.124 A 
HETATM    5  C10 UNL     1      23.005   4.640  50.083  1.00  0.00     0.050 A 
HETATM    6  C11 UNL     1      23.583   5.371  51.195  1.00  0.00    -0.003 A 
HETATM    7  C19 UNL     1      23.784   4.782  52.362  1.00  0.00     0.005 A 
HETATM    8  C20 UNL     1      23.463   3.387  52.666  1.00  0.00     0.160 A 
ENDROOT
BRANCH   6   9
HETATM    9  C12 UNL     1      23.946   6.828  50.956  1.00  0.00     0.257 C 
BRANCH   9  10
HETATM   10  N3  UNL     1      25.084   7.024  50.290  1.00  0.00    -0.460 NA
BRANCH  10  11
HETATM   11  C13 UNL     1      26.078   7.114  49.760  1.00  0.00     0.151 C 
BRANCH  11  12
HETATM   12  C14 UNL     1      26.158   6.343  48.490  1.00  0.00     0.085 C 
BRANCH  12  13
HETATM   13  C15 UNL     1      27.195   5.304  48.670  1.00  0.00    -0.025 C 
HETATM   14  C16 UNL     1      28.461   5.469  48.346  1.00  0.00    -0.029 C 
BRANCH  14  15
HETATM   15  C17 UNL     1      29.234   6.592  47.762  1.00  0.00     0.056 C 
BRANCH  15  16
HETATM   16  C18 UNL     1      30.673   6.546  48.199  1.00  0.00     0.270 C 
BRANCH  16  17
HETATM   17  N4  UNL     1      30.741   6.071  49.550  1.00  0.00     0.078 N 
HETATM   18  H22 UNL     1      29.804   6.186  50.038  1.00  0.00     0.312 HD
HETATM   19  H23 UNL     1      30.862   5.016  49.478  1.00  0.00     0.312 HD
ENDBRANCH  16  17
ENDBRANCH  15  16
ENDBRANCH  14  15
ENDBRANCH  12  13
ENDBRANCH  11  12
ENDBRANCH  10  11
ENDBRANCH   9  10
ENDBRANCH   6   9
BRANCH   5  20
HETATM   20  N2  UNL     1      22.793   5.281  48.857  1.00  0.00    -0.397 N 
HETATM   21  H9  UNL     1      23.647   5.469  48.252  1.00  0.00     0.156 HD
HETATM   22  H10 UNL     1      21.909   5.614  48.426  1.00  0.00     0.156 HD
ENDBRANCH   5  20
BRANCH   1  23
HETATM   23  C7  UNL     1      22.673   0.524  52.749  1.00  0.00     0.065 A 
HETATM   24  C2  UNL     1      23.780  -0.120  53.258  1.00  0.00     0.084 A 
HETATM   25  C3  UNL     1      23.617  -0.898  54.389  1.00  0.00     0.038 A 
HETATM   26  C4  UNL     1      22.398  -1.050  55.016  1.00  0.00     0.003 A 
HETATM   27  C5  UNL     1      21.287  -0.410  54.514  1.00  0.00     0.001 A 
HETATM   28  C6  UNL     1      21.432   0.381  53.371  1.00  0.00     0.020 A 
BRANCH  24  29
HETATM   29  O1  UNL     1      24.922   0.113  52.544  1.00  0.00    -0.355 OA
HETATM   30  C1  UNL     1      26.216   0.235  53.091  1.00  0.00     0.210 C 
ENDBRANCH  24  29
ENDBRANCH   1  23
TORSDOF 11
ENDMDL
MODEL 7
REMARK VINA RESULT:      -6.8      3.378      6.708
REMARK  11 active torsions:
REMARK  status: ('A' for Active; 'I' for Inactive)
REMARK    1  A    between atoms: O1_2  and  C2_3 
REMARK    2  A    between atoms: C7_8  and  C8_9 
REMARK       I    between atoms: C8_9  and  N1_11 
REMARK    3  A    between atoms: C10_13  and  N2_14 
REMARK    4  A    between atoms: C11_15  and  C12_16 
REMARK    5  A    between atoms: C12_16  and  N3_17 
REMARK    6  A    between atoms: N3_17  and  C13_18 
REMARK    7  A    between atoms: C13_18  and  C14_19 
REMARK    8  A    between atoms: C14_19  and  C15_20 
REMARK    9  A    between atoms: C16_21  and  C17_22 
REMARK   10  A    between atoms: C17_22  and  C18_23 
REMARK   11  A    between atoms: C18_23  and  N4_24 
ROOT
HETATM    1  C8  UNL     1      26.424   2.129  51.560  1.00  0.00     0.260 C 
HETATM    2  O2  UNL     1      27.027   2.357  50.457  1.00  0.00    -0.267 OA
HETATM    3  N1  UNL     1      25.055   2.476  51.741  1.00  0.00    -0.318 N 
HETATM    4  C9  UNL     1      24.438   3.086  50.614  1.00  0.00     0.124 A 
HETATM    5  C10 UNL     1      23.152   3.434  50.778  1.00  0.00     0.050 A 
HETATM    6  C11 UNL     1      22.460   3.185  52.028  1.00  0.00    -0.003 A 
HETATM    7  C19 UNL     1      23.082   2.609  53.044  1.00  0.00     0.005 A 
HETATM    8  C20 UNL     1      24.478   2.168  53.034  1.00  0.00     0.160 A 
ENDROOT
BRANCH   6   9
HETATM    9  C12 UNL     1      21.006   3.618  52.116  1.00  0.00     0.257 C 
BRANCH   9  10
HETATM   10  N3  UNL     1      20.132   2.773  51.568  1.00  0.00    -0.460 NA
BRANCH  10  11
HETATM   11  C13 UNL     1      19.390   2.015  51.180  1.00  0.00     0.151 C 
BRANCH  11  12
HETATM   12  C14 UNL     1      19.924   0.627  51.107  1.00  0.00     0.085 C 
BRANCH  12  13
HETATM   13  C15 UNL     1      19.177  -0.185  52.090  1.00  0.00    -0.025 C 
HETATM   14  C16 UNL     1      19.536  -0.324  53.350  1.00  0.00    -0.029 C 
BRANCH  14  15
HETATM   15  C17 UNL     1      20.662   0.201  54.160  1.00  0.00     0.056 C 
BRANCH  15  16
HETATM   16  C18 UNL     1      21.888  -0.657  54.004  1.00  0.00     0.270 C 
BRANCH  16  17
HETATM   17  N4  UNL     1      21.610  -1.973  54.500  1.00  0.00     0.078 N 
HETATM   18  H22 UNL     1      22.505  -2.539  54.590  1.00  0.00     0.312 HD
HETATM   19  H23 UNL     1      21.291  -1.840  55.507  1.00  0.00     0.312 HD
ENDBRANCH  16  17
ENDBRANCH  15  16
ENDBRANCH  14  15
ENDBRANCH  12  13
ENDBRANCH  11  12
ENDBRANCH  10  11
ENDBRANCH   9  10
ENDBRANCH   6   9
BRANCH   5  20
HETATM   20  N2  UNL     1      22.477   4.039  49.712  1.00  0.00    -0.397 N 
HETATM   21  H9  UNL     1      22.947   4.012  48.759  1.00  0.00     0.156 HD
HETATM   22  H10 UNL     1      21.560   4.526  49.698  1.00  0.00     0.156 HD
ENDBRANCH   5  20
BRANCH   1  23
HETATM   23  C7  UNL     1      27.325   1.502  52.513  1.00  0.00     0.065 A 
HETATM   24  C2  UNL     1      27.490   0.172  52.836  1.00  0.00     0.084 A 
HETATM   25  C3  UNL     1      28.433  -0.153  53.794  1.00  0.00     0.038 A 
HETATM   26  C4  UNL     1      29.204   0.798  54.428  1.00  0.00     0.003 A 
HETATM   27  C5  UNL     1      29.046   2.129  54.112  1.00  0.00     0.001 A 
HETATM   28  C6  UNL     1      28.097   2.477  53.146  1.00  0.00     0.020 A 
BRANCH  24  29
HETATM   29  O1  UNL     1      26.666  -0.665  52.137  1.00  0.00    -0.355 OA
HETATM   30  C1  UNL     1      26.669  -2.072  52.222  1.00  0.00     0.210 C 
ENDBRANCH  24  29
ENDBRANCH   1  23
TORSDOF 11
ENDMDL
MODEL 8
REMARK VINA RESULT:      -6.7      6.303      8.453
REMARK  11 active torsions:
REMARK  status: ('A' for Active; 'I' for Inactive)
REMARK    1  A    between atoms: O1_2  and  C2_3 
REMARK    2  A    between atoms: C7_8  and  C8_9 
REMARK       I    between atoms: C8_9  and  N1_11 
REMARK    3  A    between atoms: C10_13  and  N2_14 
REMARK    4  A    between atoms: C11_15  and  C12_16 
REMARK    5  A    between atoms: C12_16  and  N3_17 
REMARK    6  A    between atoms: N3_17  and  C13_18 
REMARK    7  A    between atoms: C13_18  and  C14_19 
REMARK    8  A    between atoms: C14_19  and  C15_20 
REMARK    9  A    between atoms: C16_21  and  C17_22 
REMARK   10  A    between atoms: C17_22  and  C18_23 
REMARK   11  A    between atoms: C18_23  and  N4_24 
ROOT
HETATM    1  C8  UNL     1      32.170   5.930  48.893  1.00  0.00     0.260 C 
HETATM    2  O2  UNL     1      31.733   5.445  49.991  1.00  0.00    -0.267 OA
HETATM    3  N1  UNL     1      31.898   7.276  48.517  1.00  0.00    -0.318 N 
HETATM    4  C9  UNL     1      31.114   8.011  49.450  1.00  0.00     0.124 A 
HETATM    5  C10 UNL     1      30.836   9.276  49.100  1.00  0.00     0.050 A 
HETATM    6  C11 UNL     1      31.321   9.834  47.852  1.00  0.00    -0.003 A 
HETATM    7  C19 UNL     1      32.052   9.108  47.024  1.00  0.00     0.005 A 
HETATM    8  C20 UNL     1      32.447   7.716  47.250  1.00  0.00     0.160 A 
ENDROOT
BRANCH   6   9
HETATM    9  C12 UNL     1      30.951  11.276  47.545  1.00  0.00     0.257 C 
BRANCH   9  10
HETATM   10  N3  UNL     1      29.708  11.457  47.098  1.00  0.00    -0.460 NA
BRANCH  10  11
HETATM   11  C13 UNL     1      28.680  11.688  46.689  1.00  0.00     0.151 C 
BRANCH  11  12
HETATM   12  C14 UNL     1      27.871  10.481  46.367  1.00  0.00     0.085 C 
BRANCH  12  13
HETATM   13  C15 UNL     1      27.250  10.018  47.625  1.00  0.00    -0.025 C 
HETATM   14  C16 UNL     1      27.304   8.773  48.054  1.00  0.00    -0.029 C 
BRANCH  14  15
HETATM   15  C17 UNL     1      27.918   7.531  47.525  1.00  0.00     0.056 C 
BRANCH  15  16
HETATM   16  C18 UNL     1      27.485   6.330  48.321  1.00  0.00     0.270 C 
BRANCH  16  17
HETATM   17  N4  UNL     1      28.645   5.645  48.812  1.00  0.00     0.078 N 
HETATM   18  H22 UNL     1      29.533   6.139  48.502  1.00  0.00     0.312 HD
HETATM   19  H23 UNL     1      28.633   5.782  49.868  1.00  0.00     0.312 HD
ENDBRANCH  16  17
ENDBRANCH  15  16
ENDBRANCH  14  15
ENDBRANCH  12  13
ENDBRANCH  11  12
ENDBRANCH  10  11
ENDBRANCH   9  10
ENDBRANCH   6   9
BRANCH   5  20
HETATM   20  N2  UNL     1      30.068  10.062  49.968  1.00  0.00    -0.397 N 
HETATM   21  H9  UNL     1      29.685  10.977  49.586  1.00  0.00     0.156 HD
HETATM   22  H10 UNL     1      29.801   9.891  50.957  1.00  0.00     0.156 HD
ENDBRANCH   5  20
BRANCH   1  23
HETATM   23  C7  UNL     1      32.933   4.931  48.162  1.00  0.00     0.065 A 
HETATM   24  C2  UNL     1      34.284   4.657  48.179  1.00  0.00     0.084 A 
HETATM   25  C3  UNL     1      34.752   3.637  47.372  1.00  0.00     0.038 A 
HETATM   26  C4  UNL     1      33.921   2.893  46.561  1.00  0.00     0.003 A 
HETATM   27  C5  UNL     1      32.571   3.160  46.537  1.00  0.00     0.001 A 
HETATM   28  C6  UNL     1      32.078   4.188  47.345  1.00  0.00     0.020 A 
BRANCH  24  29
HETATM   29  O1  UNL     1      34.992   5.466  49.024  1.00  0.00    -0.355 OA
HETATM   30  C1  UNL     1      35.673   6.642  48.648  1.00  0.00     0.210 C 
ENDBRANCH  24  29
ENDBRANCH   1  23
TORSDOF 11
ENDMDL
MODEL 9
REMARK VINA RESULT:      -6.6      2.583      4.249
REMARK  11 active torsions:
REMARK  status: ('A' for Active; 'I' for Inactive)
REMARK    1  A    between atoms: O1_2  and  C2_3 
REMARK    2  A    between atoms: C7_8  and  C8_9 
REMARK       I    between atoms: C8_9  and  N1_11 
REMARK    3  A    between atoms: C10_13  and  N2_14 
REMARK    4  A    between atoms: C11_15  and  C12_16 
REMARK    5  A    between atoms: C12_16  and  N3_17 
REMARK    6  A    between atoms: N3_17  and  C13_18 
REMARK    7  A    between atoms: C13_18  and  C14_19 
REMARK    8  A    between atoms: C14_19  and  C15_20 
REMARK    9  A    between atoms: C16_21  and  C17_22 
REMARK   10  A    between atoms: C17_22  and  C18_23 
REMARK   11  A    between atoms: C18_23  and  N4_24 
ROOT
HETATM    1  C8  UNL     1      25.876   0.326  53.339  1.00  0.00     0.260 C 
HETATM    2  O2  UNL     1      25.058  -0.116  54.215  1.00  0.00    -0.267 OA
HETATM    3  N1  UNL     1      25.523   1.398  52.470  1.00  0.00    -0.318 N 
HETATM    4  C9  UNL     1      24.212   1.915  52.660  1.00  0.00     0.124 A 
HETATM    5  C10 UNL     1      23.860   2.914  51.836  1.00  0.00     0.050 A 
HETATM    6  C11 UNL     1      24.778   3.419  50.834  1.00  0.00    -0.003 A 
HETATM    7  C19 UNL     1      25.990   2.905  50.704  1.00  0.00     0.005 A 
HETATM    8  C20 UNL     1      26.532   1.815  51.518  1.00  0.00     0.160 A 
ENDROOT
BRANCH   6   9
HETATM    9  C12 UNL     1      24.286   4.551  49.947  1.00  0.00     0.257 C 
BRANCH   9  10
HETATM   10  N3  UNL     1      24.218   5.743  50.539  1.00  0.00    -0.460 NA
BRANCH  10  11
HETATM   11  C13 UNL     1      24.199   6.717  51.112  1.00  0.00     0.151 C 
BRANCH  11  12
HETATM   12  C14 UNL     1      23.305   7.750  50.522  1.00  0.00     0.085 C 
BRANCH  12  13
HETATM   13  C15 UNL     1      21.913   7.336  50.796  1.00  0.00    -0.025 C 
HETATM   14  C16 UNL     1      20.893   7.630  50.015  1.00  0.00    -0.029 C 
BRANCH  14  15
HETATM   15  C17 UNL     1      20.758   8.378  48.741  1.00  0.00     0.056 C 
BRANCH  15  16
HETATM   16  C18 UNL     1      19.553   9.278  48.767  1.00  0.00     0.270 C 
BRANCH  16  17
HETATM   17  N4  UNL     1      18.889   9.143  50.030  1.00  0.00     0.078 N 
HETATM   18  H22 UNL     1      19.591   9.157  50.828  1.00  0.00     0.312 HD
HETATM   19  H23 UNL     1      18.336  10.043  50.162  1.00  0.00     0.312 HD
ENDBRANCH  16  17
ENDBRANCH  15  16
ENDBRANCH  14  15
ENDBRANCH  12  13
ENDBRANCH  11  12
ENDBRANCH  10  11
ENDBRANCH   9  10
ENDBRANCH   6   9
BRANCH   5  20
HETATM   20  N2  UNL     1      22.583   3.474  51.963  1.00  0.00    -0.397 N 
HETATM   21  H9  UNL     1      21.759   2.805  51.999  1.00  0.00     0.156 HD
HETATM   22  H10 UNL     1      22.300   4.471  52.032  1.00  0.00     0.156 HD
ENDBRANCH   5  20
BRANCH   1  23
HETATM   23  C7  UNL     1      27.129  -0.410  53.393  1.00  0.00     0.065 A 
HETATM   24  C2  UNL     1      28.346  -0.053  53.932  1.00  0.00     0.084 A 
HETATM   25  C3  UNL     1      29.387  -0.958  53.844  1.00  0.00     0.038 A 
HETATM   26  C4  UNL     1      29.250  -2.191  53.241  1.00  0.00     0.003 A 
HETATM   27  C5  UNL     1      28.038  -2.555  52.699  1.00  0.00     0.001 A 
HETATM   28  C6  UNL     1      26.972  -1.654  52.778  1.00  0.00     0.020 A 
BRANCH  24  29
HETATM   29  O1  UNL     1      28.347   1.191  54.498  1.00  0.00    -0.355 OA
HETATM   30  C1  UNL     1      29.010   2.322  53.980  1.00  0.00     0.210 C 
ENDBRANCH  24  29
ENDBRANCH   1  23
TORSDOF 11
ENDMDL
