MODEL 1
REMARK VINA RESULT:      -7.4      0.000      0.000
REMARK  8 active torsions:
REMARK  status: ('A' for Active; 'I' for Inactive)
REMARK    1  A    between atoms: C2_2  and  C3_3 
REMARK    2  A    between atoms: C4_4  and  C5_5 
REMARK    3  A    between atoms: C5_5  and  P1_7 
REMARK    4  A    between atoms: P1_7  and  N1_8 
REMARK    5  A    between atoms: N1_8  and  C7_9 
REMARK    6  A    between atoms: C11_16  and  C12_17 
REMARK    7  A    between atoms: C12_17  and  N5_18 
REMARK    8  A    between atoms: C15_21  and  N6_22 
ROOT
HETATM    1  C7  UNL     1      24.198  -0.352  53.805  1.00  0.00     0.158 A 
HETATM    2  N2  UNL     1      24.413  -1.129  54.898  1.00  0.00    -0.220 NA
HETATM    3  C8  UNL     1      23.326  -1.537  55.592  1.00  0.00     0.258 A 
HETATM    4  N3  UNL     1      22.081  -1.194  55.221  1.00  0.00    -0.161 NA
HETATM    5  N4  UNL     1      21.861  -0.427  54.143  1.00  0.00    -0.240 N 
HETATM    6  C9  UNL     1      20.764   0.050  53.533  1.00  0.00     0.119 A 
HETATM    7  C10 UNL     1      21.179   0.786  52.416  1.00  0.00     0.030 A 
HETATM    8  C11 UNL     1      22.587   0.749  52.361  1.00  0.00    -0.007 A 
HETATM    9  C18 UNL     1      22.915  -0.006  53.438  1.00  0.00     0.111 A 
ENDROOT
BRANCH   1  10
HETATM   10  N1  UNL     1      25.411  -0.002  53.123  1.00  0.00    -0.345 N 
HETATM   11  H7  UNL     1      25.728  -0.084  52.122  1.00  0.00     0.166 HD
BRANCH  10  12
HETATM   12  P1  UNL     1      26.735   0.700  54.120  1.00  0.00     0.014 P 
HETATM   13  H6  UNL     1      26.269   1.226  55.391  1.00  0.00     0.086 HD
BRANCH  12  14
HETATM   14  C5  UNL     1      27.622   2.001  53.170  1.00  0.00     0.030 C 
HETATM   15  C6  UNL     1      28.729   2.436  53.793  1.00  0.00     0.035 C 
BRANCH  14  16
HETATM   16  C4  UNL     1      27.175   2.491  51.907  1.00  0.00    -0.061 C 
HETATM   17  C3  UNL     1      26.811   2.904  50.835  1.00  0.00    -0.074 C 
BRANCH  17  18
HETATM   18  C2  UNL     1      26.392   3.414  49.540  1.00  0.00     0.054 C 
HETATM   19  C1  UNL     1      27.042   4.385  48.906  1.00  0.00     0.020 C 
ENDBRANCH  17  18
ENDBRANCH  14  16
ENDBRANCH  12  14
ENDBRANCH  10  12
ENDBRANCH   1  10
BRANCH   8  20
HETATM   20  C12 UNL     1      23.274   1.533  51.309  1.00  0.00     0.158 C 
BRANCH  20  21
HETATM   21  N5  UNL     1      23.087   2.896  51.453  1.00  0.00    -0.408 N 
HETATM   22  C13 UNL     1      22.179   3.660  50.702  1.00  0.00     0.119 C 
HETATM   23  C14 UNL     1      22.979   4.871  50.178  1.00  0.00     0.055 C 
HETATM   24  C15 UNL     1      23.440   5.694  51.332  1.00  0.00     0.221 C 
HETATM   25  C16 UNL     1      23.193   5.010  52.645  1.00  0.00     0.055 C 
HETATM   26  C17 UNL     1      23.555   3.536  52.645  1.00  0.00     0.119 C 
BRANCH  24  27
HETATM   27  N6  UNL     1      24.844   6.022  51.143  1.00  0.00     0.083 N 
HETATM   28  H18 UNL     1      25.414   5.847  52.005  1.00  0.00     0.313 HD
HETATM   29  H19 UNL     1      25.236   5.562  50.301  1.00  0.00     0.313 HD
ENDBRANCH  24  27
ENDBRANCH  20  21
ENDBRANCH   8  20
TORSDOF 8
ENDMDL
MODEL 2
REMARK VINA RESULT:      -7.3      2.597      5.492
REMARK  8 active torsions:
REMARK  status: ('A' for Active; 'I' for Inactive)
REMARK    1  A    between atoms: C2_2  and  C3_3 
REMARK    2  A    between atoms: C4_4  and  C5_5 
REMARK    3  A    between atoms: C5_5  and  P1_7 
REMARK    4  A    between atoms: P1_7  and  N1_8 
REMARK    5  A    between atoms: N1_8  and  C7_9 
REMARK    6  A    between atoms: C11_16  and  C12_17 
REMARK    7  A    between atoms: C12_17  and  N5_18 
REMARK    8  A    between atoms: C15_21  and  N6_22 
ROOT
HETATM    1  C7  UNL     1      23.970   2.711  50.901  1.00  0.00     0.158 A 
HETATM    2  N2  UNL     1      23.195   2.900  49.802  1.00  0.00    -0.220 NA
HETATM    3  C8  UNL     1      22.135   2.075  49.641  1.00  0.00     0.258 A 
HETATM    4  N3  UNL     1      21.853   1.106  50.528  1.00  0.00    -0.161 NA
HETATM    5  N4  UNL     1      22.614   0.913  51.616  1.00  0.00    -0.240 N 
HETATM    6  C9  UNL     1      22.573   0.067  52.657  1.00  0.00     0.119 A 
HETATM    7  C10 UNL     1      23.649   0.371  53.501  1.00  0.00     0.030 A 
HETATM    8  C11 UNL     1      24.364   1.446  52.935  1.00  0.00    -0.007 A 
HETATM    9  C18 UNL     1      23.669   1.711  51.801  1.00  0.00     0.111 A 
ENDROOT
BRANCH   1  10
HETATM   10  N1  UNL     1      25.045   3.658  50.994  1.00  0.00    -0.345 N 
HETATM   11  H7  UNL     1      25.199   4.523  51.575  1.00  0.00     0.166 HD
BRANCH  10  12
HETATM   12  P1  UNL     1      26.451   3.407  49.899  1.00  0.00     0.014 P 
HETATM   13  H6  UNL     1      27.629   2.916  50.593  1.00  0.00     0.086 HD
BRANCH  12  14
HETATM   14  C5  UNL     1      26.836   4.962  48.997  1.00  0.00     0.030 C 
HETATM   15  C6  UNL     1      25.757   5.743  48.822  1.00  0.00     0.035 C 
BRANCH  14  16
HETATM   16  C4  UNL     1      28.144   5.296  48.534  1.00  0.00    -0.061 C 
HETATM   17  C3  UNL     1      29.247   5.567  48.133  1.00  0.00    -0.074 C 
BRANCH  17  18
HETATM   18  C2  UNL     1      30.583   5.871  47.650  1.00  0.00     0.054 C 
HETATM   19  C1  UNL     1      31.551   4.962  47.594  1.00  0.00     0.020 C 
ENDBRANCH  17  18
ENDBRANCH  14  16
ENDBRANCH  12  14
ENDBRANCH  10  12
ENDBRANCH   1  10
BRANCH   8  20
HETATM   20  C12 UNL     1      25.606   1.899  53.603  1.00  0.00     0.158 C 
BRANCH  20  21
HETATM   21  N5  UNL     1      26.542   0.887  53.728  1.00  0.00    -0.408 N 
HETATM   22  C13 UNL     1      26.815   0.196  54.919  1.00  0.00     0.119 C 
HETATM   23  C14 UNL     1      28.349   0.227  55.083  1.00  0.00     0.055 C 
HETATM   24  C15 UNL     1      28.980  -0.517  53.956  1.00  0.00     0.221 C 
HETATM   25  C16 UNL     1      27.983  -0.882  52.895  1.00  0.00     0.055 C 
HETATM   26  C17 UNL     1      27.023   0.240  52.545  1.00  0.00     0.119 C 
BRANCH  24  27
HETATM   27  N6  UNL     1      30.076   0.277  53.425  1.00  0.00     0.083 N 
HETATM   28  H18 UNL     1      30.963   0.148  53.969  1.00  0.00     0.313 HD
HETATM   29  H19 UNL     1      30.204   0.124  52.408  1.00  0.00     0.313 HD
ENDBRANCH  24  27
ENDBRANCH  20  21
ENDBRANCH   8  20
TORSDOF 8
ENDMDL
MODEL 3
REMARK VINA RESULT:      -7.1      2.099      4.779
REMARK  8 active torsions:
REMARK  status: ('A' for Active; 'I' for Inactive)
REMARK    1  A    between atoms: C2_2  and  C3_3 
REMARK    2  A    between atoms: C4_4  and  C5_5 
REMARK    3  A    between atoms: C5_5  and  P1_7 
REMARK    4  A    between atoms: P1_7  and  N1_8 
REMARK    5  A    between atoms: N1_8  and  C7_9 
REMARK    6  A    between atoms: C11_16  and  C12_17 
REMARK    7  A    between atoms: C12_17  and  N5_18 
REMARK    8  A    between atoms: C15_21  and  N6_22 
ROOT
HETATM    1  C7  UNL     1      22.574   1.622  52.029  1.00  0.00     0.158 A 
HETATM    2  N2  UNL     1      21.307   2.105  51.979  1.00  0.00    -0.220 NA
HETATM    3  C8  UNL     1      20.419   1.613  52.872  1.00  0.00     0.258 A 
HETATM    4  N3  UNL     1      20.770   0.684  53.778  1.00  0.00    -0.161 NA
HETATM    5  N4  UNL     1      22.020   0.202  53.834  1.00  0.00    -0.240 N 
HETATM    6  C9  UNL     1      22.653  -0.688  54.615  1.00  0.00     0.119 A 
HETATM    7  C10 UNL     1      23.988  -0.757  54.193  1.00  0.00     0.030 A 
HETATM    8  C11 UNL     1      24.155   0.130  53.110  1.00  0.00    -0.007 A 
HETATM    9  C18 UNL     1      22.919   0.667  52.962  1.00  0.00     0.111 A 
ENDROOT
BRANCH   1  10
HETATM   10  N1  UNL     1      23.443   2.233  51.063  1.00  0.00    -0.345 N 
HETATM   11  H7  UNL     1      23.951   1.869  50.215  1.00  0.00     0.166 HD
BRANCH  10  12
HETATM   12  P1  UNL     1      23.820   3.977  51.291  1.00  0.00     0.014 P 
HETATM   13  H6  UNL     1      22.728   4.719  51.899  1.00  0.00     0.086 HD
BRANCH  12  14
HETATM   14  C5  UNL     1      24.302   4.737  49.688  1.00  0.00     0.030 C 
HETATM   15  C6  UNL     1      23.245   5.158  48.974  1.00  0.00     0.035 C 
BRANCH  14  16
HETATM   16  C4  UNL     1      25.656   4.862  49.256  1.00  0.00    -0.061 C 
HETATM   17  C3  UNL     1      26.803   4.957  48.900  1.00  0.00    -0.074 C 
BRANCH  17  18
HETATM   18  C2  UNL     1      28.193   5.069  48.493  1.00  0.00     0.054 C 
HETATM   19  C1  UNL     1      28.735   6.215  48.094  1.00  0.00     0.020 C 
ENDBRANCH  17  18
ENDBRANCH  14  16
ENDBRANCH  12  14
ENDBRANCH  10  12
ENDBRANCH   1  10
BRANCH   8  20
HETATM   20  C12 UNL     1      25.469   0.172  52.428  1.00  0.00     0.158 C 
BRANCH  20  21
HETATM   21  N5  UNL     1      26.490   0.584  53.267  1.00  0.00    -0.408 N 
HETATM   22  C13 UNL     1      26.682   1.905  53.700  1.00  0.00     0.119 C 
HETATM   23  C14 UNL     1      28.169   2.224  53.434  1.00  0.00     0.055 C 
HETATM   24  C15 UNL     1      29.022   1.331  54.268  1.00  0.00     0.221 C 
HETATM   25  C16 UNL     1      28.219   0.255  54.941  1.00  0.00     0.055 C 
HETATM   26  C17 UNL     1      27.191  -0.399  54.036  1.00  0.00     0.119 C 
BRANCH  24  27
HETATM   27  N6  UNL     1      30.080   0.782  53.435  1.00  0.00     0.083 N 
HETATM   28  H18 UNL     1      29.788  -0.099  52.947  1.00  0.00     0.313 HD
HETATM   29  H19 UNL     1      30.466   1.492  52.785  1.00  0.00     0.313 HD
ENDBRANCH  24  27
ENDBRANCH  20  21
ENDBRANCH   8  20
TORSDOF 8
ENDMDL
MODEL 4
REMARK VINA RESULT:      -7.0      2.249      6.888
REMARK  8 active torsions:
REMARK  status: ('A' for Active; 'I' for Inactive)
REMARK    1  A    between atoms: C2_2  and  C3_3 
REMARK    2  A    between atoms: C4_4  and  C5_5 
REMARK    3  A    between atoms: C5_5  and  P1_7 
REMARK    4  A    between atoms: P1_7  and  N1_8 
REMARK    5  A    between atoms: N1_8  and  C7_9 
REMARK    6  A    between atoms: C11_16  and  C12_17 
REMARK    7  A    between atoms: C12_17  and  N5_18 
REMARK    8  A    between atoms: C15_21  and  N6_22 
ROOT
HETATM    1  C7  UNL     1      23.895   4.895  51.498  1.00  0.00     0.158 A 
HETATM    2  N2  UNL     1      23.665   6.233  51.488  1.00  0.00    -0.220 NA
HETATM    3  C8  UNL     1      24.466   6.994  50.707  1.00  0.00     0.258 A 
HETATM    4  N3  UNL     1      25.451   6.454  49.968  1.00  0.00    -0.161 NA
HETATM    5  N4  UNL     1      25.683   5.133  49.973  1.00  0.00    -0.240 N 
HETATM    6  C9  UNL     1      26.552   4.326  49.344  1.00  0.00     0.119 A 
HETATM    7  C10 UNL     1      26.287   3.011  49.747  1.00  0.00     0.030 A 
HETATM    8  C11 UNL     1      25.213   3.037  50.660  1.00  0.00    -0.007 A 
HETATM    9  C18 UNL     1      24.909   4.356  50.736  1.00  0.00     0.111 A 
ENDROOT
BRANCH   1  10
HETATM   10  N1  UNL     1      22.970   4.178  52.330  1.00  0.00    -0.345 N 
HETATM   11  H7  UNL     1      23.065   3.675  53.251  1.00  0.00     0.166 HD
BRANCH  10  12
HETATM   12  P1  UNL     1      21.279   4.030  51.733  1.00  0.00     0.014 P 
HETATM   13  H6  UNL     1      20.412   5.090  52.218  1.00  0.00     0.086 HD
BRANCH  12  14
HETATM   14  C5  UNL     1      20.592   2.383  52.176  1.00  0.00     0.030 C 
HETATM   15  C6  UNL     1      19.287   2.268  51.881  1.00  0.00     0.035 C 
BRANCH  14  16
HETATM   16  C4  UNL     1      21.368   1.344  52.770  1.00  0.00    -0.061 C 
HETATM   17  C3  UNL     1      22.034   0.476  53.276  1.00  0.00    -0.074 C 
BRANCH  17  18
HETATM   18  C2  UNL     1      22.857  -0.561  53.875  1.00  0.00     0.054 C 
HETATM   19  C1  UNL     1      22.508  -1.201  54.986  1.00  0.00     0.020 C 
ENDBRANCH  17  18
ENDBRANCH  14  16
ENDBRANCH  12  14
ENDBRANCH  10  12
ENDBRANCH   1  10
BRANCH   8  20
HETATM   20  C12 UNL     1      24.799   1.767  51.301  1.00  0.00     0.158 C 
BRANCH  20  21
HETATM   21  N5  UNL     1      25.764   1.261  52.153  1.00  0.00    -0.408 N 
HETATM   22  C13 UNL     1      26.632   0.204  51.837  1.00  0.00     0.119 C 
HETATM   23  C14 UNL     1      26.547  -0.781  53.022  1.00  0.00     0.055 C 
HETATM   24  C15 UNL     1      27.053  -0.115  54.255  1.00  0.00     0.221 C 
HETATM   25  C16 UNL     1      27.285   1.354  54.045  1.00  0.00     0.055 C 
HETATM   26  C17 UNL     1      26.173   2.046  53.278  1.00  0.00     0.119 C 
BRANCH  24  27
HETATM   27  N6  UNL     1      26.122  -0.370  55.342  1.00  0.00     0.083 N 
HETATM   28  H18 UNL     1      25.126  -0.197  55.064  1.00  0.00     0.313 HD
HETATM   29  H19 UNL     1      26.264  -1.309  55.758  1.00  0.00     0.313 HD
ENDBRANCH  24  27
ENDBRANCH  20  21
ENDBRANCH   8  20
TORSDOF 8
ENDMDL
MODEL 5
REMARK VINA RESULT:      -6.9      2.388      5.343
REMARK  8 active torsions:
REMARK  status: ('A' for Active; 'I' for Inactive)
REMARK    1  A    between atoms: C2_2  and  C3_3 
REMARK    2  A    between atoms: C4_4  and  C5_5 
REMARK    3  A    between atoms: C5_5  and  P1_7 
REMARK    4  A    between atoms: P1_7  and  N1_8 
REMARK    5  A    between atoms: N1_8  and  C7_9 
REMARK    6  A    between atoms: C11_16  and  C12_17 
REMARK    7  A    between atoms: C12_17  and  N5_18 
REMARK    8  A    between atoms: C15_21  and  N6_22 
ROOT
HETATM    1  C7  UNL     1      22.627   4.378  52.162  1.00  0.00     0.158 A 
HETATM    2  N2  UNL     1      21.433   4.823  51.693  1.00  0.00    -0.220 NA
HETATM    3  C8  UNL     1      20.436   3.917  51.573  1.00  0.00     0.258 A 
HETATM    4  N3  UNL     1      20.613   2.626  51.905  1.00  0.00    -0.161 NA
HETATM    5  N4  UNL     1      21.789   2.179  52.369  1.00  0.00    -0.240 N 
HETATM    6  C9  UNL     1      22.246   0.989  52.788  1.00  0.00     0.119 A 
HETATM    7  C10 UNL     1      23.580   1.155  53.183  1.00  0.00     0.030 A 
HETATM    8  C11 UNL     1      23.933   2.506  52.987  1.00  0.00    -0.007 A 
HETATM    9  C18 UNL     1      22.793   3.052  52.496  1.00  0.00     0.111 A 
ENDROOT
BRANCH   1  10
HETATM   10  N1  UNL     1      23.603   5.424  52.282  1.00  0.00    -0.345 N 
HETATM   11  H7  UNL     1      23.966   5.985  53.096  1.00  0.00     0.166 HD
BRANCH  10  12
HETATM   12  P1  UNL     1      24.397   5.977  50.765  1.00  0.00     0.014 P 
HETATM   13  H6  UNL     1      23.577   6.901  50.000  1.00  0.00     0.086 HD
BRANCH  12  14
HETATM   14  C5  UNL     1      24.872   4.531  49.735  1.00  0.00     0.030 C 
HETATM   15  C6  UNL     1      26.200   4.433  49.557  1.00  0.00     0.035 C 
BRANCH  14  16
HETATM   16  C4  UNL     1      23.926   3.615  49.185  1.00  0.00    -0.061 C 
HETATM   17  C3  UNL     1      23.136   2.840  48.710  1.00  0.00    -0.074 C 
BRANCH  17  18
HETATM   18  C2  UNL     1      22.187   1.915  48.115  1.00  0.00     0.054 C 
HETATM   19  C1  UNL     1      21.471   1.057  48.836  1.00  0.00     0.020 C 
ENDBRANCH  17  18
ENDBRANCH  14  16
ENDBRANCH  12  14
ENDBRANCH  10  12
ENDBRANCH   1  10
BRANCH   8  20
HETATM   20  C12 UNL     1      25.331   2.917  53.252  1.00  0.00     0.158 C 
BRANCH  20  21
HETATM   21  N5  UNL     1      26.231   1.879  53.087  1.00  0.00    -0.408 N 
HETATM   22  C13 UNL     1      26.832   1.531  51.867  1.00  0.00     0.119 C 
HETATM   23  C14 UNL     1      26.633   0.008  51.717  1.00  0.00     0.055 C 
HETATM   24  C15 UNL     1      27.359  -0.695  52.812  1.00  0.00     0.221 C 
HETATM   25  C16 UNL     1      27.877   0.262  53.847  1.00  0.00     0.055 C 
HETATM   26  C17 UNL     1      26.880   1.336  54.241  1.00  0.00     0.119 C 
BRANCH  24  27
HETATM   27  N6  UNL     1      26.480  -1.699  53.388  1.00  0.00     0.083 N 
HETATM   28  H18 UNL     1      26.097  -2.356  52.667  1.00  0.00     0.313 HD
HETATM   29  H19 UNL     1      26.929  -2.194  54.181  1.00  0.00     0.313 HD
ENDBRANCH  24  27
ENDBRANCH  20  21
ENDBRANCH   8  20
TORSDOF 8
ENDMDL
MODEL 6
REMARK VINA RESULT:      -6.7      2.283      7.082
REMARK  8 active torsions:
REMARK  status: ('A' for Active; 'I' for Inactive)
REMARK    1  A    between atoms: C2_2  and  C3_3 
REMARK    2  A    between atoms: C4_4  and  C5_5 
REMARK    3  A    between atoms: C5_5  and  P1_7 
REMARK    4  A    between atoms: P1_7  and  N1_8 
REMARK    5  A    between atoms: N1_8  and  C7_9 
REMARK    6  A    between atoms: C11_16  and  C12_17 
REMARK    7  A    between atoms: C12_17  and  N5_18 
REMARK    8  A    between atoms: C15_21  and  N6_22 
ROOT
HETATM    1  C7  UNL     1      23.704   3.689  51.857  1.00  0.00     0.158 A 
HETATM    2  N2  UNL     1      23.011   4.851  51.740  1.00  0.00    -0.220 NA
HETATM    3  C8  UNL     1      23.489   5.774  50.875  1.00  0.00     0.258 A 
HETATM    4  N3  UNL     1      24.604   5.558  50.156  1.00  0.00    -0.161 NA
HETATM    5  N4  UNL     1      25.294   4.413  50.266  1.00  0.00    -0.240 N 
HETATM    6  C9  UNL     1      26.397   3.917  49.683  1.00  0.00     0.119 A 
HETATM    7  C10 UNL     1      26.619   2.635  50.204  1.00  0.00     0.030 A 
HETATM    8  C11 UNL     1      25.603   2.358  51.142  1.00  0.00    -0.007 A 
HETATM    9  C18 UNL     1      24.847   3.482  51.115  1.00  0.00     0.111 A 
ENDROOT
BRANCH   1  10
HETATM   10  N1  UNL     1      23.095   2.767  52.773  1.00  0.00    -0.345 N 
HETATM   11  H7  UNL     1      23.374   2.395  53.719  1.00  0.00     0.166 HD
BRANCH  10  12
HETATM   12  P1  UNL     1      21.542   2.015  52.263  1.00  0.00     0.014 P 
HETATM   13  H6  UNL     1      20.395   2.882  52.476  1.00  0.00     0.086 HD
BRANCH  12  14
HETATM   14  C5  UNL     1      21.302   0.409  53.124  1.00  0.00     0.030 C 
HETATM   15  C6  UNL     1      22.423  -0.038  53.714  1.00  0.00     0.035 C 
BRANCH  14  16
HETATM   16  C4  UNL     1      20.056  -0.285  53.156  1.00  0.00    -0.061 C 
HETATM   17  C3  UNL     1      18.996  -0.858  53.185  1.00  0.00    -0.074 C 
BRANCH  17  18
HETATM   18  C2  UNL     1      17.711  -1.535  53.238  1.00  0.00     0.054 C 
HETATM   19  C1  UNL     1      16.614  -1.039  52.674  1.00  0.00     0.020 C 
ENDBRANCH  17  18
ENDBRANCH  14  16
ENDBRANCH  12  14
ENDBRANCH  10  12
ENDBRANCH   1  10
BRANCH   8  20
HETATM   20  C12 UNL     1      25.669   1.086  51.899  1.00  0.00     0.158 C 
BRANCH  20  21
HETATM   21  N5  UNL     1      26.623   1.113  52.902  1.00  0.00    -0.408 N 
HETATM   22  C13 UNL     1      26.967   2.253  53.644  1.00  0.00     0.119 C 
HETATM   23  C14 UNL     1      28.508   2.336  53.600  1.00  0.00     0.055 C 
HETATM   24  C15 UNL     1      29.086   1.143  54.281  1.00  0.00     0.221 C 
HETATM   25  C16 UNL     1      28.037   0.120  54.609  1.00  0.00     0.055 C 
HETATM   26  C17 UNL     1      27.047  -0.124  53.485  1.00  0.00     0.119 C 
BRANCH  24  27
HETATM   27  N6  UNL     1      30.142   0.594  53.447  1.00  0.00     0.083 N 
HETATM   28  H18 UNL     1      30.351  -0.408  53.675  1.00  0.00     0.313 HD
HETATM   29  H19 UNL     1      29.955   0.745  52.439  1.00  0.00     0.313 HD
ENDBRANCH  24  27
ENDBRANCH  20  21
ENDBRANCH   8  20
TORSDOF 8
ENDMDL
MODEL 7
REMARK VINA RESULT:      -6.7      2.767      6.261
REMARK  8 active torsions:
REMARK  status: ('A' for Active; 'I' for Inactive)
REMARK    1  A    between atoms: C2_2  and  C3_3 
REMARK    2  A    between atoms: C4_4  and  C5_5 
REMARK    3  A    between atoms: C5_5  and  P1_7 
REMARK    4  A    between atoms: P1_7  and  N1_8 
REMARK    5  A    between atoms: N1_8  and  C7_9 
REMARK    6  A    between atoms: C11_16  and  C12_17 
REMARK    7  A    between atoms: C12_17  and  N5_18 
REMARK    8  A    between atoms: C15_21  and  N6_22 
ROOT
HETATM    1  C7  UNL     1      23.067  -0.368  53.590  1.00  0.00     0.158 A 
HETATM    2  N2  UNL     1      23.032  -1.154  54.697  1.00  0.00    -0.220 NA
HETATM    3  C8  UNL     1      24.188  -1.316  55.380  1.00  0.00     0.258 A 
HETATM    4  N3  UNL     1      25.330  -0.725  54.985  1.00  0.00    -0.161 NA
HETATM    5  N4  UNL     1      25.372   0.052  53.894  1.00  0.00    -0.240 N 
HETATM    6  C9  UNL     1      26.329   0.768  53.282  1.00  0.00     0.119 A 
HETATM    7  C10 UNL     1      25.751   1.401  52.174  1.00  0.00     0.030 A 
HETATM    8  C11 UNL     1      24.388   1.042  52.121  1.00  0.00    -0.007 A 
HETATM    9  C18 UNL     1      24.245   0.229  53.197  1.00  0.00     0.111 A 
ENDROOT
BRANCH   1  10
HETATM   10  N1  UNL     1      21.784  -0.236  52.960  1.00  0.00    -0.345 N 
HETATM   11  H7  UNL     1      21.478  -0.110  51.960  1.00  0.00     0.166 HD
BRANCH  10  12
HETATM   12  P1  UNL     1      20.341  -0.245  54.035  1.00  0.00     0.014 P 
HETATM   13  H6  UNL     1      20.525  -1.061  55.224  1.00  0.00     0.086 HD
BRANCH  12  14
HETATM   14  C5  UNL     1      18.857  -0.795  53.100  1.00  0.00     0.030 C 
HETATM   15  C6  UNL     1      18.494   0.075  52.143  1.00  0.00     0.035 C 
BRANCH  14  16
HETATM   16  C4  UNL     1      18.169  -2.016  53.369  1.00  0.00    -0.061 C 
HETATM   17  C3  UNL     1      17.580  -3.045  53.583  1.00  0.00    -0.074 C 
BRANCH  17  18
HETATM   18  C2  UNL     1      16.850  -4.276  53.834  1.00  0.00     0.054 C 
HETATM   19  C1  UNL     1      15.658  -4.525  53.303  1.00  0.00     0.020 C 
ENDBRANCH  17  18
ENDBRANCH  14  16
ENDBRANCH  12  14
ENDBRANCH  10  12
ENDBRANCH   1  10
BRANCH   8  20
HETATM   20  C12 UNL     1      23.576   1.519  50.979  1.00  0.00     0.158 C 
BRANCH  20  21
HETATM   21  N5  UNL     1      23.280   2.868  51.063  1.00  0.00    -0.408 N 
HETATM   22  C13 UNL     1      23.569   3.811  50.064  1.00  0.00     0.119 C 
HETATM   23  C14 UNL     1      24.280   4.980  50.780  1.00  0.00     0.055 C 
HETATM   24  C15 UNL     1      23.341   5.605  51.754  1.00  0.00     0.221 C 
HETATM   25  C16 UNL     1      22.083   4.801  51.918  1.00  0.00     0.055 C 
HETATM   26  C17 UNL     1      22.321   3.307  52.030  1.00  0.00     0.119 C 
BRANCH  24  27
HETATM   27  N6  UNL     1      24.035   5.794  53.018  1.00  0.00     0.083 N 
HETATM   28  H18 UNL     1      23.930   6.769  53.389  1.00  0.00     0.313 HD
HETATM   29  H19 UNL     1      23.773   5.071  53.713  1.00  0.00     0.313 HD
ENDBRANCH  24  27
ENDBRANCH  20  21
ENDBRANCH   8  20
TORSDOF 8
ENDMDL
MODEL 8
REMARK VINA RESULT:      -6.6      2.144      5.614
REMARK  8 active torsions:
REMARK  status: ('A' for Active; 'I' for Inactive)
REMARK    1  A    between atoms: C2_2  and  C3_3 
REMARK    2  A    between atoms: C4_4  and  C5_5 
REMARK    3  A    between atoms: C5_5  and  P1_7 
REMARK    4  A    between atoms: P1_7  and  N1_8 
REMARK    5  A    between atoms: N1_8  and  C7_9 
REMARK    6  A    between atoms: C11_16  and  C12_17 
REMARK    7  A    between atoms: C12_17  and  N5_18 
REMARK    8  A    between atoms: C15_21  and  N6_22 
ROOT
HETATM    1  C7  UNL     1      25.957   3.276  50.527  1.00  0.00     0.158 A 
HETATM    2  N2  UNL     1      26.980   3.517  49.667  1.00  0.00    -0.220 NA
HETATM    3  C8  UNL     1      26.982   4.705  49.021  1.00  0.00     0.258 A 
HETATM    4  N3  UNL     1      26.014   5.617  49.218  1.00  0.00    -0.161 NA
HETATM    5  N4  UNL     1      25.000   5.386  50.065  1.00  0.00    -0.240 N 
HETATM    6  C9  UNL     1      23.931   6.090  50.471  1.00  0.00     0.119 A 
HETATM    7  C10 UNL     1      23.233   5.313  51.405  1.00  0.00     0.030 A 
HETATM    8  C11 UNL     1      23.916   4.089  51.559  1.00  0.00    -0.007 A 
HETATM    9  C18 UNL     1      24.970   4.219  50.716  1.00  0.00     0.111 A 
ENDROOT
BRANCH   1  10
HETATM   10  N1  UNL     1      26.068   2.004  51.183  1.00  0.00    -0.345 N 
HETATM   11  H7  UNL     1      25.610   1.068  51.030  1.00  0.00     0.166 HD
BRANCH  10  12
HETATM   12  P1  UNL     1      27.178   1.909  52.596  1.00  0.00     0.014 P 
HETATM   13  H6  UNL     1      28.550   1.612  52.221  1.00  0.00     0.086 HD
BRANCH  12  14
HETATM   14  C5  UNL     1      26.559   0.672  53.806  1.00  0.00     0.030 C 
HETATM   15  C6  UNL     1      27.489   0.315  54.708  1.00  0.00     0.035 C 
BRANCH  14  16
HETATM   16  C4  UNL     1      25.231   0.149  53.784  1.00  0.00    -0.061 C 
HETATM   17  C3  UNL     1      24.108  -0.288  53.779  1.00  0.00    -0.074 C 
BRANCH  17  18
HETATM   18  C2  UNL     1      22.759  -0.827  53.794  1.00  0.00     0.054 C 
HETATM   19  C1  UNL     1      22.023  -0.889  54.899  1.00  0.00     0.020 C 
ENDBRANCH  17  18
ENDBRANCH  14  16
ENDBRANCH  12  14
ENDBRANCH  10  12
ENDBRANCH   1  10
BRANCH   8  20
HETATM   20  C12 UNL     1      23.322   3.054  52.436  1.00  0.00     0.158 C 
BRANCH  20  21
HETATM   21  N5  UNL     1      22.377   2.282  51.783  1.00  0.00    -0.408 N 
HETATM   22  C13 UNL     1      22.661   1.390  50.738  1.00  0.00     0.119 C 
HETATM   23  C14 UNL     1      21.656   1.721  49.614  1.00  0.00     0.055 C 
HETATM   24  C15 UNL     1      20.272   1.451  50.095  1.00  0.00     0.221 C 
HETATM   25  C16 UNL     1      20.236   1.156  51.567  1.00  0.00     0.055 C 
HETATM   26  C17 UNL     1      21.101   2.084  52.400  1.00  0.00     0.119 C 
BRANCH  24  27
HETATM   27  N6  UNL     1      19.425   2.580  49.745  1.00  0.00     0.083 N 
HETATM   28  H18 UNL     1      19.881   3.223  49.054  1.00  0.00     0.313 HD
HETATM   29  H19 UNL     1      18.481   2.274  49.445  1.00  0.00     0.313 HD
ENDBRANCH  24  27
ENDBRANCH  20  21
ENDBRANCH   8  20
TORSDOF 8
ENDMDL
MODEL 9
REMARK VINA RESULT:      -6.5      2.052      4.475
REMARK  8 active torsions:
REMARK  status: ('A' for Active; 'I' for Inactive)
REMARK    1  A    between atoms: C2_2  and  C3_3 
REMARK    2  A    between atoms: C4_4  and  C5_5 
REMARK    3  A    between atoms: C5_5  and  P1_7 
REMARK    4  A    between atoms: P1_7  and  N1_8 
REMARK    5  A    between atoms: N1_8  and  C7_9 
REMARK    6  A    between atoms: C11_16  and  C12_17 
REMARK    7  A    between atoms: C12_17  and  N5_18 
REMARK    8  A    between atoms: C15_21  and  N6_22 
ROOT
HETATM    1  C7  UNL     1      23.966  -0.056  53.526  1.00  0.00     0.158 A 
HETATM    2  N2  UNL     1      23.574  -0.927  54.490  1.00  0.00    -0.220 NA
HETATM    3  C8  UNL     1      24.482  -1.253  55.439  1.00  0.00     0.258 A 
HETATM    4  N3  UNL     1      25.724  -0.738  55.433  1.00  0.00    -0.161 NA
HETATM    5  N4  UNL     1      26.118   0.123  54.484  1.00  0.00    -0.240 N 
HETATM    6  C9  UNL     1      27.252   0.798  54.234  1.00  0.00     0.119 A 
HETATM    7  C10 UNL     1      27.047   1.574  53.086  1.00  0.00     0.030 A 
HETATM    8  C11 UNL     1      25.732   1.348  52.630  1.00  0.00    -0.007 A 
HETATM    9  C18 UNL     1      25.243   0.462  53.532  1.00  0.00     0.111 A 
ENDROOT
BRANCH   1  10
HETATM   10  N1  UNL     1      22.920   0.248  52.591  1.00  0.00    -0.345 N 
HETATM   11  H7  UNL     1      22.916   0.584  51.592  1.00  0.00     0.166 HD
BRANCH  10  12
HETATM   12  P1  UNL     1      21.227   0.076  53.176  1.00  0.00     0.014 P 
HETATM   13  H6  UNL     1      20.988  -1.184  53.858  1.00  0.00     0.086 HD
BRANCH  12  14
HETATM   14  C5  UNL     1      20.049   0.287  51.780  1.00  0.00     0.030 C 
HETATM   15  C6  UNL     1      18.810  -0.140  52.076  1.00  0.00     0.035 C 
BRANCH  14  16
HETATM   16  C4  UNL     1      20.419   0.845  50.520  1.00  0.00    -0.061 C 
HETATM   17  C3  UNL     1      20.741   1.306  49.454  1.00  0.00    -0.074 C 
BRANCH  17  18
HETATM   18  C2  UNL     1      21.152   1.858  48.175  1.00  0.00     0.054 C 
HETATM   19  C1  UNL     1      22.417   1.857  47.765  1.00  0.00     0.020 C 
ENDBRANCH  17  18
ENDBRANCH  14  16
ENDBRANCH  12  14
ENDBRANCH  10  12
ENDBRANCH   1  10
BRANCH   8  20
HETATM   20  C12 UNL     1      25.301   1.994  51.368  1.00  0.00     0.158 C 
BRANCH  20  21
HETATM   21  N5  UNL     1      24.445   3.060  51.582  1.00  0.00    -0.408 N 
HETATM   22  C13 UNL     1      23.431   3.458  50.696  1.00  0.00     0.119 C 
HETATM   23  C14 UNL     1      23.611   4.979  50.505  1.00  0.00     0.055 C 
HETATM   24  C15 UNL     1      23.391   5.669  51.807  1.00  0.00     0.221 C 
HETATM   25  C16 UNL     1      23.281   4.698  52.947  1.00  0.00     0.055 C 
HETATM   26  C17 UNL     1      24.314   3.587  52.906  1.00  0.00     0.119 C 
BRANCH  24  27
HETATM   27  N6  UNL     1      24.460   6.634  52.013  1.00  0.00     0.083 N 
HETATM   28  H18 UNL     1      24.448   7.043  52.978  1.00  0.00     0.313 HD
HETATM   29  H19 UNL     1      25.385   6.244  51.754  1.00  0.00     0.313 HD
ENDBRANCH  24  27
ENDBRANCH  20  21
ENDBRANCH   8  20
TORSDOF 8
ENDMDL
