MODEL 1
REMARK VINA RESULT:      -7.6      0.000      0.000
REMARK  0 active torsions:
REMARK  status: ('A' for Active; 'I' for Inactive)
ROOT
HETATM    1  O1  UNL     1      24.191   0.874  52.641  1.00  0.00     0.000 OA
HETATM    2  C1  UNL     1      25.098  -0.009  52.853  1.00  0.00     0.286 A 
HETATM    3  C2  UNL     1      23.871  -0.408  53.499  1.00  0.00     0.045 A 
HETATM    4  C3  UNL     1      22.889  -0.704  54.003  1.00  0.00    -0.143 C 
HETATM    5  C4  UNL     1      21.663  -1.049  54.618  1.00  0.00     0.105 C 
HETATM    6  C5  UNL     1      20.691   0.151  54.574  1.00  0.00     0.129 C 
HETATM    7  N1  UNL     1      20.311   0.606  53.327  1.00  0.00    -0.404 N 
HETATM    8  C6  UNL     1      19.210   0.084  52.668  1.00  0.00     0.144 C 
HETATM    9  C7  UNL     1      19.198   0.184  51.155  1.00  0.00     0.195 C 
HETATM   10  O2  UNL     1      19.302   1.594  50.876  1.00  0.00    -0.350 OA
HETATM   11  C8  UNL     1      19.970   2.364  51.856  1.00  0.00     0.095 C 
HETATM   12  C9  UNL     1      19.822   3.618  51.448  1.00  0.00     0.119 C 
HETATM   13  N2  UNL     1      20.859   4.335  51.432  1.00  0.00    -0.244 NA
HETATM   14  C10 UNL     1      22.107   3.673  51.538  1.00  0.00     0.057 A 
HETATM   15  C11 UNL     1      22.911   4.065  52.585  1.00  0.00     0.034 A 
HETATM   16  C12 UNL     1      24.087   3.354  52.741  1.00  0.00     0.042 A 
HETATM   17  C13 UNL     1      24.228   2.340  51.770  1.00  0.00     0.168 A 
HETATM   18  C14 UNL     1      23.372   1.991  50.706  1.00  0.00     0.042 A 
HETATM   19  C15 UNL     1      22.208   2.707  50.565  1.00  0.00     0.034 A 
HETATM   20  N3  UNL     1      25.257   1.263  52.054  1.00  0.00     0.140 N 
HETATM   21  C16 UNL     1      20.678   2.017  53.055  1.00  0.00     0.184 C 
HETATM   22  H13 UNL     1      26.273   1.231  51.729  1.00  0.00     0.325 HD
ENDROOT
TORSDOF 0
ENDMDL
MODEL 2
REMARK VINA RESULT:      -7.3      1.186      1.383
REMARK  0 active torsions:
REMARK  status: ('A' for Active; 'I' for Inactive)
ROOT
HETATM    1  O1  UNL     1      24.611   0.420  53.597  1.00  0.00     0.000 OA
HETATM    2  C1  UNL     1      25.200  -0.579  54.147  1.00  0.00     0.286 A 
HETATM    3  C2  UNL     1      23.771  -0.733  54.263  1.00  0.00     0.045 A 
HETATM    4  C3  UNL     1      22.636  -0.836  54.344  1.00  0.00    -0.143 C 
HETATM    5  C4  UNL     1      21.227  -0.940  54.431  1.00  0.00     0.105 C 
HETATM    6  C5  UNL     1      20.569   0.393  54.009  1.00  0.00     0.129 C 
HETATM    7  N1  UNL     1      20.783   0.815  52.712  1.00  0.00    -0.404 N 
HETATM    8  C6  UNL     1      19.949   0.430  51.675  1.00  0.00     0.144 C 
HETATM    9  C7  UNL     1      20.537   0.427  50.278  1.00  0.00     0.195 C 
HETATM   10  O2  UNL     1      20.981   1.780  50.061  1.00  0.00    -0.350 OA
HETATM   11  C8  UNL     1      21.343   2.501  51.223  1.00  0.00     0.095 C 
HETATM   12  C9  UNL     1      21.581   3.731  50.788  1.00  0.00     0.119 C 
HETATM   13  N2  UNL     1      22.651   4.274  51.178  1.00  0.00    -0.244 NA
HETATM   14  C10 UNL     1      23.628   3.431  51.763  1.00  0.00     0.057 A 
HETATM   15  C11 UNL     1      24.022   3.762  53.042  1.00  0.00     0.034 A 
HETATM   16  C12 UNL     1      24.906   2.887  53.646  1.00  0.00     0.042 A 
HETATM   17  C13 UNL     1      25.233   1.799  52.808  1.00  0.00     0.168 A 
HETATM   18  C14 UNL     1      24.806   1.518  51.495  1.00  0.00     0.042 A 
HETATM   19  C15 UNL     1      23.928   2.396  50.909  1.00  0.00     0.034 A 
HETATM   20  N3  UNL     1      25.871   0.594  53.473  1.00  0.00     0.140 N 
HETATM   21  C16 UNL     1      21.464   2.129  52.604  1.00  0.00     0.184 C 
HETATM   22  H13 UNL     1      26.911   0.380  53.571  1.00  0.00     0.325 HD
ENDROOT
TORSDOF 0
ENDMDL
MODEL 3
REMARK VINA RESULT:      -7.0      1.527      4.173
REMARK  0 active torsions:
REMARK  status: ('A' for Active; 'I' for Inactive)
ROOT
HETATM    1  O1  UNL     1      21.210  -0.359  53.619  1.00  0.00     0.000 OA
HETATM    2  C1  UNL     1      21.053  -1.199  54.578  1.00  0.00     0.286 A 
HETATM    3  C2  UNL     1      22.460  -0.978  54.351  1.00  0.00     0.045 A 
HETATM    4  C3  UNL     1      23.570  -0.788  54.154  1.00  0.00    -0.143 C 
HETATM    5  C4  UNL     1      24.937  -0.536  53.891  1.00  0.00     0.105 C 
HETATM    6  C5  UNL     1      25.088   0.253  52.572  1.00  0.00     0.129 C 
HETATM    7  N1  UNL     1      24.513   1.508  52.523  1.00  0.00    -0.404 N 
HETATM    8  C6  UNL     1      25.204   2.640  52.922  1.00  0.00     0.144 C 
HETATM    9  C7  UNL     1      24.381   3.825  53.387  1.00  0.00     0.195 C 
HETATM   10  O2  UNL     1      23.532   4.149  52.269  1.00  0.00    -0.350 OA
HETATM   11  C8  UNL     1      23.212   3.071  51.411  1.00  0.00     0.095 C 
HETATM   12  C9  UNL     1      22.549   3.632  50.408  1.00  0.00     0.119 C 
HETATM   13  N2  UNL     1      21.466   3.084  50.066  1.00  0.00    -0.244 NA
HETATM   14  C10 UNL     1      20.907   2.140  50.963  1.00  0.00     0.057 A 
HETATM   15  C11 UNL     1      20.692   0.878  50.453  1.00  0.00     0.034 A 
HETATM   16  C12 UNL     1      20.233  -0.066  51.354  1.00  0.00     0.042 A 
HETATM   17  C13 UNL     1      20.076   0.468  52.651  1.00  0.00     0.168 A 
HETATM   18  C14 UNL     1      20.302   1.781  53.113  1.00  0.00     0.042 A 
HETATM   19  C15 UNL     1      20.757   2.706  52.207  1.00  0.00     0.034 A 
HETATM   20  N3  UNL     1      19.955  -0.526  53.788  1.00  0.00     0.140 N 
HETATM   21  C16 UNL     1      23.475   1.661  51.474  1.00  0.00     0.184 C 
HETATM   22  H13 UNL     1      19.060  -0.916  54.219  1.00  0.00     0.325 HD
ENDROOT
TORSDOF 0
ENDMDL
MODEL 4
REMARK VINA RESULT:      -6.9      3.576      4.947
REMARK  0 active torsions:
REMARK  status: ('A' for Active; 'I' for Inactive)
ROOT
HETATM    1  O1  UNL     1      26.199   5.432  49.165  1.00  0.00     0.000 OA
HETATM    2  C1  UNL     1      27.325   5.197  48.595  1.00  0.00     0.286 A 
HETATM    3  C2  UNL     1      26.967   4.086  49.442  1.00  0.00     0.045 A 
HETATM    4  C3  UNL     1      26.664   3.216  50.119  1.00  0.00    -0.143 C 
HETATM    5  C4  UNL     1      26.267   2.153  50.963  1.00  0.00     0.105 C 
HETATM    6  C5  UNL     1      25.064   2.583  51.830  1.00  0.00     0.129 C 
HETATM    7  N1  UNL     1      23.900   2.920  51.166  1.00  0.00    -0.404 N 
HETATM    8  C6  UNL     1      22.942   1.971  50.851  1.00  0.00     0.144 C 
HETATM    9  C7  UNL     1      22.035   2.266  49.673  1.00  0.00     0.195 C 
HETATM   10  O2  UNL     1      21.389   3.511  50.007  1.00  0.00    -0.350 OA
HETATM   11  C8  UNL     1      22.119   4.371  50.860  1.00  0.00     0.095 C 
HETATM   12  C9  UNL     1      21.280   5.364  51.124  1.00  0.00     0.119 C 
HETATM   13  N2  UNL     1      21.731   6.535  51.001  1.00  0.00    -0.244 NA
HETATM   14  C10 UNL     1      22.954   6.687  50.302  1.00  0.00     0.057 A 
HETATM   15  C11 UNL     1      23.972   7.307  50.995  1.00  0.00     0.034 A 
HETATM   16  C12 UNL     1      25.190   7.372  50.345  1.00  0.00     0.042 A 
HETATM   17  C13 UNL     1      25.146   6.771  49.069  1.00  0.00     0.168 A 
HETATM   18  C14 UNL     1      24.065   6.160  48.403  1.00  0.00     0.042 A 
HETATM   19  C15 UNL     1      22.861   6.103  49.061  1.00  0.00     0.034 A 
HETATM   20  N3  UNL     1      26.478   6.437  48.426  1.00  0.00     0.140 N 
HETATM   21  C16 UNL     1      23.447   4.313  51.400  1.00  0.00     0.184 C 
HETATM   22  H13 UNL     1      27.038   7.033  47.741  1.00  0.00     0.325 HD
ENDROOT
TORSDOF 0
ENDMDL
MODEL 5
REMARK VINA RESULT:      -6.9      2.216      5.016
REMARK  0 active torsions:
REMARK  status: ('A' for Active; 'I' for Inactive)
ROOT
HETATM    1  O1  UNL     1      23.567   2.931  52.396  1.00  0.00     0.000 OA
HETATM    2  C1  UNL     1      22.633   3.807  52.312  1.00  0.00     0.286 A 
HETATM    3  C2  UNL     1      22.059   2.507  52.556  1.00  0.00     0.045 A 
HETATM    4  C3  UNL     1      21.625   1.468  52.750  1.00  0.00    -0.143 C 
HETATM    5  C4  UNL     1      21.112   0.171  52.990  1.00  0.00     0.105 C 
HETATM    6  C5  UNL     1      22.227  -0.883  52.812  1.00  0.00     0.129 C 
HETATM    7  N1  UNL     1      23.310  -0.800  53.665  1.00  0.00    -0.404 N 
HETATM    8  C6  UNL     1      23.320  -1.445  54.891  1.00  0.00     0.144 C 
HETATM    9  C7  UNL     1      24.215  -0.867  55.970  1.00  0.00     0.195 C 
HETATM   10  O2  UNL     1      25.539  -0.890  55.403  1.00  0.00    -0.350 OA
HETATM   11  C8  UNL     1      25.605  -0.804  53.993  1.00  0.00     0.095 C 
HETATM   12  C9  UNL     1      26.889  -0.977  53.710  1.00  0.00     0.119 C 
HETATM   13  N2  UNL     1      27.411  -0.152  52.913  1.00  0.00    -0.244 NA
HETATM   14  C10 UNL     1      26.690   1.038  52.649  1.00  0.00     0.057 A 
HETATM   15  C11 UNL     1      26.388   1.282  51.327  1.00  0.00     0.034 A 
HETATM   16  C12 UNL     1      25.606   2.395  51.082  1.00  0.00     0.042 A 
HETATM   17  C13 UNL     1      25.262   3.075  52.269  1.00  0.00     0.168 A 
HETATM   18  C14 UNL     1      25.613   2.785  53.603  1.00  0.00     0.042 A 
HETATM   19  C15 UNL     1      26.390   1.676  53.830  1.00  0.00     0.034 A 
HETATM   20  N3  UNL     1      24.116   4.064  52.181  1.00  0.00     0.140 N 
HETATM   21  C16 UNL     1      24.610  -0.589  52.982  1.00  0.00     0.184 C 
HETATM   22  H13 UNL     1      24.175   5.116  52.009  1.00  0.00     0.325 HD
ENDROOT
TORSDOF 0
ENDMDL
MODEL 6
REMARK VINA RESULT:      -6.7      2.126      4.448
REMARK  0 active torsions:
REMARK  status: ('A' for Active; 'I' for Inactive)
ROOT
HETATM    1  O1  UNL     1      20.453   0.943  50.900  1.00  0.00     0.000 OA
HETATM    2  C1  UNL     1      19.563   0.209  51.463  1.00  0.00     0.286 A 
HETATM    3  C2  UNL     1      20.789   0.154  52.221  1.00  0.00     0.045 A 
HETATM    4  C3  UNL     1      21.770   0.124  52.806  1.00  0.00    -0.143 C 
HETATM    5  C4  UNL     1      22.996   0.103  53.512  1.00  0.00     0.105 C 
HETATM    6  C5  UNL     1      24.106   0.767  52.669  1.00  0.00     0.129 C 
HETATM    7  N1  UNL     1      23.940   2.101  52.350  1.00  0.00    -0.404 N 
HETATM    8  C6  UNL     1      24.394   3.110  53.183  1.00  0.00     0.144 C 
HETATM    9  C7  UNL     1      23.697   4.452  53.087  1.00  0.00     0.195 C 
HETATM   10  O2  UNL     1      23.855   4.855  51.713  1.00  0.00    -0.350 OA
HETATM   11  C8  UNL     1      23.983   3.802  50.777  1.00  0.00     0.095 C 
HETATM   12  C9  UNL     1      24.247   4.411  49.628  1.00  0.00     0.119 C 
HETATM   13  N2  UNL     1      23.571   4.051  48.627  1.00  0.00    -0.244 NA
HETATM   14  C10 UNL     1      22.406   3.284  48.874  1.00  0.00     0.057 A 
HETATM   15  C11 UNL     1      22.351   2.053  48.257  1.00  0.00     0.034 A 
HETATM   16  C12 UNL     1      21.257   1.268  48.572  1.00  0.00     0.042 A 
HETATM   17  C13 UNL     1      20.394   1.903  49.491  1.00  0.00     0.168 A 
HETATM   18  C14 UNL     1      20.496   3.178  50.083  1.00  0.00     0.042 A 
HETATM   19  C15 UNL     1      21.588   3.945  49.759  1.00  0.00     0.034 A 
HETATM   20  N3  UNL     1      19.386   1.021  50.201  1.00  0.00     0.140 N 
HETATM   21  C16 UNL     1      23.883   2.375  50.893  1.00  0.00     0.184 C 
HETATM   22  H13 UNL     1      18.375   0.830  49.919  1.00  0.00     0.325 HD
ENDROOT
TORSDOF 0
ENDMDL
MODEL 7
REMARK VINA RESULT:      -6.7     12.629     14.633
REMARK  0 active torsions:
REMARK  status: ('A' for Active; 'I' for Inactive)
ROOT
HETATM    1  O1  UNL     1      34.445   4.680  47.373  1.00  0.00     0.000 OA
HETATM    2  C1  UNL     1      35.028   3.540  47.284  1.00  0.00     0.286 A 
HETATM    3  C2  UNL     1      34.628   3.985  45.972  1.00  0.00     0.045 A 
HETATM    4  C3  UNL     1      34.301   4.357  44.942  1.00  0.00    -0.143 C 
HETATM    5  C4  UNL     1      33.888   4.840  43.677  1.00  0.00     0.105 C 
HETATM    6  C5  UNL     1      32.962   6.063  43.853  1.00  0.00     0.129 C 
HETATM    7  N1  UNL     1      33.504   7.178  44.463  1.00  0.00    -0.404 N 
HETATM    8  C6  UNL     1      34.154   8.160  43.735  1.00  0.00     0.144 C 
HETATM    9  C7  UNL     1      35.185   8.997  44.469  1.00  0.00     0.195 C 
HETATM   10  O2  UNL     1      34.462   9.603  45.557  1.00  0.00    -0.350 OA
HETATM   11  C8  UNL     1      33.342   8.878  46.029  1.00  0.00     0.095 C 
HETATM   12  C9  UNL     1      32.777   9.685  46.918  1.00  0.00     0.119 C 
HETATM   13  N2  UNL     1      32.476   9.178  48.032  1.00  0.00    -0.244 NA
HETATM   14  C10 UNL     1      33.042   7.918  48.345  1.00  0.00     0.057 A 
HETATM   15  C11 UNL     1      32.148   6.908  48.630  1.00  0.00     0.034 A 
HETATM   16  C12 UNL     1      32.699   5.658  48.845  1.00  0.00     0.042 A 
HETATM   17  C13 UNL     1      34.104   5.668  48.721  1.00  0.00     0.168 A 
HETATM   18  C14 UNL     1      34.972   6.742  48.439  1.00  0.00     0.042 A 
HETATM   19  C15 UNL     1      34.411   7.977  48.229  1.00  0.00     0.034 A 
HETATM   20  N3  UNL     1      34.783   4.323  48.552  1.00  0.00     0.140 N 
HETATM   21  C16 UNL     1      32.817   7.581  45.714  1.00  0.00     0.184 C 
HETATM   22  H13 UNL     1      35.204   3.705  49.314  1.00  0.00     0.325 HD
ENDROOT
TORSDOF 0
ENDMDL
MODEL 8
REMARK VINA RESULT:      -6.6      2.227      4.466
REMARK  0 active torsions:
REMARK  status: ('A' for Active; 'I' for Inactive)
ROOT
HETATM    1  O1  UNL     1      23.232   0.778  52.345  1.00  0.00     0.000 OA
HETATM    2  C1  UNL     1      23.890   0.069  53.190  1.00  0.00     0.286 A 
HETATM    3  C2  UNL     1      24.794   0.934  52.473  1.00  0.00     0.045 A 
HETATM    4  C3  UNL     1      25.492   1.628  51.892  1.00  0.00    -0.143 C 
HETATM    5  C4  UNL     1      26.337   2.496  51.161  1.00  0.00     0.105 C 
HETATM    6  C5  UNL     1      25.560   3.123  49.982  1.00  0.00     0.129 C 
HETATM    7  N1  UNL     1      24.475   3.918  50.297  1.00  0.00    -0.404 N 
HETATM    8  C6  UNL     1      24.612   5.276  50.530  1.00  0.00     0.144 C 
HETATM    9  C7  UNL     1      23.565   5.938  51.404  1.00  0.00     0.195 C 
HETATM   10  O2  UNL     1      22.313   5.687  50.735  1.00  0.00    -0.350 OA
HETATM   11  C8  UNL     1      22.263   4.514  49.947  1.00  0.00     0.095 C 
HETATM   12  C9  UNL     1      21.084   4.573  49.341  1.00  0.00     0.119 C 
HETATM   13  N2  UNL     1      20.376   3.530  49.376  1.00  0.00    -0.244 NA
HETATM   14  C10 UNL     1      20.747   2.527  50.305  1.00  0.00     0.057 A 
HETATM   15  C11 UNL     1      21.004   1.280  49.775  1.00  0.00     0.034 A 
HETATM   16  C12 UNL     1      21.454   0.327  50.669  1.00  0.00     0.042 A 
HETATM   17  C13 UNL     1      21.567   0.837  51.980  1.00  0.00     0.168 A 
HETATM   18  C14 UNL     1      21.275   2.127  52.468  1.00  0.00     0.042 A 
HETATM   19  C15 UNL     1      20.829   3.063  51.568  1.00  0.00     0.034 A 
HETATM   20  N3  UNL     1      22.398   0.029  52.958  1.00  0.00     0.140 N 
HETATM   21  C16 UNL     1      23.186   3.434  49.745  1.00  0.00     0.184 C 
HETATM   22  H13 UNL     1      22.055  -0.708  53.649  1.00  0.00     0.325 HD
ENDROOT
TORSDOF 0
ENDMDL
MODEL 9
REMARK VINA RESULT:      -6.6      1.942      4.573
REMARK  0 active torsions:
REMARK  status: ('A' for Active; 'I' for Inactive)
ROOT
HETATM    1  O1  UNL     1      22.114   5.116  51.071  1.00  0.00     0.000 OA
HETATM    2  C1  UNL     1      21.288   6.080  50.886  1.00  0.00     0.286 A 
HETATM    3  C2  UNL     1      20.652   4.826  50.565  1.00  0.00     0.045 A 
HETATM    4  C3  UNL     1      20.168   3.821  50.316  1.00  0.00    -0.143 C 
HETATM    5  C4  UNL     1      19.590   2.565  50.014  1.00  0.00     0.105 C 
HETATM    6  C5  UNL     1      20.682   1.473  49.985  1.00  0.00     0.129 C 
HETATM    7  N1  UNL     1      21.368   1.239  51.161  1.00  0.00    -0.404 N 
HETATM    8  C6  UNL     1      20.913   0.327  52.099  1.00  0.00     0.144 C 
HETATM    9  C7  UNL     1      21.344   0.539  53.536  1.00  0.00     0.195 C 
HETATM   10  O2  UNL     1      22.785   0.512  53.498  1.00  0.00    -0.350 OA
HETATM   11  C8  UNL     1      23.373   0.920  52.278  1.00  0.00     0.095 C 
HETATM   12  C9  UNL     1      24.668   0.685  52.441  1.00  0.00     0.119 C 
HETATM   13  N2  UNL     1      25.458   1.615  52.124  1.00  0.00    -0.244 NA
HETATM   14  C10 UNL     1      24.899   2.902  51.935  1.00  0.00     0.057 A 
HETATM   15  C11 UNL     1      25.116   3.480  50.702  1.00  0.00     0.034 A 
HETATM   16  C12 UNL     1      24.492   4.695  50.487  1.00  0.00     0.042 A 
HETATM   17  C13 UNL     1      23.735   5.109  51.603  1.00  0.00     0.168 A 
HETATM   18  C14 UNL     1      23.559   4.479  52.852  1.00  0.00     0.042 A 
HETATM   19  C15 UNL     1      24.185   3.273  53.050  1.00  0.00     0.034 A 
HETATM   20  N3  UNL     1      22.714   6.205  51.367  1.00  0.00     0.140 N 
HETATM   21  C16 UNL     1      22.830   1.469  51.068  1.00  0.00     0.184 C 
HETATM   22  H13 UNL     1      22.843   7.255  51.504  1.00  0.00     0.325 HD
ENDROOT
TORSDOF 0
ENDMDL
