MODEL 1
REMARK VINA RESULT:      -7.7      0.000      0.000
REMARK  5 active torsions:
REMARK  status: ('A' for Active; 'I' for Inactive)
REMARK    1  A    between atoms: O1_2  and  C2_3 
REMARK    2  A    between atoms: N2_8  and  C6_9 
REMARK    3  A    between atoms: C6_9  and  S1_10 
REMARK    4  A    between atoms: S1_10  and  C7_11 
REMARK    5  A    between atoms: C8_12  and  O2_13 
ROOT
HETATM    1  C2  UNL     1      27.853   0.502  53.911  1.00  0.00     0.080 A 
HETATM    2  C3  UNL     1      27.239   1.668  53.799  1.00  0.00     0.023 A 
HETATM    3  C4  UNL     1      25.973   1.552  53.513  1.00  0.00     0.004 A 
HETATM    4  C5  UNL     1      25.194   2.756  53.278  1.00  0.00     0.151 C 
HETATM    5  N1  UNL     1      23.987   3.009  52.941  1.00  0.00    -0.183 NA
HETATM    6  N2  UNL     1      22.839   2.200  52.638  1.00  0.00    -0.262 N 
HETATM    7  C9  UNL     1      22.479   0.906  53.180  1.00  0.00     0.060 A 
HETATM    8  C10 UNL     1      21.104   1.086  53.431  1.00  0.00     0.032 A 
HETATM    9  C11 UNL     1      20.388   0.026  53.971  1.00  0.00     0.002 A 
HETATM   10  C12 UNL     1      21.083  -1.157  54.231  1.00  0.00     0.001 A 
HETATM   11  C13 UNL     1      22.438  -1.330  53.983  1.00  0.00     0.010 A 
HETATM   12  C14 UNL     1      23.181  -0.275  53.438  1.00  0.00    -0.025 A 
HETATM   13  C15 UNL     1      24.528  -0.810  53.324  1.00  0.00     0.080 C 
HETATM   14  C16 UNL     1      25.631   0.136  53.500  1.00  0.00    -0.038 A 
HETATM   15  C17 UNL     1      26.798  -0.486  53.745  1.00  0.00     0.046 A 
ENDROOT
BRANCH   6  16
HETATM   16  C6  UNL     1      21.822   2.634  51.716  1.00  0.00     0.211 C 
BRANCH  16  17
HETATM   17  S1  UNL     1      21.349   4.377  51.800  1.00  0.00    -0.194 SA
BRANCH  17  18
HETATM   18  C7  UNL     1      22.548   5.283  50.831  1.00  0.00     0.166 C 
HETATM   19  C8  UNL     1      23.679   5.995  50.974  1.00  0.00     0.138 C 
BRANCH  19  20
HETATM   20  O2  UNL     1      24.111   6.098  52.286  1.00  0.00    -0.372 OA
HETATM   21  H9  UNL     1      24.843   6.753  52.567  1.00  0.00     0.216 HD
ENDBRANCH  19  20
ENDBRANCH  17  18
ENDBRANCH  16  17
ENDBRANCH   6  16
BRANCH   1  22
HETATM   22  O1  UNL     1      29.218   0.385  54.137  1.00  0.00    -0.355 OA
HETATM   23  C1  UNL     1      29.815  -0.831  53.680  1.00  0.00     0.210 C 
ENDBRANCH   1  22
TORSDOF 5
ENDMDL
MODEL 2
REMARK VINA RESULT:      -7.5      2.600      5.476
REMARK  5 active torsions:
REMARK  status: ('A' for Active; 'I' for Inactive)
REMARK    1  A    between atoms: O1_2  and  C2_3 
REMARK    2  A    between atoms: N2_8  and  C6_9 
REMARK    3  A    between atoms: C6_9  and  S1_10 
REMARK    4  A    between atoms: S1_10  and  C7_11 
REMARK    5  A    between atoms: C8_12  and  O2_13 
ROOT
HETATM    1  C2  UNL     1      19.439  -0.457  52.835  1.00  0.00     0.080 A 
HETATM    2  C3  UNL     1      19.865   0.270  51.814  1.00  0.00     0.023 A 
HETATM    3  C4  UNL     1      21.120   0.605  51.916  1.00  0.00     0.004 A 
HETATM    4  C5  UNL     1      21.696   1.476  50.905  1.00  0.00     0.151 C 
HETATM    5  N1  UNL     1      22.835   2.027  50.720  1.00  0.00    -0.183 NA
HETATM    6  N2  UNL     1      24.078   2.031  51.442  1.00  0.00    -0.262 N 
HETATM    7  C9  UNL     1      24.652   0.979  52.254  1.00  0.00     0.060 A 
HETATM    8  C10 UNL     1      25.994   1.001  51.824  1.00  0.00     0.032 A 
HETATM    9  C11 UNL     1      26.886   0.103  52.396  1.00  0.00     0.002 A 
HETATM   10  C12 UNL     1      26.389  -0.770  53.367  1.00  0.00     0.001 A 
HETATM   11  C13 UNL     1      25.067  -0.789  53.787  1.00  0.00     0.010 A 
HETATM   12  C14 UNL     1      24.149   0.108  53.225  1.00  0.00    -0.025 A 
HETATM   13  C15 UNL     1      22.894  -0.202  53.891  1.00  0.00     0.080 C 
HETATM   14  C16 UNL     1      21.670  -0.025  53.109  1.00  0.00    -0.038 A 
HETATM   15  C17 UNL     1      20.623  -0.668  53.654  1.00  0.00     0.046 A 
ENDROOT
BRANCH   6  16
HETATM   16  C6  UNL     1      24.976   3.155  51.408  1.00  0.00     0.211 C 
BRANCH  16  17
HETATM   17  S1  UNL     1      24.916   4.191  49.927  1.00  0.00    -0.194 SA
BRANCH  17  18
HETATM   18  C7  UNL     1      23.736   5.495  50.257  1.00  0.00     0.166 C 
HETATM   19  C8  UNL     1      23.524   6.518  51.102  1.00  0.00     0.138 C 
BRANCH  19  20
HETATM   20  O2  UNL     1      24.513   6.664  52.060  1.00  0.00    -0.372 OA
HETATM   21  H9  UNL     1      25.481   6.383  51.889  1.00  0.00     0.216 HD
ENDBRANCH  19  20
ENDBRANCH  17  18
ENDBRANCH  16  17
ENDBRANCH   6  16
BRANCH   1  22
HETATM   22  O1  UNL     1      18.119  -0.863  52.974  1.00  0.00    -0.355 OA
HETATM   23  C1  UNL     1      17.932  -2.149  53.570  1.00  0.00     0.210 C 
ENDBRANCH   1  22
TORSDOF 5
ENDMDL
MODEL 3
REMARK VINA RESULT:      -7.4      3.079      4.719
REMARK  5 active torsions:
REMARK  status: ('A' for Active; 'I' for Inactive)
REMARK    1  A    between atoms: O1_2  and  C2_3 
REMARK    2  A    between atoms: N2_8  and  C6_9 
REMARK    3  A    between atoms: C6_9  and  S1_10 
REMARK    4  A    between atoms: S1_10  and  C7_11 
REMARK    5  A    between atoms: C8_12  and  O2_13 
ROOT
HETATM    1  C2  UNL     1      27.991   0.792  53.533  1.00  0.00     0.080 A 
HETATM    2  C3  UNL     1      26.998  -0.057  53.744  1.00  0.00     0.023 A 
HETATM    3  C4  UNL     1      25.870   0.341  53.228  1.00  0.00     0.004 A 
HETATM    4  C5  UNL     1      24.676  -0.456  53.457  1.00  0.00     0.151 C 
HETATM    5  N1  UNL     1      23.438  -0.348  53.157  1.00  0.00    -0.183 NA
HETATM    6  N2  UNL     1      22.659   0.628  52.445  1.00  0.00    -0.262 N 
HETATM    7  C9  UNL     1      23.061   1.471  51.340  1.00  0.00     0.060 A 
HETATM    8  C10 UNL     1      21.950   1.349  50.481  1.00  0.00     0.032 A 
HETATM    9  C11 UNL     1      21.967   2.040  49.277  1.00  0.00     0.002 A 
HETATM   10  C12 UNL     1      23.094   2.815  48.993  1.00  0.00     0.001 A 
HETATM   11  C13 UNL     1      24.187   2.932  49.840  1.00  0.00     0.010 A 
HETATM   12  C14 UNL     1      24.192   2.245  51.062  1.00  0.00    -0.025 A 
HETATM   13  C15 UNL     1      25.468   2.596  51.663  1.00  0.00     0.080 C 
HETATM   14  C16 UNL     1      26.107   1.579  52.497  1.00  0.00    -0.038 A 
HETATM   15  C17 UNL     1      27.412   1.835  52.700  1.00  0.00     0.046 A 
ENDROOT
BRANCH   6  16
HETATM   16  C6  UNL     1      21.274   0.870  52.754  1.00  0.00     0.211 C 
BRANCH  16  17
HETATM   17  S1  UNL     1      20.429  -0.402  53.722  1.00  0.00    -0.194 SA
BRANCH  17  18
HETATM   18  C7  UNL     1      18.804  -0.605  53.002  1.00  0.00     0.166 C 
HETATM   19  C8  UNL     1      17.701  -1.364  53.117  1.00  0.00     0.138 C 
BRANCH  19  20
HETATM   20  O2  UNL     1      17.790  -2.330  54.106  1.00  0.00    -0.372 OA
HETATM   21  H9  UNL     1      17.044  -3.009  54.270  1.00  0.00     0.216 HD
ENDBRANCH  19  20
ENDBRANCH  17  18
ENDBRANCH  16  17
ENDBRANCH   6  16
BRANCH   1  22
HETATM   22  O1  UNL     1      29.265   0.610  54.055  1.00  0.00    -0.355 OA
HETATM   23  C1  UNL     1      29.858  -0.665  53.796  1.00  0.00     0.210 C 
ENDBRANCH   1  22
TORSDOF 5
ENDMDL
MODEL 4
REMARK VINA RESULT:      -7.3      2.099      2.295
REMARK  5 active torsions:
REMARK  status: ('A' for Active; 'I' for Inactive)
REMARK    1  A    between atoms: O1_2  and  C2_3 
REMARK    2  A    between atoms: N2_8  and  C6_9 
REMARK    3  A    between atoms: C6_9  and  S1_10 
REMARK    4  A    between atoms: S1_10  and  C7_11 
REMARK    5  A    between atoms: C8_12  and  O2_13 
ROOT
HETATM    1  C2  UNL     1      26.560   1.063  54.051  1.00  0.00     0.080 A 
HETATM    2  C3  UNL     1      26.080   1.888  53.135  1.00  0.00     0.023 A 
HETATM    3  C4  UNL     1      24.930   1.505  52.657  1.00  0.00     0.004 A 
HETATM    4  C5  UNL     1      24.328   2.275  51.582  1.00  0.00     0.151 C 
HETATM    5  N1  UNL     1      23.274   2.169  50.866  1.00  0.00    -0.183 NA
HETATM    6  N2  UNL     1      22.192   1.224  50.805  1.00  0.00    -0.262 N 
HETATM    7  C9  UNL     1      21.613   0.446  51.879  1.00  0.00     0.060 A 
HETATM    8  C10 UNL     1      20.236   0.601  51.620  1.00  0.00     0.032 A 
HETATM    9  C11 UNL     1      19.330  -0.023  52.467  1.00  0.00     0.002 A 
HETATM   10  C12 UNL     1      19.848  -0.768  53.530  1.00  0.00     0.001 A 
HETATM   11  C13 UNL     1      21.204  -0.919  53.782  1.00  0.00     0.010 A 
HETATM   12  C14 UNL     1      22.137  -0.298  52.940  1.00  0.00    -0.025 A 
HETATM   13  C15 UNL     1      23.425  -0.667  53.504  1.00  0.00     0.080 C 
HETATM   14  C16 UNL     1      24.506   0.312  53.377  1.00  0.00    -0.038 A 
HETATM   15  C17 UNL     1      25.520   0.060  54.223  1.00  0.00     0.046 A 
ENDROOT
BRANCH   6  16
HETATM   16  C6  UNL     1      21.488   0.949  49.580  1.00  0.00     0.211 C 
BRANCH  16  17
HETATM   17  S1  UNL     1      22.065   1.822  48.105  1.00  0.00    -0.194 SA
BRANCH  17  18
HETATM   18  C7  UNL     1      21.168   3.369  48.037  1.00  0.00     0.166 C 
HETATM   19  C8  UNL     1      21.017   4.515  48.722  1.00  0.00     0.138 C 
BRANCH  19  20
HETATM   20  O2  UNL     1      21.783   4.582  49.874  1.00  0.00    -0.372 OA
HETATM   21  H9  UNL     1      22.499   3.886  50.091  1.00  0.00     0.216 HD
ENDBRANCH  19  20
ENDBRANCH  17  18
ENDBRANCH  16  17
ENDBRANCH   6  16
BRANCH   1  22
HETATM   22  O1  UNL     1      27.805   1.231  54.643  1.00  0.00    -0.355 OA
HETATM   23  C1  UNL     1      28.594   0.045  54.763  1.00  0.00     0.210 C 
ENDBRANCH   1  22
TORSDOF 5
ENDMDL
MODEL 5
REMARK VINA RESULT:      -7.1      3.528      5.019
REMARK  5 active torsions:
REMARK  status: ('A' for Active; 'I' for Inactive)
REMARK    1  A    between atoms: O1_2  and  C2_3 
REMARK    2  A    between atoms: N2_8  and  C6_9 
REMARK    3  A    between atoms: C6_9  and  S1_10 
REMARK    4  A    between atoms: S1_10  and  C7_11 
REMARK    5  A    between atoms: C8_12  and  O2_13 
ROOT
HETATM    1  C2  UNL     1      25.917   0.028  54.131  1.00  0.00     0.080 A 
HETATM    2  C3  UNL     1      24.789  -0.663  54.151  1.00  0.00     0.023 A 
HETATM    3  C4  UNL     1      23.871  -0.162  53.375  1.00  0.00     0.004 A 
HETATM    4  C5  UNL     1      22.552  -0.773  53.365  1.00  0.00     0.151 C 
HETATM    5  N1  UNL     1      21.439  -0.526  52.786  1.00  0.00    -0.183 NA
HETATM    6  N2  UNL     1      20.985   0.484  51.870  1.00  0.00    -0.262 N 
HETATM    7  C9  UNL     1      21.738   1.175  50.846  1.00  0.00     0.060 A 
HETATM    8  C10 UNL     1      20.835   1.133  49.764  1.00  0.00     0.032 A 
HETATM    9  C11 UNL     1      21.216   1.717  48.563  1.00  0.00     0.002 A 
HETATM   10  C12 UNL     1      22.479   2.310  48.505  1.00  0.00     0.001 A 
HETATM   11  C13 UNL     1      23.366   2.349  49.572  1.00  0.00     0.010 A 
HETATM   12  C14 UNL     1      23.004   1.768  50.794  1.00  0.00    -0.025 A 
HETATM   13  C15 UNL     1      24.156   1.994  51.651  1.00  0.00     0.080 C 
HETATM   14  C16 UNL     1      24.441   0.971  52.658  1.00  0.00    -0.038 A 
HETATM   15  C17 UNL     1      25.693   1.067  53.138  1.00  0.00     0.046 A 
ENDROOT
BRANCH   6  16
HETATM   16  C6  UNL     1      19.617   0.931  51.844  1.00  0.00     0.211 C 
BRANCH  16  17
HETATM   17  S1  UNL     1      18.349  -0.339  52.061  1.00  0.00    -0.194 SA
BRANCH  17  18
HETATM   18  C7  UNL     1      16.769   0.461  51.808  1.00  0.00     0.166 C 
HETATM   19  C8  UNL     1      15.536   0.521  52.339  1.00  0.00     0.138 C 
BRANCH  19  20
HETATM   20  O2  UNL     1      15.369  -0.281  53.456  1.00  0.00    -0.372 OA
HETATM   21  H9  UNL     1      15.927  -0.155  54.303  1.00  0.00     0.216 HD
ENDBRANCH  19  20
ENDBRANCH  17  18
ENDBRANCH  16  17
ENDBRANCH   6  16
BRANCH   1  22
HETATM   22  O1  UNL     1      27.006  -0.280  54.936  1.00  0.00    -0.355 OA
HETATM   23  C1  UNL     1      28.235   0.357  54.576  1.00  0.00     0.210 C 
ENDBRANCH   1  22
TORSDOF 5
ENDMDL
MODEL 6
REMARK VINA RESULT:      -7.0      3.242      6.187
REMARK  5 active torsions:
REMARK  status: ('A' for Active; 'I' for Inactive)
REMARK    1  A    between atoms: O1_2  and  C2_3 
REMARK    2  A    between atoms: N2_8  and  C6_9 
REMARK    3  A    between atoms: C6_9  and  S1_10 
REMARK    4  A    between atoms: S1_10  and  C7_11 
REMARK    5  A    between atoms: C8_12  and  O2_13 
ROOT
HETATM    1  C2  UNL     1      17.981  -0.342  51.671  1.00  0.00     0.080 A 
HETATM    2  C3  UNL     1      18.688   0.421  50.854  1.00  0.00     0.023 A 
HETATM    3  C4  UNL     1      19.854   0.743  51.339  1.00  0.00     0.004 A 
HETATM    4  C5  UNL     1      20.702   1.648  50.582  1.00  0.00     0.151 C 
HETATM    5  N1  UNL     1      21.841   2.197  50.767  1.00  0.00    -0.183 NA
HETATM    6  N2  UNL     1      22.812   2.164  51.827  1.00  0.00    -0.262 N 
HETATM    7  C9  UNL     1      23.122   1.077  52.731  1.00  0.00     0.060 A 
HETATM    8  C10 UNL     1      24.531   1.106  52.723  1.00  0.00     0.032 A 
HETATM    9  C11 UNL     1      25.216   0.180  53.499  1.00  0.00     0.002 A 
HETATM   10  C12 UNL     1      24.456  -0.728  54.241  1.00  0.00     0.001 A 
HETATM   11  C13 UNL     1      23.069  -0.754  54.246  1.00  0.00     0.010 A 
HETATM   12  C14 UNL     1      22.356   0.172  53.471  1.00  0.00    -0.025 A 
HETATM   13  C15 UNL     1      20.962  -0.155  53.720  1.00  0.00     0.080 C 
HETATM   14  C16 UNL     1      20.026   0.062  52.615  1.00  0.00    -0.038 A 
HETATM   15  C17 UNL     1      18.867  -0.595  52.797  1.00  0.00     0.046 A 
ENDROOT
BRANCH   6  16
HETATM   16  C6  UNL     1      23.674   3.282  52.108  1.00  0.00     0.211 C 
BRANCH  16  17
HETATM   17  S1  UNL     1      23.971   4.433  50.745  1.00  0.00    -0.194 SA
BRANCH  17  18
HETATM   18  C7  UNL     1      25.218   3.686  49.702  1.00  0.00     0.166 C 
HETATM   19  C8  UNL     1      26.481   3.228  49.753  1.00  0.00     0.138 C 
BRANCH  19  20
HETATM   20  O2  UNL     1      27.067   3.347  51.002  1.00  0.00    -0.372 OA
HETATM   21  H9  UNL     1      26.570   3.102  51.861  1.00  0.00     0.216 HD
ENDBRANCH  19  20
ENDBRANCH  17  18
ENDBRANCH  16  17
ENDBRANCH   6  16
BRANCH   1  22
HETATM   22  O1  UNL     1      16.681  -0.744  51.394  1.00  0.00    -0.355 OA
HETATM   23  C1  UNL     1      16.104  -1.651  52.336  1.00  0.00     0.210 C 
ENDBRANCH   1  22
TORSDOF 5
ENDMDL
MODEL 7
REMARK VINA RESULT:      -6.9      2.987      5.723
REMARK  5 active torsions:
REMARK  status: ('A' for Active; 'I' for Inactive)
REMARK    1  A    between atoms: O1_2  and  C2_3 
REMARK    2  A    between atoms: N2_8  and  C6_9 
REMARK    3  A    between atoms: C6_9  and  S1_10 
REMARK    4  A    between atoms: S1_10  and  C7_11 
REMARK    5  A    between atoms: C8_12  and  O2_13 
ROOT
HETATM    1  C2  UNL     1      26.104   5.522  48.997  1.00  0.00     0.080 A 
HETATM    2  C3  UNL     1      24.943   5.461  49.629  1.00  0.00     0.023 A 
HETATM    3  C4  UNL     1      24.757   4.326  50.243  1.00  0.00     0.004 A 
HETATM    4  C5  UNL     1      23.488   4.091  50.909  1.00  0.00     0.151 C 
HETATM    5  N1  UNL     1      22.959   3.114  51.543  1.00  0.00    -0.183 NA
HETATM    6  N2  UNL     1      23.394   1.788  51.886  1.00  0.00    -0.262 N 
HETATM    7  C9  UNL     1      24.735   1.324  52.170  1.00  0.00     0.060 A 
HETATM    8  C10 UNL     1      24.515   0.523  53.309  1.00  0.00     0.032 A 
HETATM    9  C11 UNL     1      25.604  -0.114  53.889  1.00  0.00     0.002 A 
HETATM   10  C12 UNL     1      26.856   0.084  53.302  1.00  0.00     0.001 A 
HETATM   11  C13 UNL     1      27.069   0.873  52.181  1.00  0.00     0.010 A 
HETATM   12  C14 UNL     1      25.985   1.526  51.578  1.00  0.00    -0.025 A 
HETATM   13  C15 UNL     1      26.579   2.245  50.462  1.00  0.00     0.080 C 
HETATM   14  C16 UNL     1      25.961   3.519  50.095  1.00  0.00    -0.038 A 
HETATM   15  C17 UNL     1      26.770   4.272  49.328  1.00  0.00     0.046 A 
ENDROOT
BRANCH   6  16
HETATM   16  C6  UNL     1      22.468   0.695  52.032  1.00  0.00     0.211 C 
BRANCH  16  17
HETATM   17  S1  UNL     1      20.947   1.043  52.947  1.00  0.00    -0.194 SA
BRANCH  17  18
HETATM   18  C7  UNL     1      20.288  -0.535  53.471  1.00  0.00     0.166 C 
HETATM   19  C8  UNL     1      20.554  -1.545  54.316  1.00  0.00     0.138 C 
BRANCH  19  20
HETATM   20  O2  UNL     1      21.711  -1.364  55.056  1.00  0.00    -0.372 OA
HETATM   21  H9  UNL     1      22.511  -0.842  54.693  1.00  0.00     0.216 HD
ENDBRANCH  19  20
ENDBRANCH  17  18
ENDBRANCH  16  17
ENDBRANCH   6  16
BRANCH   1  22
HETATM   22  O1  UNL     1      26.482   6.606  48.216  1.00  0.00    -0.355 OA
HETATM   23  C1  UNL     1      27.872   6.936  48.254  1.00  0.00     0.210 C 
ENDBRANCH   1  22
TORSDOF 5
ENDMDL
MODEL 8
REMARK VINA RESULT:      -6.8      3.221      5.777
REMARK  5 active torsions:
REMARK  status: ('A' for Active; 'I' for Inactive)
REMARK    1  A    between atoms: O1_2  and  C2_3 
REMARK    2  A    between atoms: N2_8  and  C6_9 
REMARK    3  A    between atoms: C6_9  and  S1_10 
REMARK    4  A    between atoms: S1_10  and  C7_11 
REMARK    5  A    between atoms: C8_12  and  O2_13 
ROOT
HETATM    1  C2  UNL     1      23.845   5.099  51.305  1.00  0.00     0.080 A 
HETATM    2  C3  UNL     1      22.567   5.066  51.645  1.00  0.00     0.023 A 
HETATM    3  C4  UNL     1      22.157   3.873  51.971  1.00  0.00     0.004 A 
HETATM    4  C5  UNL     1      20.752   3.676  52.285  1.00  0.00     0.151 C 
HETATM    5  N1  UNL     1      20.018   2.674  52.586  1.00  0.00    -0.183 NA
HETATM    6  N2  UNL     1      20.259   1.267  52.751  1.00  0.00    -0.262 N 
HETATM    7  C9  UNL     1      21.457   0.607  53.225  1.00  0.00     0.060 A 
HETATM    8  C10 UNL     1      20.915  -0.347  54.110  1.00  0.00     0.032 A 
HETATM    9  C11 UNL     1      21.786  -1.198  54.778  1.00  0.00     0.002 A 
HETATM   10  C12 UNL     1      23.152  -1.050  54.528  1.00  0.00     0.001 A 
HETATM   11  C13 UNL     1      23.682  -0.109  53.656  1.00  0.00     0.010 A 
HETATM   12  C14 UNL     1      22.823   0.760  52.969  1.00  0.00    -0.025 A 
HETATM   13  C15 UNL     1      23.715   1.585  52.172  1.00  0.00     0.080 C 
HETATM   14  C16 UNL     1      23.298   2.968  51.934  1.00  0.00    -0.038 A 
HETATM   15  C17 UNL     1      24.318   3.741  51.523  1.00  0.00     0.046 A 
ENDROOT
BRANCH   6  16
HETATM   16  C6  UNL     1      19.246   0.282  52.476  1.00  0.00     0.211 C 
BRANCH  16  17
HETATM   17  S1  UNL     1      17.935   0.772  51.331  1.00  0.00    -0.194 SA
BRANCH  17  18
HETATM   18  C7  UNL     1      16.700  -0.522  51.376  1.00  0.00     0.166 C 
HETATM   19  C8  UNL     1      15.783  -1.058  52.200  1.00  0.00     0.138 C 
BRANCH  19  20
HETATM   20  O2  UNL     1      15.727  -0.450  53.443  1.00  0.00    -0.372 OA
HETATM   21  H9  UNL     1      16.254   0.400  53.656  1.00  0.00     0.216 HD
ENDBRANCH  19  20
ENDBRANCH  17  18
ENDBRANCH  16  17
ENDBRANCH   6  16
BRANCH   1  22
HETATM   22  O1  UNL     1      24.476   6.250  50.851  1.00  0.00    -0.355 OA
HETATM   23  C1  UNL     1      23.682   7.438  50.877  1.00  0.00     0.210 C 
ENDBRANCH   1  22
TORSDOF 5
ENDMDL
MODEL 9
REMARK VINA RESULT:      -6.8      1.690      2.317
REMARK  5 active torsions:
REMARK  status: ('A' for Active; 'I' for Inactive)
REMARK    1  A    between atoms: O1_2  and  C2_3 
REMARK    2  A    between atoms: N2_8  and  C6_9 
REMARK    3  A    between atoms: C6_9  and  S1_10 
REMARK    4  A    between atoms: S1_10  and  C7_11 
REMARK    5  A    between atoms: C8_12  and  O2_13 
ROOT
HETATM    1  C2  UNL     1      26.138   0.830  53.723  1.00  0.00     0.080 A 
HETATM    2  C3  UNL     1      25.815   2.108  53.838  1.00  0.00     0.023 A 
HETATM    3  C4  UNL     1      24.694   2.406  53.243  1.00  0.00     0.004 A 
HETATM    4  C5  UNL     1      24.262   3.793  53.218  1.00  0.00     0.151 C 
HETATM    5  N1  UNL     1      23.281   4.432  52.705  1.00  0.00    -0.183 NA
HETATM    6  N2  UNL     1      22.146   4.056  51.907  1.00  0.00    -0.262 N 
HETATM    7  C9  UNL     1      21.405   2.813  51.922  1.00  0.00     0.060 A 
HETATM    8  C10 UNL     1      20.077   3.283  51.889  1.00  0.00     0.032 A 
HETATM    9  C11 UNL     1      19.046   2.352  51.891  1.00  0.00     0.002 A 
HETATM   10  C12 UNL     1      19.398   1.000  51.928  1.00  0.00     0.001 A 
HETATM   11  C13 UNL     1      20.707   0.541  51.960  1.00  0.00     0.010 A 
HETATM   12  C14 UNL     1      21.763   1.462  51.958  1.00  0.00    -0.025 A 
HETATM   13  C15 UNL     1      22.957   0.634  52.002  1.00  0.00     0.080 C 
HETATM   14  C16 UNL     1      24.113   1.179  52.713  1.00  0.00    -0.038 A 
HETATM   15  C17 UNL     1      25.015   0.230  53.019  1.00  0.00     0.046 A 
ENDROOT
BRANCH   6  16
HETATM   16  C6  UNL     1      21.551   4.957  50.955  1.00  0.00     0.211 C 
BRANCH  16  17
HETATM   17  S1  UNL     1      22.608   5.505  49.594  1.00  0.00    -0.194 SA
BRANCH  17  18
HETATM   18  C7  UNL     1      23.139   7.167  49.990  1.00  0.00     0.166 C 
HETATM   19  C8  UNL     1      23.880   7.836  50.890  1.00  0.00     0.138 C 
BRANCH  19  20
HETATM   20  O2  UNL     1      24.447   7.026  51.859  1.00  0.00    -0.372 OA
HETATM   21  H9  UNL     1      23.881   6.504  52.530  1.00  0.00     0.216 HD
ENDBRANCH  19  20
ENDBRANCH  17  18
ENDBRANCH  16  17
ENDBRANCH   6  16
BRANCH   1  22
HETATM   22  O1  UNL     1      27.325   0.304  54.214  1.00  0.00    -0.355 OA
HETATM   23  C1  UNL     1      27.985  -0.630  53.355  1.00  0.00     0.210 C 
ENDBRANCH   1  22
TORSDOF 5
ENDMDL
