MODEL 1
REMARK VINA RESULT:      -8.2      0.000      0.000
REMARK  2 active torsions:
REMARK  status: ('A' for Active; 'I' for Inactive)
REMARK    1  A    between atoms: C3_3  and  C4_5 
REMARK    2  A    between atoms: C9_12  and  N2_13 
ROOT
HETATM    1  C4  UNL     1      27.172  -0.294  52.824  1.00  0.00     0.049 C 
HETATM    2  C5  UNL     1      26.033   0.038  53.409  1.00  0.00    -0.023 C 
HETATM    3  C6  UNL     1      24.926  -0.714  54.048  1.00  0.00     0.214 C 
HETATM    4  O1  UNL     1      23.783   0.021  53.670  1.00  0.00    -0.332 OA
HETATM    5  C7  UNL     1      24.113   1.228  53.074  1.00  0.00     0.163 C 
HETATM    6  N1  UNL     1      23.301   1.833  52.313  1.00  0.00    -0.263 NA
HETATM    7  C8  UNL     1      23.465   3.069  51.620  1.00  0.00     0.209 C 
HETATM    8  C9  UNL     1      24.841   3.326  51.127  1.00  0.00     0.045 C 
HETATM    9  C16 UNL     1      26.022   3.053  51.600  1.00  0.00     0.110 C 
HETATM   10  N3  UNL     1      26.194   2.375  52.832  1.00  0.00    -0.382 N 
HETATM   11  C17 UNL     1      25.479   1.411  53.606  1.00  0.00     0.189 C 
HETATM   12  H20 UNL     1      27.064   2.564  53.416  1.00  0.00     0.160 HD
ENDROOT
BRANCH   8  13
HETATM   13  N2  UNL     1      24.923   4.021  49.859  1.00  0.00    -0.347 N 
HETATM   14  C10 UNL     1      23.893   3.854  48.850  1.00  0.00     0.153 C 
HETATM   15  C11 UNL     1      23.441   5.201  48.363  1.00  0.00    -0.005 C 
HETATM   16  C12 UNL     1      24.208   6.269  48.364  1.00  0.00    -0.082 C 
HETATM   17  C13 UNL     1      23.746   7.613  47.875  1.00  0.00     0.043 C 
HETATM   18  C14 UNL     1      25.588   6.193  48.855  1.00  0.00     0.092 C 
HETATM   19  C15 UNL     1      25.987   4.911  49.477  1.00  0.00     0.275 C 
HETATM   20  F2  UNL     1      26.858   4.221  48.640  1.00  0.00    -0.226 F 
ENDBRANCH   8  13
BRANCH   1  21
HETATM   21  C3  UNL     1      27.596  -1.679  52.689  1.00  0.00     0.112 C 
HETATM   22  C2  UNL     1      28.816  -2.034  53.132  1.00  0.00     0.011 C 
HETATM   23  C1  UNL     1      29.933  -1.275  53.783  1.00  0.00     0.039 C 
HETATM   24  F1  UNL     1      26.814  -2.634  52.136  1.00  0.00    -0.206 F 
ENDBRANCH   1  21
TORSDOF 2
ENDMDL
MODEL 2
REMARK VINA RESULT:      -8.0      2.963      7.181
REMARK  2 active torsions:
REMARK  status: ('A' for Active; 'I' for Inactive)
REMARK    1  A    between atoms: C3_3  and  C4_5 
REMARK    2  A    between atoms: C9_12  and  N2_13 
ROOT
HETATM    1  C4  UNL     1      21.452   3.497  52.340  1.00  0.00     0.049 C 
HETATM    2  C5  UNL     1      22.343   3.999  51.503  1.00  0.00    -0.023 C 
HETATM    3  C6  UNL     1      22.320   4.429  50.083  1.00  0.00     0.214 C 
HETATM    4  O1  UNL     1      23.587   4.028  49.609  1.00  0.00    -0.332 OA
HETATM    5  C7  UNL     1      24.421   3.617  50.635  1.00  0.00     0.163 C 
HETATM    6  N1  UNL     1      25.410   2.856  50.420  1.00  0.00    -0.263 NA
HETATM    7  C8  UNL     1      26.367   2.337  51.341  1.00  0.00     0.209 C 
HETATM    8  C9  UNL     1      25.824   2.019  52.685  1.00  0.00     0.045 C 
HETATM    9  C16 UNL     1      24.914   2.573  53.431  1.00  0.00     0.110 C 
HETATM   10  N3  UNL     1      24.204   3.726  53.012  1.00  0.00    -0.382 N 
HETATM   11  C17 UNL     1      23.780   4.302  51.777  1.00  0.00     0.189 C 
HETATM   12  H20 UNL     1      23.846   4.412  53.742  1.00  0.00     0.160 HD
ENDROOT
BRANCH   8  13
HETATM   13  N2  UNL     1      26.405   0.858  53.327  1.00  0.00    -0.347 N 
HETATM   14  C10 UNL     1      26.361  -0.446  52.690  1.00  0.00     0.153 C 
HETATM   15  C11 UNL     1      27.732  -1.060  52.702  1.00  0.00    -0.005 C 
HETATM   16  C12 UNL     1      28.639  -0.793  53.615  1.00  0.00    -0.082 C 
HETATM   17  C13 UNL     1      30.009  -1.412  53.619  1.00  0.00     0.043 C 
HETATM   18  C14 UNL     1      28.346   0.147  54.703  1.00  0.00     0.092 C 
HETATM   19  C15 UNL     1      27.058   0.868  54.610  1.00  0.00     0.275 C 
HETATM   20  F2  UNL     1      26.166   0.386  55.560  1.00  0.00    -0.226 F 
ENDBRANCH   8  13
BRANCH   1  21
HETATM   21  C3  UNL     1      20.076   3.240  51.944  1.00  0.00     0.112 C 
HETATM   22  C2  UNL     1      19.622   1.974  51.947  1.00  0.00     0.011 C 
HETATM   23  C1  UNL     1      20.252   0.657  52.287  1.00  0.00     0.039 C 
HETATM   24  F1  UNL     1      19.225   4.224  51.573  1.00  0.00    -0.206 F 
ENDBRANCH   1  21
TORSDOF 2
ENDMDL
MODEL 3
REMARK VINA RESULT:      -7.6      2.327      7.046
REMARK  2 active torsions:
REMARK  status: ('A' for Active; 'I' for Inactive)
REMARK    1  A    between atoms: C3_3  and  C4_5 
REMARK    2  A    between atoms: C9_12  and  N2_13 
ROOT
HETATM    1  C4  UNL     1      25.209   5.443  48.853  1.00  0.00     0.049 C 
HETATM    2  C5  UNL     1      24.212   5.624  49.703  1.00  0.00    -0.023 C 
HETATM    3  C6  UNL     1      23.632   6.796  50.404  1.00  0.00     0.214 C 
HETATM    4  O1  UNL     1      23.285   6.269  51.667  1.00  0.00    -0.332 OA
HETATM    5  C7  UNL     1      23.391   4.889  51.703  1.00  0.00     0.163 C 
HETATM    6  N1  UNL     1      23.528   4.265  52.797  1.00  0.00    -0.263 NA
HETATM    7  C8  UNL     1      23.652   2.863  53.026  1.00  0.00     0.209 C 
HETATM    8  C9  UNL     1      24.399   2.126  51.976  1.00  0.00     0.045 C 
HETATM    9  C16 UNL     1      24.484   2.258  50.685  1.00  0.00     0.110 C 
HETATM   10  N3  UNL     1      23.774   3.269  49.989  1.00  0.00    -0.382 N 
HETATM   11  C17 UNL     1      23.293   4.585  50.260  1.00  0.00     0.189 C 
HETATM   12  H20 UNL     1      23.474   3.097  48.983  1.00  0.00     0.160 HD
ENDROOT
BRANCH   8  13
HETATM   13  N2  UNL     1      25.213   1.027  52.453  1.00  0.00    -0.347 N 
HETATM   14  C10 UNL     1      26.413   0.625  51.741  1.00  0.00     0.153 C 
HETATM   15  C11 UNL     1      27.558   0.513  52.706  1.00  0.00    -0.005 C 
HETATM   16  C12 UNL     1      27.410   0.224  53.980  1.00  0.00    -0.082 C 
HETATM   17  C13 UNL     1      28.563   0.115  54.938  1.00  0.00     0.043 C 
HETATM   18  C14 UNL     1      26.074  -0.012  54.538  1.00  0.00     0.092 C 
HETATM   19  C15 UNL     1      24.935   0.248  53.631  1.00  0.00     0.275 C 
HETATM   20  F2  UNL     1      24.350  -0.950  53.236  1.00  0.00    -0.226 F 
ENDBRANCH   8  13
BRANCH   1  21
HETATM   21  C3  UNL     1      26.039   6.545  48.390  1.00  0.00     0.112 C 
HETATM   22  C2  UNL     1      27.360   6.346  48.234  1.00  0.00     0.011 C 
HETATM   23  C1  UNL     1      28.252   5.160  48.446  1.00  0.00     0.039 C 
HETATM   24  F1  UNL     1      25.538   7.769  48.103  1.00  0.00    -0.206 F 
ENDBRANCH   1  21
TORSDOF 2
ENDMDL
MODEL 4
REMARK VINA RESULT:      -7.6      2.491      3.011
REMARK  2 active torsions:
REMARK  status: ('A' for Active; 'I' for Inactive)
REMARK    1  A    between atoms: C3_3  and  C4_5 
REMARK    2  A    between atoms: C9_12  and  N2_13 
ROOT
HETATM    1  C4  UNL     1      25.996   0.100  52.339  1.00  0.00     0.049 C 
HETATM    2  C5  UNL     1      24.927   0.199  53.111  1.00  0.00    -0.023 C 
HETATM    3  C6  UNL     1      24.338  -0.625  54.195  1.00  0.00     0.214 C 
HETATM    4  O1  UNL     1      22.951  -0.498  53.973  1.00  0.00    -0.332 OA
HETATM    5  C7  UNL     1      22.661   0.474  53.029  1.00  0.00     0.163 C 
HETATM    6  N1  UNL     1      21.566   0.472  52.392  1.00  0.00    -0.263 NA
HETATM    7  C8  UNL     1      21.101   1.380  51.396  1.00  0.00     0.209 C 
HETATM    8  C9  UNL     1      22.156   1.911  50.498  1.00  0.00     0.045 C 
HETATM    9  C16 UNL     1      23.403   2.234  50.683  1.00  0.00     0.110 C 
HETATM   10  N3  UNL     1      24.026   2.111  51.949  1.00  0.00    -0.382 N 
HETATM   11  C17 UNL     1      23.897   1.281  53.103  1.00  0.00     0.189 C 
HETATM   12  H20 UNL     1      24.820   2.771  52.207  1.00  0.00     0.160 HD
ENDROOT
BRANCH   8  13
HETATM   13  N2  UNL     1      21.749   2.123  49.125  1.00  0.00    -0.347 N 
HETATM   14  C10 UNL     1      20.386   1.854  48.701  1.00  0.00     0.153 C 
HETATM   15  C11 UNL     1      19.853   3.032  47.937  1.00  0.00    -0.005 C 
HETATM   16  C12 UNL     1      20.614   3.859  47.254  1.00  0.00    -0.082 C 
HETATM   17  C13 UNL     1      20.071   5.036  46.493  1.00  0.00     0.043 C 
HETATM   18  C14 UNL     1      22.067   3.664  47.203  1.00  0.00     0.092 C 
HETATM   19  C15 UNL     1      22.611   2.601  48.076  1.00  0.00     0.275 C 
HETATM   20  F2  UNL     1      23.018   1.512  47.312  1.00  0.00    -0.226 F 
ENDBRANCH   8  13
BRANCH   1  21
HETATM   21  C3  UNL     1      26.924  -1.015  52.442  1.00  0.00     0.112 C 
HETATM   22  C2  UNL     1      28.107  -0.826  53.054  1.00  0.00     0.011 C 
HETATM   23  C1  UNL     1      28.748   0.363  53.705  1.00  0.00     0.039 C 
HETATM   24  F1  UNL     1      26.649  -2.245  51.950  1.00  0.00    -0.206 F 
ENDBRANCH   1  21
TORSDOF 2
ENDMDL
MODEL 5
REMARK VINA RESULT:      -7.4      2.383      7.330
REMARK  2 active torsions:
REMARK  status: ('A' for Active; 'I' for Inactive)
REMARK    1  A    between atoms: C3_3  and  C4_5 
REMARK    2  A    between atoms: C9_12  and  N2_13 
ROOT
HETATM    1  C4  UNL     1      24.852   5.940  49.979  1.00  0.00     0.049 C 
HETATM    2  C5  UNL     1      24.024   4.937  49.742  1.00  0.00    -0.023 C 
HETATM    3  C6  UNL     1      22.553   4.805  49.598  1.00  0.00     0.214 C 
HETATM    4  O1  UNL     1      22.285   3.561  50.209  1.00  0.00    -0.332 OA
HETATM    5  C7  UNL     1      23.445   2.859  50.493  1.00  0.00     0.163 C 
HETATM    6  N1  UNL     1      23.469   1.952  51.377  1.00  0.00    -0.263 NA
HETATM    7  C8  UNL     1      24.558   1.134  51.800  1.00  0.00     0.209 C 
HETATM    8  C9  UNL     1      25.880   1.808  51.793  1.00  0.00     0.045 C 
HETATM    9  C16 UNL     1      26.420   2.700  51.015  1.00  0.00     0.110 C 
HETATM   10  N3  UNL     1      25.728   3.237  49.901  1.00  0.00    -0.382 N 
HETATM   11  C17 UNL     1      24.373   3.498  49.538  1.00  0.00     0.189 C 
HETATM   12  H20 UNL     1      26.280   3.566  49.053  1.00  0.00     0.160 HD
ENDROOT
BRANCH   8  13
HETATM   13  N2  UNL     1      26.779   1.416  52.858  1.00  0.00    -0.347 N 
HETATM   14  C10 UNL     1      26.413   0.368  53.795  1.00  0.00     0.153 C 
HETATM   15  C11 UNL     1      27.536  -0.624  53.906  1.00  0.00    -0.005 C 
HETATM   16  C12 UNL     1      28.799  -0.317  53.707  1.00  0.00    -0.082 C 
HETATM   17  C13 UNL     1      29.915  -1.317  53.820  1.00  0.00     0.043 C 
HETATM   18  C14 UNL     1      29.185   1.055  53.358  1.00  0.00     0.092 C 
HETATM   19  C15 UNL     1      28.074   1.996  53.097  1.00  0.00     0.275 C 
HETATM   20  F2  UNL     1      27.961   2.908  54.140  1.00  0.00    -0.226 F 
ENDBRANCH   8  13
BRANCH   1  21
HETATM   21  C3  UNL     1      24.382   7.303  50.169  1.00  0.00     0.112 C 
HETATM   22  C2  UNL     1      24.571   8.201  49.186  1.00  0.00     0.011 C 
HETATM   23  C1  UNL     1      25.208   8.122  47.831  1.00  0.00     0.039 C 
HETATM   24  F1  UNL     1      23.755   7.712  51.296  1.00  0.00    -0.206 F 
ENDBRANCH   1  21
TORSDOF 2
ENDMDL
MODEL 6
REMARK VINA RESULT:      -7.3      3.881      5.153
REMARK  2 active torsions:
REMARK  status: ('A' for Active; 'I' for Inactive)
REMARK    1  A    between atoms: C3_3  and  C4_5 
REMARK    2  A    between atoms: C9_12  and  N2_13 
ROOT
HETATM    1  C4  UNL     1      20.320   0.509  53.327  1.00  0.00     0.049 C 
HETATM    2  C5  UNL     1      19.764   0.922  52.201  1.00  0.00    -0.023 C 
HETATM    3  C6  UNL     1      18.996   0.270  51.112  1.00  0.00     0.214 C 
HETATM    4  O1  UNL     1      19.451   0.941  49.957  1.00  0.00    -0.332 OA
HETATM    5  C7  UNL     1      20.225   2.047  50.268  1.00  0.00     0.163 C 
HETATM    6  N1  UNL     1      21.047   2.534  49.436  1.00  0.00    -0.263 NA
HETATM    7  C8  UNL     1      21.917   3.655  49.579  1.00  0.00     0.209 C 
HETATM    8  C9  UNL     1      22.474   3.839  50.942  1.00  0.00     0.045 C 
HETATM    9  C16 UNL     1      21.994   3.639  52.135  1.00  0.00     0.110 C 
HETATM   10  N3  UNL     1      20.680   3.149  52.338  1.00  0.00    -0.382 N 
HETATM   11  C17 UNL     1      19.758   2.309  51.645  1.00  0.00     0.189 C 
HETATM   12  H20 UNL     1      20.151   3.423  53.220  1.00  0.00     0.160 HD
ENDROOT
BRANCH   8  13
HETATM   13  N2  UNL     1      23.832   4.340  50.992  1.00  0.00    -0.347 N 
HETATM   14  C10 UNL     1      24.940   3.461  51.323  1.00  0.00     0.153 C 
HETATM   15  C11 UNL     1      26.034   3.623  50.307  1.00  0.00    -0.005 C 
HETATM   16  C12 UNL     1      26.241   4.733  49.633  1.00  0.00    -0.082 C 
HETATM   17  C13 UNL     1      27.338   4.886  48.618  1.00  0.00     0.043 C 
HETATM   18  C14 UNL     1      25.386   5.905  49.850  1.00  0.00     0.092 C 
HETATM   19  C15 UNL     1      24.216   5.703  50.732  1.00  0.00     0.275 C 
HETATM   20  F2  UNL     1      24.415   6.342  51.951  1.00  0.00    -0.226 F 
ENDBRANCH   8  13
BRANCH   1  21
HETATM   21  C3  UNL     1      20.261  -0.880  53.755  1.00  0.00     0.112 C 
HETATM   22  C2  UNL     1      21.357  -1.445  54.291  1.00  0.00     0.011 C 
HETATM   23  C1  UNL     1      22.741  -0.940  54.572  1.00  0.00     0.039 C 
HETATM   24  F1  UNL     1      19.144  -1.635  53.640  1.00  0.00    -0.206 F 
ENDBRANCH   1  21
TORSDOF 2
ENDMDL
MODEL 7
REMARK VINA RESULT:      -7.3      3.479      8.092
REMARK  2 active torsions:
REMARK  status: ('A' for Active; 'I' for Inactive)
REMARK    1  A    between atoms: C3_3  and  C4_5 
REMARK    2  A    between atoms: C9_12  and  N2_13 
ROOT
HETATM    1  C4  UNL     1      21.775   7.272  50.825  1.00  0.00     0.049 C 
HETATM    2  C5  UNL     1      23.074   7.359  50.592  1.00  0.00    -0.023 C 
HETATM    3  C6  UNL     1      23.914   8.075  49.600  1.00  0.00     0.214 C 
HETATM    4  O1  UNL     1      24.947   7.151  49.335  1.00  0.00    -0.332 OA
HETATM    5  C7  UNL     1      24.928   6.081  50.213  1.00  0.00     0.163 C 
HETATM    6  N1  UNL     1      25.472   4.975  49.920  1.00  0.00    -0.263 NA
HETATM    7  C8  UNL     1      25.551   3.777  50.689  1.00  0.00     0.209 C 
HETATM    8  C9  UNL     1      24.358   3.497  51.527  1.00  0.00     0.045 C 
HETATM    9  C16 UNL     1      23.534   4.259  52.185  1.00  0.00     0.110 C 
HETATM   10  N3  UNL     1      23.674   5.669  52.204  1.00  0.00    -0.382 N 
HETATM   11  C17 UNL     1      24.178   6.682  51.335  1.00  0.00     0.189 C 
HETATM   12  H20 UNL     1      23.339   6.215  53.054  1.00  0.00     0.160 HD
ENDROOT
BRANCH   8  13
HETATM   13  N2  UNL     1      24.010   2.097  51.658  1.00  0.00    -0.347 N 
HETATM   14  C10 UNL     1      25.019   1.105  51.983  1.00  0.00     0.153 C 
HETATM   15  C11 UNL     1      24.536   0.249  53.119  1.00  0.00    -0.005 C 
HETATM   16  C12 UNL     1      23.266   0.013  53.362  1.00  0.00    -0.082 C 
HETATM   17  C13 UNL     1      22.792  -0.845  54.502  1.00  0.00     0.043 C 
HETATM   18  C14 UNL     1      22.224   0.595  52.508  1.00  0.00     0.092 C 
HETATM   19  C15 UNL     1      22.685   1.560  51.486  1.00  0.00     0.275 C 
HETATM   20  F2  UNL     1      22.602   0.996  50.218  1.00  0.00    -0.226 F 
ENDBRANCH   8  13
BRANCH   1  21
HETATM   21  C3  UNL     1      20.794   7.981  50.017  1.00  0.00     0.112 C 
HETATM   22  C2  UNL     1      19.966   7.274  49.228  1.00  0.00     0.011 C 
HETATM   23  C1  UNL     1      19.803   5.807  48.962  1.00  0.00     0.039 C 
HETATM   24  F1  UNL     1      20.675   9.328  50.025  1.00  0.00    -0.206 F 
ENDBRANCH   1  21
TORSDOF 2
ENDMDL
MODEL 8
REMARK VINA RESULT:      -6.9      4.590      6.087
REMARK  2 active torsions:
REMARK  status: ('A' for Active; 'I' for Inactive)
REMARK    1  A    between atoms: C3_3  and  C4_5 
REMARK    2  A    between atoms: C9_12  and  N2_13 
ROOT
HETATM    1  C4  UNL     1      24.103   0.104  52.738  1.00  0.00     0.049 C 
HETATM    2  C5  UNL     1      24.100   1.404  52.495  1.00  0.00    -0.023 C 
HETATM    3  C6  UNL     1      24.744   2.587  53.118  1.00  0.00     0.214 C 
HETATM    4  O1  UNL     1      23.750   3.583  53.008  1.00  0.00    -0.332 OA
HETATM    5  C7  UNL     1      22.697   3.182  52.203  1.00  0.00     0.163 C 
HETATM    6  N1  UNL     1      21.553   3.719  52.293  1.00  0.00    -0.263 NA
HETATM    7  C8  UNL     1      20.365   3.440  51.556  1.00  0.00     0.209 C 
HETATM    8  C9  UNL     1      20.177   2.012  51.199  1.00  0.00     0.045 C 
HETATM    9  C16 UNL     1      21.002   1.061  50.869  1.00  0.00     0.110 C 
HETATM   10  N3  UNL     1      22.399   1.279  50.789  1.00  0.00    -0.382 N 
HETATM   11  C17 UNL     1      23.364   2.125  51.414  1.00  0.00     0.189 C 
HETATM   12  H20 UNL     1      22.980   0.702  50.109  1.00  0.00     0.160 HD
ENDROOT
BRANCH   8  13
HETATM   13  N2  UNL     1      18.806   1.547  51.212  1.00  0.00    -0.347 N 
HETATM   14  C10 UNL     1      17.705   2.475  51.400  1.00  0.00     0.153 C 
HETATM   15  C11 UNL     1      16.667   2.248  50.339  1.00  0.00    -0.005 C 
HETATM   16  C12 UNL     1      16.468   1.088  49.753  1.00  0.00    -0.082 C 
HETATM   17  C13 UNL     1      15.426   0.870  48.692  1.00  0.00     0.043 C 
HETATM   18  C14 UNL     1      17.278  -0.079  50.121  1.00  0.00     0.092 C 
HETATM   19  C15 UNL     1      18.401   0.175  51.050  1.00  0.00     0.275 C 
HETATM   20  F2  UNL     1      18.115  -0.350  52.305  1.00  0.00    -0.226 F 
ENDBRANCH   8  13
BRANCH   1  21
HETATM   21  C3  UNL     1      24.861  -0.477  53.835  1.00  0.00     0.112 C 
HETATM   22  C2  UNL     1      26.158  -0.776  53.645  1.00  0.00     0.011 C 
HETATM   23  C1  UNL     1      27.082  -0.644  52.471  1.00  0.00     0.039 C 
HETATM   24  F1  UNL     1      24.318  -0.728  55.048  1.00  0.00    -0.206 F 
ENDBRANCH   1  21
TORSDOF 2
ENDMDL
MODEL 9
REMARK VINA RESULT:      -6.9      3.226      4.139
REMARK  2 active torsions:
REMARK  status: ('A' for Active; 'I' for Inactive)
REMARK    1  A    between atoms: C3_3  and  C4_5 
REMARK    2  A    between atoms: C9_12  and  N2_13 
ROOT
HETATM    1  C4  UNL     1      22.977   1.179  52.946  1.00  0.00     0.049 C 
HETATM    2  C5  UNL     1      22.086   1.262  51.972  1.00  0.00    -0.023 C 
HETATM    3  C6  UNL     1      21.457   0.292  51.043  1.00  0.00     0.214 C 
HETATM    4  O1  UNL     1      21.353   1.025  49.842  1.00  0.00    -0.332 OA
HETATM    5  C7  UNL     1      21.643   2.367  50.023  1.00  0.00     0.163 C 
HETATM    6  N1  UNL     1      22.005   3.102  49.057  1.00  0.00    -0.263 NA
HETATM    7  C8  UNL     1      22.341   4.488  49.055  1.00  0.00     0.209 C 
HETATM    8  C9  UNL     1      23.032   4.961  50.280  1.00  0.00     0.045 C 
HETATM    9  C16 UNL     1      22.926   4.649  51.539  1.00  0.00     0.110 C 
HETATM   10  N3  UNL     1      22.004   3.673  51.991  1.00  0.00    -0.382 N 
HETATM   11  C17 UNL     1      21.395   2.490  51.475  1.00  0.00     0.189 C 
HETATM   12  H20 UNL     1      21.597   3.754  52.971  1.00  0.00     0.160 HD
ENDROOT
BRANCH   8  13
HETATM   13  N2  UNL     1      24.039   5.979  50.067  1.00  0.00    -0.347 N 
HETATM   14  C10 UNL     1      25.442   5.625  49.940  1.00  0.00     0.153 C 
HETATM   15  C11 UNL     1      26.021   6.286  48.722  1.00  0.00    -0.005 C 
HETATM   16  C12 UNL     1      25.571   7.417  48.225  1.00  0.00    -0.082 C 
HETATM   17  C13 UNL     1      26.157   8.071  47.005  1.00  0.00     0.043 C 
HETATM   18  C14 UNL     1      24.444   8.112  48.860  1.00  0.00     0.092 C 
HETATM   19  C15 UNL     1      23.774   7.390  49.963  1.00  0.00     0.275 C 
HETATM   20  F2  UNL     1      24.078   7.985  51.182  1.00  0.00    -0.226 F 
ENDBRANCH   8  13
BRANCH   1  21
HETATM   21  C3  UNL     1      23.586  -0.085  53.331  1.00  0.00     0.112 C 
HETATM   22  C2  UNL     1      22.933  -0.889  54.190  1.00  0.00     0.011 C 
HETATM   23  C1  UNL     1      21.619  -0.778  54.904  1.00  0.00     0.039 C 
HETATM   24  F1  UNL     1      24.787  -0.493  52.860  1.00  0.00    -0.206 F 
ENDBRANCH   1  21
TORSDOF 2
ENDMDL
