MODEL 1
REMARK VINA RESULT:      -8.2      0.000      0.000
REMARK  2 active torsions:
REMARK  status: ('A' for Active; 'I' for Inactive)
REMARK    1  A    between atoms: S1_2  and  C2_3 
REMARK    2  A    between atoms: N2_13  and  N3_14 
ROOT
HETATM    1  C2  UNL     1      19.327   0.073  52.187  1.00  0.00     0.001 A 
HETATM    2  C3  UNL     1      19.496  -0.648  53.357  1.00  0.00     0.021 A 
HETATM    3  C4  UNL     1      20.750  -0.786  53.921  1.00  0.00     0.039 A 
HETATM    4  C5  UNL     1      21.800  -0.184  53.274  1.00  0.00     0.089 A 
HETATM    5  C6  UNL     1      21.666   0.546  52.099  1.00  0.00     0.001 A 
HETATM    6  C7  UNL     1      20.415   0.669  51.561  1.00  0.00     0.032 A 
HETATM    7  C8  UNL     1      22.692   1.230  51.319  1.00  0.00     0.048 C 
HETATM    8  C9  UNL     1      23.939   1.416  51.642  1.00  0.00     0.091 C 
HETATM    9  N1  UNL     1      24.622   0.568  52.295  1.00  0.00    -0.203 NA
HETATM   10  C10 UNL     1      24.294  -0.166  53.483  1.00  0.00     0.291 C 
HETATM   11  N2  UNL     1      25.185  -0.685  54.249  1.00  0.00    -0.126 NA
HETATM   12  O1  UNL     1      22.991  -0.410  53.957  1.00  0.00    -0.275 OA
ENDROOT
BRANCH  11  13
HETATM   13  N3  UNL     1      26.544  -0.577  53.987  1.00  0.00    -0.272 N 
HETATM   14  C11 UNL     1      27.226   0.574  54.467  1.00  0.00     0.139 A 
HETATM   15  C12 UNL     1      28.535   0.703  54.227  1.00  0.00     0.089 A 
HETATM   16 CL1  UNL     1      29.461   2.088  54.780  1.00  0.00    -0.080 Cl
HETATM   17  C13 UNL     1      29.296  -0.305  53.486  1.00  0.00     0.137 A 
HETATM   18  F1  UNL     1      30.629  -0.170  53.244  1.00  0.00    -0.205 F 
HETATM   19  C14 UNL     1      28.636  -1.370  53.048  1.00  0.00     0.039 A 
HETATM   20  C15 UNL     1      27.185  -1.639  53.242  1.00  0.00     0.180 A 
ENDBRANCH  11  13
BRANCH   1  21
HETATM   21  S1  UNL     1      17.653   0.170  51.571  1.00  0.00    -0.134 SA
HETATM   22  C1  UNL     1      16.672  -0.980  52.607  1.00  0.00     0.095 C 
ENDBRANCH   1  21
TORSDOF 2
ENDMDL
MODEL 2
REMARK VINA RESULT:      -7.9      1.690      2.639
REMARK  2 active torsions:
REMARK  status: ('A' for Active; 'I' for Inactive)
REMARK    1  A    between atoms: S1_2  and  C2_3 
REMARK    2  A    between atoms: N2_13  and  N3_14 
ROOT
HETATM    1  C2  UNL     1      18.436  -0.226  52.292  1.00  0.00     0.001 A 
HETATM    2  C3  UNL     1      18.892   0.388  51.137  1.00  0.00     0.021 A 
HETATM    3  C4  UNL     1      20.242   0.607  50.945  1.00  0.00     0.039 A 
HETATM    4  C5  UNL     1      21.094   0.193  51.939  1.00  0.00     0.089 A 
HETATM    5  C6  UNL     1      20.672  -0.425  53.109  1.00  0.00     0.001 A 
HETATM    6  C7  UNL     1      19.331  -0.631  53.277  1.00  0.00     0.032 A 
HETATM    7  C8  UNL     1      21.467  -0.908  54.233  1.00  0.00     0.048 C 
HETATM    8  C9  UNL     1      22.764  -0.987  54.309  1.00  0.00     0.091 C 
HETATM    9  N1  UNL     1      23.543  -0.138  53.777  1.00  0.00    -0.203 NA
HETATM   10  C10 UNL     1      23.530   0.432  52.459  1.00  0.00     0.291 C 
HETATM   11  N2  UNL     1      24.568   0.967  51.922  1.00  0.00    -0.126 NA
HETATM   12  O1  UNL     1      22.413   0.480  51.604  1.00  0.00    -0.275 OA
ENDROOT
BRANCH  11  13
HETATM   13  N3  UNL     1      25.790   1.038  52.575  1.00  0.00    -0.272 N 
HETATM   14  C11 UNL     1      26.616  -0.119  52.570  1.00  0.00     0.139 A 
HETATM   15  C12 UNL     1      27.799  -0.078  53.193  1.00  0.00     0.089 A 
HETATM   16 CL1  UNL     1      28.886  -1.455  53.239  1.00  0.00    -0.080 Cl
HETATM   17  C13 UNL     1      28.276   1.122  53.883  1.00  0.00     0.137 A 
HETATM   18  F1  UNL     1      29.482   1.160  54.516  1.00  0.00    -0.205 F 
HETATM   19  C14 UNL     1      27.486   2.189  53.874  1.00  0.00     0.039 A 
HETATM   20  C15 UNL     1      26.150   2.280  53.223  1.00  0.00     0.180 A 
ENDBRANCH  11  13
BRANCH   1  21
HETATM   21  S1  UNL     1      16.668  -0.446  52.408  1.00  0.00    -0.134 SA
HETATM   22  C1  UNL     1      15.930   1.132  51.839  1.00  0.00     0.095 C 
ENDBRANCH   1  21
TORSDOF 2
ENDMDL
MODEL 3
REMARK VINA RESULT:      -7.4      5.649      7.631
REMARK  2 active torsions:
REMARK  status: ('A' for Active; 'I' for Inactive)
REMARK    1  A    between atoms: S1_2  and  C2_3 
REMARK    2  A    between atoms: N2_13  and  N3_14 
ROOT
HETATM    1  C2  UNL     1      26.631   7.047  47.997  1.00  0.00     0.001 A 
HETATM    2  C3  UNL     1      27.799   6.307  47.917  1.00  0.00     0.021 A 
HETATM    3  C4  UNL     1      27.918   5.109  48.596  1.00  0.00     0.039 A 
HETATM    4  C5  UNL     1      26.839   4.697  49.339  1.00  0.00     0.089 A 
HETATM    5  C6  UNL     1      25.654   5.415  49.441  1.00  0.00     0.001 A 
HETATM    6  C7  UNL     1      25.560   6.598  48.761  1.00  0.00     0.032 A 
HETATM    7  C8  UNL     1      24.444   5.092  50.191  1.00  0.00     0.048 C 
HETATM    8  C9  UNL     1      24.172   3.981  50.814  1.00  0.00     0.091 C 
HETATM    9  N1  UNL     1      25.051   3.289  51.413  1.00  0.00    -0.203 NA
HETATM   10  C10 UNL     1      26.355   2.873  50.981  1.00  0.00     0.291 C 
HETATM   11  N2  UNL     1      26.975   1.875  51.502  1.00  0.00    -0.126 NA
HETATM   12  O1  UNL     1      27.107   3.482  49.959  1.00  0.00    -0.275 OA
ENDROOT
BRANCH  11  13
HETATM   13  N3  UNL     1      26.432   1.117  52.530  1.00  0.00    -0.272 N 
HETATM   14  C11 UNL     1      25.154   0.531  52.322  1.00  0.00     0.139 A 
HETATM   15  C12 UNL     1      24.608  -0.204  53.296  1.00  0.00     0.089 A 
HETATM   16 CL1  UNL     1      23.035  -0.966  53.131  1.00  0.00    -0.080 Cl
HETATM   17  C13 UNL     1      25.283  -0.429  54.576  1.00  0.00     0.137 A 
HETATM   18  F1  UNL     1      24.723  -1.178  55.566  1.00  0.00    -0.205 F 
HETATM   19  C14 UNL     1      26.475   0.129  54.746  1.00  0.00     0.039 A 
HETATM   20  C15 UNL     1      27.196   0.968  53.749  1.00  0.00     0.180 A 
ENDBRANCH  11  13
BRANCH   1  21
HETATM   21  S1  UNL     1      26.616   8.575  47.071  1.00  0.00    -0.134 SA
HETATM   22  C1  UNL     1      28.273   8.705  46.297  1.00  0.00     0.095 C 
ENDBRANCH   1  21
TORSDOF 2
ENDMDL
MODEL 4
REMARK VINA RESULT:      -7.3      3.992      4.513
REMARK  2 active torsions:
REMARK  status: ('A' for Active; 'I' for Inactive)
REMARK    1  A    between atoms: S1_2  and  C2_3 
REMARK    2  A    between atoms: N2_13  and  N3_14 
ROOT
HETATM    1  C2  UNL     1      21.972   5.043  49.587  1.00  0.00     0.001 A 
HETATM    2  C3  UNL     1      21.585   4.852  50.902  1.00  0.00     0.021 A 
HETATM    3  C4  UNL     1      22.443   4.256  51.807  1.00  0.00     0.039 A 
HETATM    4  C5  UNL     1      23.677   3.872  51.344  1.00  0.00     0.089 A 
HETATM    5  C6  UNL     1      24.098   4.048  50.032  1.00  0.00     0.001 A 
HETATM    6  C7  UNL     1      23.231   4.639  49.155  1.00  0.00     0.032 A 
HETATM    7  C8  UNL     1      25.371   3.686  49.417  1.00  0.00     0.048 C 
HETATM    8  C9  UNL     1      26.441   3.245  50.014  1.00  0.00     0.091 C 
HETATM    9  N1  UNL     1      26.406   2.479  51.025  1.00  0.00    -0.203 NA
HETATM   10  C10 UNL     1      25.621   2.564  52.224  1.00  0.00     0.291 C 
HETATM   11  N2  UNL     1      25.947   1.966  53.313  1.00  0.00    -0.126 NA
HETATM   12  O1  UNL     1      24.424   3.291  52.364  1.00  0.00    -0.275 OA
ENDROOT
BRANCH  11  13
HETATM   13  N3  UNL     1      27.091   1.186  53.419  1.00  0.00    -0.272 N 
HETATM   14  C11 UNL     1      26.986  -0.195  53.099  1.00  0.00     0.139 A 
HETATM   15  C12 UNL     1      28.073  -0.969  53.193  1.00  0.00     0.089 A 
HETATM   16 CL1  UNL     1      28.041  -2.684  52.819  1.00  0.00    -0.080 Cl
HETATM   17  C13 UNL     1      29.372  -0.443  53.616  1.00  0.00     0.137 A 
HETATM   18  F1  UNL     1      30.476  -1.235  53.711  1.00  0.00    -0.205 F 
HETATM   19  C14 UNL     1      29.443   0.850  53.909  1.00  0.00     0.039 A 
HETATM   20  C15 UNL     1      28.317   1.822  53.849  1.00  0.00     0.180 A 
ENDBRANCH  11  13
BRANCH   1  21
HETATM   21  S1  UNL     1      20.764   5.823  48.528  1.00  0.00    -0.134 SA
HETATM   22  C1  UNL     1      20.401   4.608  47.204  1.00  0.00     0.095 C 
ENDBRANCH   1  21
TORSDOF 2
ENDMDL
MODEL 5
REMARK VINA RESULT:      -7.2      5.647      7.883
REMARK  2 active torsions:
REMARK  status: ('A' for Active; 'I' for Inactive)
REMARK    1  A    between atoms: S1_2  and  C2_3 
REMARK    2  A    between atoms: N2_13  and  N3_14 
ROOT
HETATM    1  C2  UNL     1      26.455   6.943  49.226  1.00  0.00     0.001 A 
HETATM    2  C3  UNL     1      27.036   5.801  48.702  1.00  0.00     0.021 A 
HETATM    3  C4  UNL     1      26.558   4.550  49.043  1.00  0.00     0.039 A 
HETATM    4  C5  UNL     1      25.497   4.499  49.913  1.00  0.00     0.089 A 
HETATM    5  C6  UNL     1      24.890   5.624  50.457  1.00  0.00     0.001 A 
HETATM    6  C7  UNL     1      25.381   6.850  50.104  1.00  0.00     0.032 A 
HETATM    7  C8  UNL     1      23.766   5.706  51.384  1.00  0.00     0.048 C 
HETATM    8  C9  UNL     1      23.001   4.734  51.788  1.00  0.00     0.091 C 
HETATM    9  N1  UNL     1      23.424   3.554  51.985  1.00  0.00    -0.203 NA
HETATM   10  C10 UNL     1      24.262   2.722  51.169  1.00  0.00     0.291 C 
HETATM   11  N2  UNL     1      24.299   1.443  51.287  1.00  0.00    -0.126 NA
HETATM   12  O1  UNL     1      25.130   3.180  50.160  1.00  0.00    -0.275 OA
ENDROOT
BRANCH  11  13
HETATM   13  N3  UNL     1      23.529   0.759  52.218  1.00  0.00    -0.272 N 
HETATM   14  C11 UNL     1      22.132   0.655  51.978  1.00  0.00     0.139 A 
HETATM   15  C12 UNL     1      21.366   0.002  52.860  1.00  0.00     0.089 A 
HETATM   16 CL1  UNL     1      19.633  -0.177  52.649  1.00  0.00    -0.080 Cl
HETATM   17  C13 UNL     1      21.919  -0.612  54.068  1.00  0.00     0.137 A 
HETATM   18  F1  UNL     1      21.136  -1.276  54.963  1.00  0.00    -0.205 F 
HETATM   19  C14 UNL     1      23.226  -0.501  54.268  1.00  0.00     0.039 A 
HETATM   20  C15 UNL     1      24.191   0.195  53.374  1.00  0.00     0.180 A 
ENDBRANCH  11  13
BRANCH   1  21
HETATM   21  S1  UNL     1      27.174   8.491  48.699  1.00  0.00    -0.134 SA
HETATM   22  C1  UNL     1      27.623   9.382  50.236  1.00  0.00     0.095 C 
ENDBRANCH   1  21
TORSDOF 2
ENDMDL
MODEL 6
REMARK VINA RESULT:      -7.1      5.014      6.146
REMARK  2 active torsions:
REMARK  status: ('A' for Active; 'I' for Inactive)
REMARK    1  A    between atoms: S1_2  and  C2_3 
REMARK    2  A    between atoms: N2_13  and  N3_14 
ROOT
HETATM    1  C2  UNL     1      22.924   0.050  53.511  1.00  0.00     0.001 A 
HETATM    2  C3  UNL     1      21.987   0.782  52.801  1.00  0.00     0.021 A 
HETATM    3  C4  UNL     1      22.389   1.730  51.880  1.00  0.00     0.039 A 
HETATM    4  C5  UNL     1      23.739   1.906  51.707  1.00  0.00     0.089 A 
HETATM    5  C6  UNL     1      24.706   1.191  52.402  1.00  0.00     0.001 A 
HETATM    6  C7  UNL     1      24.284   0.258  53.309  1.00  0.00     0.032 A 
HETATM    7  C8  UNL     1      26.160   1.282  52.313  1.00  0.00     0.048 C 
HETATM    8  C9  UNL     1      26.859   1.962  51.452  1.00  0.00     0.091 C 
HETATM    9  N1  UNL     1      26.493   3.089  50.997  1.00  0.00    -0.203 NA
HETATM   10  C10 UNL     1      25.220   3.512  50.485  1.00  0.00     0.291 C 
HETATM   11  N2  UNL     1      25.083   4.529  49.713  1.00  0.00    -0.126 NA
HETATM   12  O1  UNL     1      23.987   2.888  50.753  1.00  0.00    -0.275 OA
ENDROOT
BRANCH  11  13
HETATM   13  N3  UNL     1      26.160   5.306  49.309  1.00  0.00    -0.272 N 
HETATM   14  C11 UNL     1      26.086   6.709  49.519  1.00  0.00     0.139 A 
HETATM   15  C12 UNL     1      27.110   7.481  49.139  1.00  0.00     0.089 A 
HETATM   16 CL1  UNL     1      27.108   9.222  49.358  1.00  0.00    -0.080 Cl
HETATM   17  C13 UNL     1      28.311   6.928  48.510  1.00  0.00     0.137 A 
HETATM   18  F1  UNL     1      29.352   7.717  48.124  1.00  0.00    -0.205 F 
HETATM   19  C14 UNL     1      28.357   5.615  48.325  1.00  0.00     0.039 A 
HETATM   20  C15 UNL     1      27.292   4.643  48.698  1.00  0.00     0.180 A 
ENDBRANCH  11  13
BRANCH   1  21
HETATM   21  S1  UNL     1      22.265  -1.140  54.668  1.00  0.00    -0.134 SA
HETATM   22  C1  UNL     1      20.554  -1.488  54.107  1.00  0.00     0.095 C 
ENDBRANCH   1  21
TORSDOF 2
ENDMDL
MODEL 7
REMARK VINA RESULT:      -6.9      5.519      8.624
REMARK  2 active torsions:
REMARK  status: ('A' for Active; 'I' for Inactive)
REMARK    1  A    between atoms: S1_2  and  C2_3 
REMARK    2  A    between atoms: N2_13  and  N3_14 
ROOT
HETATM    1  C2  UNL     1      26.443   0.079  52.861  1.00  0.00     0.001 A 
HETATM    2  C3  UNL     1      26.469   1.082  51.906  1.00  0.00     0.021 A 
HETATM    3  C4  UNL     1      25.297   1.680  51.484  1.00  0.00     0.039 A 
HETATM    4  C5  UNL     1      24.127   1.239  52.051  1.00  0.00     0.089 A 
HETATM    5  C6  UNL     1      24.064   0.236  53.010  1.00  0.00     0.001 A 
HETATM    6  C7  UNL     1      25.237  -0.341  53.411  1.00  0.00     0.032 A 
HETATM    7  C8  UNL     1      22.896  -0.321  53.684  1.00  0.00     0.048 C 
HETATM    8  C9  UNL     1      21.669   0.110  53.627  1.00  0.00     0.091 C 
HETATM    9  N1  UNL     1      21.158   0.612  52.579  1.00  0.00    -0.203 NA
HETATM   10  C10 UNL     1      21.679   1.599  51.677  1.00  0.00     0.291 C 
HETATM   11  N2  UNL     1      20.930   2.293  50.897  1.00  0.00    -0.126 NA
HETATM   12  O1  UNL     1      23.039   1.931  51.529  1.00  0.00    -0.275 OA
ENDROOT
BRANCH  11  13
HETATM   13  N3  UNL     1      19.550   2.143  50.864  1.00  0.00    -0.272 N 
HETATM   14  C11 UNL     1      18.756   3.148  51.480  1.00  0.00     0.139 A 
HETATM   15  C12 UNL     1      17.424   3.028  51.463  1.00  0.00     0.089 A 
HETATM   16 CL1  UNL     1      16.362   4.217  52.196  1.00  0.00    -0.080 Cl
HETATM   17  C13 UNL     1      16.752   1.892  50.828  1.00  0.00     0.137 A 
HETATM   18  F1  UNL     1      15.395   1.773  50.812  1.00  0.00    -0.205 F 
HETATM   19  C14 UNL     1      17.516   0.968  50.260  1.00  0.00     0.039 A 
HETATM   20  C15 UNL     1      19.004   0.976  50.207  1.00  0.00     0.180 A 
ENDBRANCH  11  13
BRANCH   1  21
HETATM   21  S1  UNL     1      28.030  -0.604  53.311  1.00  0.00    -0.134 SA
HETATM   22  C1  UNL     1      28.521   0.249  54.858  1.00  0.00     0.095 C 
ENDBRANCH   1  21
TORSDOF 2
ENDMDL
MODEL 8
REMARK VINA RESULT:      -6.8      6.901      9.177
REMARK  2 active torsions:
REMARK  status: ('A' for Active; 'I' for Inactive)
REMARK    1  A    between atoms: S1_2  and  C2_3 
REMARK    2  A    between atoms: N2_13  and  N3_14 
ROOT
HETATM    1  C2  UNL     1      27.354   8.548  47.845  1.00  0.00     0.001 A 
HETATM    2  C3  UNL     1      26.401   9.117  48.671  1.00  0.00     0.021 A 
HETATM    3  C4  UNL     1      25.673   8.334  49.547  1.00  0.00     0.039 A 
HETATM    4  C5  UNL     1      25.939   6.987  49.555  1.00  0.00     0.089 A 
HETATM    5  C6  UNL     1      26.889   6.383  48.739  1.00  0.00     0.001 A 
HETATM    6  C7  UNL     1      27.596   7.180  47.881  1.00  0.00     0.032 A 
HETATM    7  C8  UNL     1      27.264   4.976  48.651  1.00  0.00     0.048 C 
HETATM    8  C9  UNL     1      26.881   4.004  49.427  1.00  0.00     0.091 C 
HETATM    9  N1  UNL     1      25.720   3.939  49.935  1.00  0.00    -0.203 NA
HETATM   10  C10 UNL     1      24.943   4.944  50.603  1.00  0.00     0.291 C 
HETATM   11  N2  UNL     1      23.973   4.662  51.397  1.00  0.00    -0.126 NA
HETATM   12  O1  UNL     1      25.133   6.334  50.481  1.00  0.00    -0.275 OA
ENDROOT
BRANCH  11  13
HETATM   13  N3  UNL     1      23.596   3.355  51.674  1.00  0.00    -0.272 N 
HETATM   14  C11 UNL     1      22.724   2.706  50.759  1.00  0.00     0.139 A 
HETATM   15  C12 UNL     1      22.345   1.446  51.003  1.00  0.00     0.089 A 
HETATM   16 CL1  UNL     1      21.271   0.563  49.932  1.00  0.00    -0.080 Cl
HETATM   17  C13 UNL     1      22.798   0.710  52.184  1.00  0.00     0.137 A 
HETATM   18  F1  UNL     1      22.410  -0.573  52.429  1.00  0.00    -0.205 F 
HETATM   19  C14 UNL     1      23.613   1.339  53.023  1.00  0.00     0.039 A 
HETATM   20  C15 UNL     1      24.111   2.734  52.874  1.00  0.00     0.180 A 
ENDBRANCH  11  13
BRANCH   1  21
HETATM   21  S1  UNL     1      28.219   9.679  46.765  1.00  0.00    -0.134 SA
HETATM   22  C1  UNL     1      29.300  10.682  47.853  1.00  0.00     0.095 C 
ENDBRANCH   1  21
TORSDOF 2
ENDMDL
MODEL 9
REMARK VINA RESULT:      -6.8      6.023      8.241
REMARK  2 active torsions:
REMARK  status: ('A' for Active; 'I' for Inactive)
REMARK    1  A    between atoms: S1_2  and  C2_3 
REMARK    2  A    between atoms: N2_13  and  N3_14 
ROOT
HETATM    1  C2  UNL     1      26.504   8.182  48.333  1.00  0.00     0.001 A 
HETATM    2  C3  UNL     1      25.596   8.655  49.264  1.00  0.00     0.021 A 
HETATM    3  C4  UNL     1      24.990   7.789  50.155  1.00  0.00     0.039 A 
HETATM    4  C5  UNL     1      25.329   6.462  50.072  1.00  0.00     0.089 A 
HETATM    5  C6  UNL     1      26.236   5.954  49.150  1.00  0.00     0.001 A 
HETATM    6  C7  UNL     1      26.822   6.829  48.278  1.00  0.00     0.032 A 
HETATM    7  C8  UNL     1      26.679   4.577  48.958  1.00  0.00     0.048 C 
HETATM    8  C9  UNL     1      26.418   3.549  49.712  1.00  0.00     0.091 C 
HETATM    9  N1  UNL     1      25.310   3.391  50.311  1.00  0.00    -0.203 NA
HETATM   10  C10 UNL     1      24.540   4.317  51.092  1.00  0.00     0.291 C 
HETATM   11  N2  UNL     1      23.659   3.942  51.949  1.00  0.00    -0.126 NA
HETATM   12  O1  UNL     1      24.643   5.720  51.027  1.00  0.00    -0.275 OA
ENDROOT
BRANCH  11  13
HETATM   13  N3  UNL     1      23.379   2.603  52.189  1.00  0.00    -0.272 N 
HETATM   14  C11 UNL     1      24.294   1.865  52.987  1.00  0.00     0.139 A 
HETATM   15  C12 UNL     1      24.048   0.573  53.233  1.00  0.00     0.089 A 
HETATM   16 CL1  UNL     1      25.119  -0.419  54.208  1.00  0.00    -0.080 Cl
HETATM   17  C13 UNL     1      22.865  -0.110  52.707  1.00  0.00     0.137 A 
HETATM   18  F1  UNL     1      22.618  -1.425  52.960  1.00  0.00    -0.205 F 
HETATM   19  C14 UNL     1      22.026   0.602  51.965  1.00  0.00     0.039 A 
HETATM   20  C15 UNL     1      22.177   2.041  51.613  1.00  0.00     0.180 A 
ENDBRANCH  11  13
BRANCH   1  21
HETATM   21  S1  UNL     1      27.209   9.410  47.244  1.00  0.00    -0.134 SA
HETATM   22  C1  UNL     1      27.883   8.483  45.814  1.00  0.00     0.095 C 
ENDBRANCH   1  21
TORSDOF 2
ENDMDL
