MODEL 1
REMARK VINA RESULT:      -8.3      0.000      0.000
REMARK  6 active torsions:
REMARK  status: ('A' for Active; 'I' for Inactive)
REMARK    1  A    between atoms: O1_2  and  C2_3 
REMARK    2  A    between atoms: C7_9  and  N2_10 
REMARK    3  A    between atoms: C16_21  and  N3_22 
REMARK       I    between atoms: N3_22  and  C17_23 
REMARK    4  A    between atoms: C17_23  and  C18_25 
REMARK    5  A    between atoms: C19_26  and  C20_27 
REMARK    6  A    between atoms: C20_27  and  N4_29 
ROOT
HETATM    1  C2  UNL     1      24.029   5.261  51.255  1.00  0.00     0.096 A 
HETATM    2  C3  UNL     1      23.827   6.541  50.982  1.00  0.00     0.067 A 
HETATM    3  C4  UNL     1      24.236   6.952  49.641  1.00  0.00     0.049 A 
HETATM    4  N1  UNL     1      23.950   8.229  49.592  1.00  0.00    -0.265 NA
HETATM    5  C5  UNL     1      24.045   9.305  48.661  1.00  0.00     0.115 C 
HETATM    6  C6  UNL     1      24.718   9.465  47.522  1.00  0.00     0.021 C 
HETATM    7  C7  UNL     1      25.654   8.791  46.594  1.00  0.00     0.132 C 
HETATM    8  C8  UNL     1      26.462   7.746  47.283  1.00  0.00    -0.023 A 
HETATM    9  C9  UNL     1      27.774   8.045  46.974  1.00  0.00     0.037 A 
HETATM   10  C10 UNL     1      28.813   7.266  47.456  1.00  0.00     0.073 A 
HETATM   11 CL1  UNL     1      30.503   7.569  47.116  1.00  0.00    -0.081 Cl
HETATM   12  C11 UNL     1      28.485   6.188  48.251  1.00  0.00     0.138 A 
HETATM   13  F1  UNL     1      29.442   5.364  48.773  1.00  0.00    -0.204 F 
HETATM   14  C12 UNL     1      27.166   5.920  48.540  1.00  0.00     0.052 A 
HETATM   15  C13 UNL     1      26.114   6.681  48.071  1.00  0.00    -0.033 A 
HETATM   16  C14 UNL     1      24.843   6.117  48.567  1.00  0.00     0.096 A 
HETATM   17  C15 UNL     1      24.973   4.752  49.080  1.00  0.00     0.021 A 
HETATM   18  C16 UNL     1      24.615   4.341  50.286  1.00  0.00     0.066 A 
ENDROOT
BRANCH  18  19
HETATM   19  N3  UNL     1      24.754   3.001  50.758  1.00  0.00    -0.321 N 
HETATM   20  C17 UNL     1      26.103   2.594  51.011  1.00  0.00     0.245 C 
HETATM   21  O2  UNL     1      27.148   3.280  50.864  1.00  0.00    -0.268 OA
HETATM   22  H14 UNL     1      23.977   2.322  50.925  1.00  0.00     0.169 HD
BRANCH  20  23
HETATM   23  C18 UNL     1      26.314   1.235  51.495  1.00  0.00     0.072 C 
HETATM   24  C19 UNL     1      27.280   0.823  52.302  1.00  0.00     0.013 C 
BRANCH  24  25
HETATM   25  C20 UNL     1      27.584  -0.505  52.846  1.00  0.00     0.241 C 
HETATM   26  C21 UNL     1      26.329  -1.296  53.148  1.00  0.00     0.047 C 
BRANCH  25  27
HETATM   27  N4  UNL     1      28.486  -0.491  53.963  1.00  0.00     0.087 N 
HETATM   28  C22 UNL     1      28.654   0.788  54.580  1.00  0.00     0.310 C 
HETATM   29  C23 UNL     1      29.754  -1.068  53.610  1.00  0.00     0.310 C 
ENDBRANCH  25  27
ENDBRANCH  24  25
ENDBRANCH  20  23
ENDBRANCH  18  19
BRANCH   1  30
HETATM   30  O1  UNL     1      23.639   4.870  52.530  1.00  0.00    -0.354 OA
HETATM   31  C1  UNL     1      22.245   4.604  52.694  1.00  0.00     0.210 C 
ENDBRANCH   1  30
BRANCH   7  32
HETATM   32  N2  UNL     1      24.902   8.291  45.478  1.00  0.00    -0.419 N 
HETATM   33  H8  UNL     1      23.910   8.063  45.692  1.00  0.00     0.150 HD
HETATM   34  H9  UNL     1      25.062   8.778  44.580  1.00  0.00     0.150 HD
ENDBRANCH   7  32
TORSDOF 6
ENDMDL
MODEL 2
REMARK VINA RESULT:      -8.2      5.756      8.144
REMARK  6 active torsions:
REMARK  status: ('A' for Active; 'I' for Inactive)
REMARK    1  A    between atoms: O1_2  and  C2_3 
REMARK    2  A    between atoms: C7_9  and  N2_10 
REMARK    3  A    between atoms: C16_21  and  N3_22 
REMARK       I    between atoms: N3_22  and  C17_23 
REMARK    4  A    between atoms: C17_23  and  C18_25 
REMARK    5  A    between atoms: C19_26  and  C20_27 
REMARK    6  A    between atoms: C20_27  and  N4_29 
ROOT
HETATM    1  C2  UNL     1      20.341   2.697  51.871  1.00  0.00     0.096 A 
HETATM    2  C3  UNL     1      21.143   3.737  51.700  1.00  0.00     0.067 A 
HETATM    3  C4  UNL     1      22.484   3.402  51.229  1.00  0.00     0.049 A 
HETATM    4  N1  UNL     1      23.092   4.559  51.132  1.00  0.00    -0.265 NA
HETATM    5  C5  UNL     1      24.373   5.058  50.755  1.00  0.00     0.115 C 
HETATM    6  C6  UNL     1      25.560   4.479  50.583  1.00  0.00     0.021 C 
HETATM    7  C7  UNL     1      26.264   3.178  50.643  1.00  0.00     0.132 C 
HETATM    8  C8  UNL     1      25.590   2.226  51.570  1.00  0.00    -0.023 A 
HETATM    9  C9  UNL     1      26.584   1.793  52.425  1.00  0.00     0.037 A 
HETATM   10  C10 UNL     1      26.308   0.884  53.433  1.00  0.00     0.073 A 
HETATM   11 CL1  UNL     1      27.503   0.281  54.561  1.00  0.00    -0.081 Cl
HETATM   12  C11 UNL     1      25.010   0.432  53.545  1.00  0.00     0.138 A 
HETATM   13  F1  UNL     1      24.644  -0.465  54.509  1.00  0.00    -0.204 F 
HETATM   14  C12 UNL     1      24.044   0.885  52.675  1.00  0.00     0.052 A 
HETATM   15  C13 UNL     1      24.295   1.790  51.664  1.00  0.00    -0.033 A 
HETATM   16  C14 UNL     1      23.045   2.056  50.924  1.00  0.00     0.096 A 
HETATM   17  C15 UNL     1      21.997   1.067  51.179  1.00  0.00     0.021 A 
HETATM   18  C16 UNL     1      20.772   1.329  51.605  1.00  0.00     0.066 A 
ENDROOT
BRANCH  18  19
HETATM   19  N3  UNL     1      19.770   0.341  51.845  1.00  0.00    -0.321 N 
HETATM   20  C17 UNL     1      19.807  -0.244  53.151  1.00  0.00     0.245 C 
HETATM   21  O2  UNL     1      20.611   0.019  54.083  1.00  0.00    -0.268 OA
HETATM   22  H14 UNL     1      19.041   0.024  51.165  1.00  0.00     0.169 HD
BRANCH  20  23
HETATM   23  C18 UNL     1      18.809  -1.261  53.459  1.00  0.00     0.072 C 
HETATM   24  C19 UNL     1      17.640  -1.429  52.862  1.00  0.00     0.013 C 
BRANCH  24  25
HETATM   25  C20 UNL     1      16.571  -2.409  53.089  1.00  0.00     0.241 C 
HETATM   26  C21 UNL     1      17.117  -3.768  53.472  1.00  0.00     0.047 C 
BRANCH  25  27
HETATM   27  N4  UNL     1      15.618  -2.500  52.019  1.00  0.00     0.087 N 
HETATM   28  C22 UNL     1      15.508  -1.322  51.215  1.00  0.00     0.310 C 
HETATM   29  C23 UNL     1      14.333  -2.919  52.504  1.00  0.00     0.310 C 
ENDBRANCH  25  27
ENDBRANCH  24  25
ENDBRANCH  20  23
ENDBRANCH  18  19
BRANCH   1  30
HETATM   30  O1  UNL     1      19.064   3.015  52.318  1.00  0.00    -0.354 OA
HETATM   31  C1  UNL     1      18.197   3.600  51.346  1.00  0.00     0.210 C 
ENDBRANCH   1  30
BRANCH   7  32
HETATM   32  N2  UNL     1      26.402   2.676  49.305  1.00  0.00    -0.419 N 
HETATM   33  H8  UNL     1      26.115   1.683  49.185  1.00  0.00     0.150 HD
HETATM   34  H9  UNL     1      26.099   3.320  48.554  1.00  0.00     0.150 HD
ENDBRANCH   7  32
TORSDOF 6
ENDMDL
MODEL 3
REMARK VINA RESULT:      -8.2      4.049      8.200
REMARK  6 active torsions:
REMARK  status: ('A' for Active; 'I' for Inactive)
REMARK    1  A    between atoms: O1_2  and  C2_3 
REMARK    2  A    between atoms: C7_9  and  N2_10 
REMARK    3  A    between atoms: C16_21  and  N3_22 
REMARK       I    between atoms: N3_22  and  C17_23 
REMARK    4  A    between atoms: C17_23  and  C18_25 
REMARK    5  A    between atoms: C19_26  and  C20_27 
REMARK    6  A    between atoms: C20_27  and  N4_29 
ROOT
HETATM    1  C2  UNL     1      21.526   3.793  49.311  1.00  0.00     0.096 A 
HETATM    2  C3  UNL     1      20.758   2.737  49.532  1.00  0.00     0.067 A 
HETATM    3  C4  UNL     1      20.897   2.148  50.862  1.00  0.00     0.049 A 
HETATM    4  N1  UNL     1      20.061   1.139  50.858  1.00  0.00    -0.265 NA
HETATM    5  C5  UNL     1      19.631   0.112  51.748  1.00  0.00     0.115 C 
HETATM    6  C6  UNL     1      20.125  -0.368  52.889  1.00  0.00     0.021 C 
HETATM    7  C7  UNL     1      21.236  -0.218  53.855  1.00  0.00     0.132 C 
HETATM    8  C8  UNL     1      22.451   0.365  53.218  1.00  0.00    -0.023 A 
HETATM    9  C9  UNL     1      23.475  -0.506  53.533  1.00  0.00     0.037 A 
HETATM   10  C10 UNL     1      24.768  -0.270  53.096  1.00  0.00     0.073 A 
HETATM   11 CL1  UNL     1      26.126  -1.317  53.447  1.00  0.00    -0.081 Cl
HETATM   12  C11 UNL     1      24.987   0.861  52.338  1.00  0.00     0.138 A 
HETATM   13  F1  UNL     1      26.229   1.175  51.861  1.00  0.00    -0.204 F 
HETATM   14  C12 UNL     1      23.942   1.706  52.042  1.00  0.00     0.052 A 
HETATM   15  C13 UNL     1      22.646   1.493  52.466  1.00  0.00    -0.033 A 
HETATM   16  C14 UNL     1      21.784   2.586  51.975  1.00  0.00     0.096 A 
HETATM   17  C15 UNL     1      22.534   3.757  51.516  1.00  0.00     0.021 A 
HETATM   18  C16 UNL     1      22.436   4.320  50.323  1.00  0.00     0.066 A 
ENDROOT
BRANCH  18  19
HETATM   19  N3  UNL     1      23.181   5.463  49.904  1.00  0.00    -0.321 N 
HETATM   20  C17 UNL     1      24.477   5.169  49.369  1.00  0.00     0.245 C 
HETATM   21  O2  UNL     1      25.008   4.036  49.235  1.00  0.00    -0.268 OA
HETATM   22  H14 UNL     1      22.867   6.458  49.958  1.00  0.00     0.169 HD
BRANCH  20  23
HETATM   23  C18 UNL     1      25.289   6.294  48.924  1.00  0.00     0.072 C 
HETATM   24  C19 UNL     1      26.570   6.262  48.589  1.00  0.00     0.013 C 
BRANCH  24  25
HETATM   25  C20 UNL     1      27.477   7.321  48.132  1.00  0.00     0.241 C 
HETATM   26  C21 UNL     1      26.908   8.087  46.956  1.00  0.00     0.047 C 
BRANCH  25  27
HETATM   27  N4  UNL     1      28.820   6.880  47.881  1.00  0.00     0.087 N 
HETATM   28  C22 UNL     1      29.079   5.520  48.242  1.00  0.00     0.310 C 
HETATM   29  C23 UNL     1      29.776   7.768  48.481  1.00  0.00     0.310 C 
ENDBRANCH  25  27
ENDBRANCH  24  25
ENDBRANCH  20  23
ENDBRANCH  18  19
BRANCH   1  30
HETATM   30  O1  UNL     1      21.394   4.354  48.047  1.00  0.00    -0.354 OA
HETATM   31  C1  UNL     1      21.918   3.577  46.969  1.00  0.00     0.210 C 
ENDBRANCH   1  30
BRANCH   7  32
HETATM   32  N2  UNL     1      20.760   0.537  54.979  1.00  0.00    -0.419 N 
HETATM   33  H8  UNL     1      21.296   1.407  55.174  1.00  0.00     0.150 HD
HETATM   34  H9  UNL     1      19.732   0.621  55.056  1.00  0.00     0.150 HD
ENDBRANCH   7  32
TORSDOF 6
ENDMDL
MODEL 4
REMARK VINA RESULT:      -8.1      3.904      8.241
REMARK  6 active torsions:
REMARK  status: ('A' for Active; 'I' for Inactive)
REMARK    1  A    between atoms: O1_2  and  C2_3 
REMARK    2  A    between atoms: C7_9  and  N2_10 
REMARK    3  A    between atoms: C16_21  and  N3_22 
REMARK       I    between atoms: N3_22  and  C17_23 
REMARK    4  A    between atoms: C17_23  and  C18_25 
REMARK    5  A    between atoms: C19_26  and  C20_27 
REMARK    6  A    between atoms: C20_27  and  N4_29 
ROOT
HETATM    1  C2  UNL     1      21.563   4.604  50.091  1.00  0.00     0.096 A 
HETATM    2  C3  UNL     1      20.829   3.502  50.051  1.00  0.00     0.067 A 
HETATM    3  C4  UNL     1      20.952   2.643  51.226  1.00  0.00     0.049 A 
HETATM    4  N1  UNL     1      20.155   1.634  50.974  1.00  0.00    -0.265 NA
HETATM    5  C5  UNL     1      19.739   0.426  51.606  1.00  0.00     0.115 C 
HETATM    6  C6  UNL     1      20.217  -0.275  52.634  1.00  0.00     0.021 C 
HETATM    7  C7  UNL     1      21.294  -0.305  53.649  1.00  0.00     0.132 C 
HETATM    8  C8  UNL     1      22.503   0.440  53.197  1.00  0.00    -0.023 A 
HETATM    9  C9  UNL     1      23.549  -0.447  53.354  1.00  0.00     0.037 A 
HETATM   10  C10 UNL     1      24.845  -0.083  53.025  1.00  0.00     0.073 A 
HETATM   11 CL1  UNL     1      26.231  -1.138  53.191  1.00  0.00    -0.081 Cl
HETATM   12  C11 UNL     1      25.043   1.192  52.538  1.00  0.00     0.138 A 
HETATM   13  F1  UNL     1      26.286   1.640  52.185  1.00  0.00    -0.204 F 
HETATM   14  C12 UNL     1      23.976   2.049  52.393  1.00  0.00     0.052 A 
HETATM   15  C13 UNL     1      22.677   1.710  52.714  1.00  0.00    -0.033 A 
HETATM   16  C14 UNL     1      21.789   2.856  52.439  1.00  0.00     0.096 A 
HETATM   17  C15 UNL     1      22.507   4.121  52.271  1.00  0.00     0.021 A 
HETATM   18  C16 UNL     1      22.423   4.926  51.224  1.00  0.00     0.066 A 
ENDROOT
BRANCH  18  19
HETATM   19  N3  UNL     1      23.136   6.154  51.090  1.00  0.00    -0.321 N 
HETATM   20  C17 UNL     1      24.495   6.014  50.660  1.00  0.00     0.245 C 
HETATM   21  O2  UNL     1      25.105   4.944  50.397  1.00  0.00    -0.268 OA
HETATM   22  H14 UNL     1      22.758   7.111  51.274  1.00  0.00     0.169 HD
BRANCH  20  23
HETATM   23  C18 UNL     1      25.279   7.232  50.503  1.00  0.00     0.072 C 
HETATM   24  C19 UNL     1      26.346   7.393  49.736  1.00  0.00     0.013 C 
BRANCH  24  25
HETATM   25  C20 UNL     1      27.203   8.562  49.505  1.00  0.00     0.241 C 
HETATM   26  C21 UNL     1      26.398   9.796  49.156  1.00  0.00     0.047 C 
BRANCH  25  27
HETATM   27  N4  UNL     1      28.266   8.337  48.567  1.00  0.00     0.087 N 
HETATM   28  C22 UNL     1      28.430   6.974  48.165  1.00  0.00     0.310 C 
HETATM   29  C23 UNL     1      29.503   8.889  49.045  1.00  0.00     0.310 C 
ENDBRANCH  25  27
ENDBRANCH  24  25
ENDBRANCH  20  23
ENDBRANCH  18  19
BRANCH   1  30
HETATM   30  O1  UNL     1      21.446   5.421  48.974  1.00  0.00    -0.354 OA
HETATM   31  C1  UNL     1      22.221   5.029  47.839  1.00  0.00     0.210 C 
ENDBRANCH   1  30
BRANCH   7  32
HETATM   32  N2  UNL     1      20.757   0.174  54.892  1.00  0.00    -0.419 N 
HETATM   33  H8  UNL     1      20.535   1.191  54.904  1.00  0.00     0.150 HD
HETATM   34  H9  UNL     1      20.055  -0.440  55.339  1.00  0.00     0.150 HD
ENDBRANCH   7  32
TORSDOF 6
ENDMDL
MODEL 5
REMARK VINA RESULT:      -8.1      4.542      8.736
REMARK  6 active torsions:
REMARK  status: ('A' for Active; 'I' for Inactive)
REMARK    1  A    between atoms: O1_2  and  C2_3 
REMARK    2  A    between atoms: C7_9  and  N2_10 
REMARK    3  A    between atoms: C16_21  and  N3_22 
REMARK       I    between atoms: N3_22  and  C17_23 
REMARK    4  A    between atoms: C17_23  and  C18_25 
REMARK    5  A    between atoms: C19_26  and  C20_27 
REMARK    6  A    between atoms: C20_27  and  N4_29 
ROOT
HETATM    1  C2  UNL     1      21.282   0.507  52.527  1.00  0.00     0.096 A 
HETATM    2  C3  UNL     1      22.351  -0.266  52.644  1.00  0.00     0.067 A 
HETATM    3  C4  UNL     1      23.599   0.450  52.894  1.00  0.00     0.049 A 
HETATM    4  N1  UNL     1      24.504  -0.494  52.974  1.00  0.00    -0.265 NA
HETATM    5  C5  UNL     1      25.908  -0.604  53.193  1.00  0.00     0.115 C 
HETATM    6  C6  UNL     1      26.907   0.278  53.154  1.00  0.00     0.021 C 
HETATM    7  C7  UNL     1      27.219   1.704  52.911  1.00  0.00     0.132 C 
HETATM    8  C8  UNL     1      26.204   2.352  52.033  1.00  0.00    -0.023 A 
HETATM    9  C9  UNL     1      26.931   2.941  51.018  1.00  0.00     0.037 A 
HETATM   10  C10 UNL     1      26.297   3.643  50.005  1.00  0.00     0.073 A 
HETATM   11 CL1  UNL     1      27.136   4.420  48.680  1.00  0.00    -0.081 Cl
HETATM   12  C11 UNL     1      24.922   3.729  50.054  1.00  0.00     0.138 A 
HETATM   13  F1  UNL     1      24.211   4.399  49.099  1.00  0.00    -0.204 F 
HETATM   14  C12 UNL     1      24.229   3.129  51.082  1.00  0.00     0.052 A 
HETATM   15  C13 UNL     1      24.838   2.425  52.101  1.00  0.00    -0.033 A 
HETATM   16  C14 UNL     1      23.807   1.918  53.029  1.00  0.00     0.096 A 
HETATM   17  C15 UNL     1      22.507   2.572  52.867  1.00  0.00     0.021 A 
HETATM   18  C16 UNL     1      21.356   1.960  52.640  1.00  0.00     0.066 A 
ENDROOT
BRANCH  18  19
HETATM   19  N3  UNL     1      20.103   2.625  52.487  1.00  0.00    -0.321 N 
HETATM   20  C17 UNL     1      19.825   3.078  51.158  1.00  0.00     0.245 C 
HETATM   21  O2  UNL     1      20.555   2.952  50.140  1.00  0.00    -0.268 OA
HETATM   22  H14 UNL     1      19.401   2.800  53.242  1.00  0.00     0.169 HD
BRANCH  20  23
HETATM   23  C18 UNL     1      18.560   3.766  50.934  1.00  0.00     0.072 C 
HETATM   24  C19 UNL     1      17.429   3.579  51.597  1.00  0.00     0.013 C 
BRANCH  24  25
HETATM   25  C20 UNL     1      16.111   4.209  51.457  1.00  0.00     0.241 C 
HETATM   26  C21 UNL     1      15.272   4.054  52.708  1.00  0.00     0.047 C 
BRANCH  25  27
HETATM   27  N4  UNL     1      15.390   3.813  50.280  1.00  0.00     0.087 N 
HETATM   28  C22 UNL     1      14.271   4.644  49.958  1.00  0.00     0.310 C 
HETATM   29  C23 UNL     1      15.008   2.430  50.348  1.00  0.00     0.310 C 
ENDBRANCH  25  27
ENDBRANCH  24  25
ENDBRANCH  20  23
ENDBRANCH  18  19
BRANCH   1  30
HETATM   30  O1  UNL     1      20.095  -0.174  52.290  1.00  0.00    -0.354 OA
HETATM   31  C1  UNL     1      19.494  -0.783  53.434  1.00  0.00     0.210 C 
ENDBRANCH   1  30
BRANCH   7  32
HETATM   32  N2  UNL     1      27.379   2.355  54.180  1.00  0.00    -0.419 N 
HETATM   33  H8  UNL     1      26.640   3.052  54.405  1.00  0.00     0.150 HD
HETATM   34  H9  UNL     1      27.663   1.741  54.963  1.00  0.00     0.150 HD
ENDBRANCH   7  32
TORSDOF 6
ENDMDL
MODEL 6
REMARK VINA RESULT:      -7.8      5.160      6.642
REMARK  6 active torsions:
REMARK  status: ('A' for Active; 'I' for Inactive)
REMARK    1  A    between atoms: O1_2  and  C2_3 
REMARK    2  A    between atoms: C7_9  and  N2_10 
REMARK    3  A    between atoms: C16_21  and  N3_22 
REMARK       I    between atoms: N3_22  and  C17_23 
REMARK    4  A    between atoms: C17_23  and  C18_25 
REMARK    5  A    between atoms: C19_26  and  C20_27 
REMARK    6  A    between atoms: C20_27  and  N4_29 
ROOT
HETATM    1  C2  UNL     1      21.467   0.397  53.271  1.00  0.00     0.096 A 
HETATM    2  C3  UNL     1      20.202   0.428  52.879  1.00  0.00     0.067 A 
HETATM    3  C4  UNL     1      19.979   1.068  51.586  1.00  0.00     0.049 A 
HETATM    4  N1  UNL     1      18.684   0.985  51.403  1.00  0.00    -0.265 NA
HETATM    5  C5  UNL     1      17.724   1.363  50.419  1.00  0.00     0.115 C 
HETATM    6  C6  UNL     1      17.765   2.197  49.381  1.00  0.00     0.021 C 
HETATM    7  C7  UNL     1      18.645   3.136  48.650  1.00  0.00     0.132 C 
HETATM    8  C8  UNL     1      19.723   3.680  49.523  1.00  0.00    -0.023 A 
HETATM    9  C9  UNL     1      19.638   5.051  49.385  1.00  0.00     0.037 A 
HETATM   10  C10 UNL     1      20.505   5.889  50.068  1.00  0.00     0.073 A 
HETATM   11 CL1  UNL     1      20.472   7.635  49.954  1.00  0.00    -0.081 Cl
HETATM   12  C11 UNL     1      21.449   5.300  50.884  1.00  0.00     0.138 A 
HETATM   13  F1  UNL     1      22.345   6.046  51.597  1.00  0.00    -0.204 F 
HETATM   14  C12 UNL     1      21.504   3.930  50.997  1.00  0.00     0.052 A 
HETATM   15  C13 UNL     1      20.652   3.075  50.327  1.00  0.00    -0.033 A 
HETATM   16  C14 UNL     1      20.986   1.680  50.674  1.00  0.00     0.096 A 
HETATM   17  C15 UNL     1      22.302   1.535  51.299  1.00  0.00     0.021 A 
HETATM   18  C16 UNL     1      22.546   0.962  52.467  1.00  0.00     0.066 A 
ENDROOT
BRANCH  18  19
HETATM   19  N3  UNL     1      23.841   0.835  53.051  1.00  0.00    -0.321 N 
HETATM   20  C17 UNL     1      24.506   2.077  53.307  1.00  0.00     0.245 C 
HETATM   21  O2  UNL     1      24.074   3.237  53.075  1.00  0.00    -0.268 OA
HETATM   22  H14 UNL     1      24.324  -0.060  53.295  1.00  0.00     0.169 HD
BRANCH  20  23
HETATM   23  C18 UNL     1      25.835   2.017  53.902  1.00  0.00     0.072 C 
HETATM   24  C19 UNL     1      26.746   1.075  53.712  1.00  0.00     0.013 C 
BRANCH  24  25
HETATM   25  C20 UNL     1      28.100   0.916  54.254  1.00  0.00     0.241 C 
HETATM   26  C21 UNL     1      29.010   2.058  53.855  1.00  0.00     0.047 C 
BRANCH  25  27
HETATM   27  N4  UNL     1      28.698  -0.361  53.982  1.00  0.00     0.087 N 
HETATM   28  C22 UNL     1      30.063  -0.303  53.559  1.00  0.00     0.310 C 
HETATM   29  C23 UNL     1      27.900  -1.119  53.060  1.00  0.00     0.310 C 
ENDBRANCH  25  27
ENDBRANCH  24  25
ENDBRANCH  20  23
ENDBRANCH  18  19
BRANCH   1  30
HETATM   30  O1  UNL     1      21.680  -0.212  54.501  1.00  0.00    -0.354 OA
HETATM   31  C1  UNL     1      21.577  -1.637  54.510  1.00  0.00     0.210 C 
ENDBRANCH   1  30
BRANCH   7  32
HETATM   32  N2  UNL     1      19.138   2.473  47.476  1.00  0.00    -0.419 N 
HETATM   33  H8  UNL     1      18.621   1.607  47.219  1.00  0.00     0.150 HD
HETATM   34  H9  UNL     1      19.388   3.092  46.686  1.00  0.00     0.150 HD
ENDBRANCH   7  32
TORSDOF 6
ENDMDL
MODEL 7
REMARK VINA RESULT:      -7.8      1.685      2.219
REMARK  6 active torsions:
REMARK  status: ('A' for Active; 'I' for Inactive)
REMARK    1  A    between atoms: O1_2  and  C2_3 
REMARK    2  A    between atoms: C7_9  and  N2_10 
REMARK    3  A    between atoms: C16_21  and  N3_22 
REMARK       I    between atoms: N3_22  and  C17_23 
REMARK    4  A    between atoms: C17_23  and  C18_25 
REMARK    5  A    between atoms: C19_26  and  C20_27 
REMARK    6  A    between atoms: C20_27  and  N4_29 
ROOT
HETATM    1  C2  UNL     1      25.053   6.648  50.108  1.00  0.00     0.096 A 
HETATM    2  C3  UNL     1      24.771   7.751  49.430  1.00  0.00     0.067 A 
HETATM    3  C4  UNL     1      25.550   7.934  48.209  1.00  0.00     0.049 A 
HETATM    4  N1  UNL     1      25.112   9.064  47.712  1.00  0.00    -0.265 NA
HETATM    5  C5  UNL     1      25.361   9.894  46.580  1.00  0.00     0.115 C 
HETATM    6  C6  UNL     1      26.353   9.947  45.691  1.00  0.00     0.021 C 
HETATM    7  C7  UNL     1      27.639   9.320  45.312  1.00  0.00     0.132 C 
HETATM    8  C8  UNL     1      28.306   8.674  46.477  1.00  0.00    -0.023 A 
HETATM    9  C9  UNL     1      29.585   9.194  46.491  1.00  0.00     0.037 A 
HETATM   10  C10 UNL     1      30.499   8.808  47.458  1.00  0.00     0.073 A 
HETATM   11 CL1  UNL     1      32.138   9.413  47.553  1.00  0.00    -0.081 Cl
HETATM   12  C11 UNL     1      30.081   7.890  48.399  1.00  0.00     0.138 A 
HETATM   13  F1  UNL     1      30.911   7.451  49.391  1.00  0.00    -0.204 F 
HETATM   14  C12 UNL     1      28.798   7.394  48.355  1.00  0.00     0.052 A 
HETATM   15  C13 UNL     1      27.870   7.763  47.402  1.00  0.00    -0.033 A 
HETATM   16  C14 UNL     1      26.604   7.044  47.646  1.00  0.00     0.096 A 
HETATM   17  C15 UNL     1      26.750   5.899  48.546  1.00  0.00     0.021 A 
HETATM   18  C16 UNL     1      26.065   5.697  49.660  1.00  0.00     0.066 A 
ENDROOT
BRANCH  18  19
HETATM   19  N3  UNL     1      26.229   4.568  50.518  1.00  0.00    -0.321 N 
HETATM   20  C17 UNL     1      25.431   3.431  50.171  1.00  0.00     0.245 C 
HETATM   21  O2  UNL     1      24.621   3.331  49.211  1.00  0.00    -0.268 OA
HETATM   22  H14 UNL     1      26.863   4.511  51.347  1.00  0.00     0.169 HD
BRANCH  20  23
HETATM   23  C18 UNL     1      25.552   2.245  51.008  1.00  0.00     0.072 C 
HETATM   24  C19 UNL     1      26.655   1.794  51.586  1.00  0.00     0.013 C 
BRANCH  24  25
HETATM   25  C20 UNL     1      26.889   0.624  52.440  1.00  0.00     0.241 C 
HETATM   26  C21 UNL     1      25.613   0.129  53.088  1.00  0.00     0.047 C 
BRANCH  25  27
HETATM   27  N4  UNL     1      27.942   0.796  53.400  1.00  0.00     0.087 N 
HETATM   28  C22 UNL     1      27.665   0.252  54.694  1.00  0.00     0.310 C 
HETATM   29  C23 UNL     1      28.340   2.173  53.490  1.00  0.00     0.310 C 
ENDBRANCH  25  27
ENDBRANCH  24  25
ENDBRANCH  20  23
ENDBRANCH  18  19
BRANCH   1  30
HETATM   30  O1  UNL     1      24.312   6.473  51.270  1.00  0.00    -0.354 OA
HETATM   31  C1  UNL     1      22.948   6.094  51.080  1.00  0.00     0.210 C 
ENDBRANCH   1  30
BRANCH   7  32
HETATM   32  N2  UNL     1      27.398   8.420  44.219  1.00  0.00    -0.419 N 
HETATM   33  H8  UNL     1      27.586   7.419  44.433  1.00  0.00     0.150 HD
HETATM   34  H9  UNL     1      26.540   8.604  43.671  1.00  0.00     0.150 HD
ENDBRANCH   7  32
TORSDOF 6
ENDMDL
MODEL 8
REMARK VINA RESULT:      -7.7      5.395      7.545
REMARK  6 active torsions:
REMARK  status: ('A' for Active; 'I' for Inactive)
REMARK    1  A    between atoms: O1_2  and  C2_3 
REMARK    2  A    between atoms: C7_9  and  N2_10 
REMARK    3  A    between atoms: C16_21  and  N3_22 
REMARK       I    between atoms: N3_22  and  C17_23 
REMARK    4  A    between atoms: C17_23  and  C18_25 
REMARK    5  A    between atoms: C19_26  and  C20_27 
REMARK    6  A    between atoms: C20_27  and  N4_29 
ROOT
HETATM    1  C2  UNL     1      23.844   0.772  52.599  1.00  0.00     0.096 A 
HETATM    2  C3  UNL     1      24.911   1.259  51.983  1.00  0.00     0.067 A 
HETATM    3  C4  UNL     1      24.708   2.553  51.339  1.00  0.00     0.049 A 
HETATM    4  N1  UNL     1      25.870   2.836  50.805  1.00  0.00    -0.265 NA
HETATM    5  C5  UNL     1      26.461   3.883  50.039  1.00  0.00     0.115 C 
HETATM    6  C6  UNL     1      25.953   4.899  49.343  1.00  0.00     0.021 C 
HETATM    7  C7  UNL     1      24.682   5.544  48.945  1.00  0.00     0.132 C 
HETATM    8  C8  UNL     1      23.544   4.581  48.956  1.00  0.00    -0.023 A 
HETATM    9  C9  UNL     1      22.962   4.700  47.710  1.00  0.00     0.037 A 
HETATM   10  C10 UNL     1      21.856   3.938  47.367  1.00  0.00     0.073 A 
HETATM   11 CL1  UNL     1      21.054   4.021  45.814  1.00  0.00    -0.081 Cl
HETATM   12  C11 UNL     1      21.367   3.064  48.315  1.00  0.00     0.138 A 
HETATM   13  F1  UNL     1      20.282   2.270  48.066  1.00  0.00    -0.204 F 
HETATM   14  C12 UNL     1      21.974   2.971  49.547  1.00  0.00     0.052 A 
HETATM   15  C13 UNL     1      23.075   3.720  49.912  1.00  0.00    -0.033 A 
HETATM   16  C14 UNL     1      23.466   3.374  51.293  1.00  0.00     0.096 A 
HETATM   17  C15 UNL     1      22.425   2.654  52.029  1.00  0.00     0.021 A 
HETATM   18  C16 UNL     1      22.570   1.482  52.626  1.00  0.00     0.066 A 
ENDROOT
BRANCH  18  19
HETATM   19  N3  UNL     1      21.535   0.804  53.337  1.00  0.00    -0.321 N 
HETATM   20  C17 UNL     1      20.551   0.176  52.508  1.00  0.00     0.245 C 
HETATM   21  O2  UNL     1      20.509   0.163  51.250  1.00  0.00    -0.268 OA
HETATM   22  H14 UNL     1      21.444   0.734  54.376  1.00  0.00     0.169 HD
BRANCH  20  23
HETATM   23  C18 UNL     1      19.466  -0.534  53.173  1.00  0.00     0.072 C 
HETATM   24  C19 UNL     1      18.323  -0.922  52.629  1.00  0.00     0.013 C 
BRANCH  24  25
HETATM   25  C20 UNL     1      17.174  -1.634  53.199  1.00  0.00     0.241 C 
HETATM   26  C21 UNL     1      17.540  -3.031  53.654  1.00  0.00     0.047 C 
BRANCH  25  27
HETATM   27  N4  UNL     1      16.007  -1.636  52.363  1.00  0.00     0.087 N 
HETATM   28  C22 UNL     1      15.112  -0.542  52.585  1.00  0.00     0.310 C 
HETATM   29  C23 UNL     1      15.318  -2.893  52.439  1.00  0.00     0.310 C 
ENDBRANCH  25  27
ENDBRANCH  24  25
ENDBRANCH  20  23
ENDBRANCH  18  19
BRANCH   1  30
HETATM   30  O1  UNL     1      24.037  -0.459  53.212  1.00  0.00    -0.354 OA
HETATM   31  C1  UNL     1      25.159  -0.541  54.093  1.00  0.00     0.210 C 
ENDBRANCH   1  30
BRANCH   7  32
HETATM   32  N2  UNL     1      24.473   6.689  49.785  1.00  0.00    -0.419 N 
HETATM   33  H8  UNL     1      23.569   7.180  49.630  1.00  0.00     0.150 HD
HETATM   34  H9  UNL     1      24.751   6.572  50.775  1.00  0.00     0.150 HD
ENDBRANCH   7  32
TORSDOF 6
ENDMDL
MODEL 9
REMARK VINA RESULT:      -7.7      6.511      9.285
REMARK  6 active torsions:
REMARK  status: ('A' for Active; 'I' for Inactive)
REMARK    1  A    between atoms: O1_2  and  C2_3 
REMARK    2  A    between atoms: C7_9  and  N2_10 
REMARK    3  A    between atoms: C16_21  and  N3_22 
REMARK       I    between atoms: N3_22  and  C17_23 
REMARK    4  A    between atoms: C17_23  and  C18_25 
REMARK    5  A    between atoms: C19_26  and  C20_27 
REMARK    6  A    between atoms: C20_27  and  N4_29 
ROOT
HETATM    1  C2  UNL     1      21.103   2.530  50.038  1.00  0.00     0.096 A 
HETATM    2  C3  UNL     1      20.027   2.258  49.315  1.00  0.00     0.067 A 
HETATM    3  C4  UNL     1      18.825   1.972  50.092  1.00  0.00     0.049 A 
HETATM    4  N1  UNL     1      17.904   1.736  49.191  1.00  0.00    -0.265 NA
HETATM    5  C5  UNL     1      16.520   1.398  49.148  1.00  0.00     0.115 C 
HETATM    6  C6  UNL     1      15.668   0.935  50.063  1.00  0.00     0.021 C 
HETATM    7  C7  UNL     1      15.560   0.527  51.482  1.00  0.00     0.132 C 
HETATM    8  C8  UNL     1      16.872   0.084  52.033  1.00  0.00    -0.023 A 
HETATM    9  C9  UNL     1      16.629  -1.159  52.582  1.00  0.00     0.037 A 
HETATM   10  C10 UNL     1      17.644  -1.877  53.194  1.00  0.00     0.073 A 
HETATM   11 CL1  UNL     1      17.429  -3.457  53.915  1.00  0.00    -0.081 Cl
HETATM   12  C11 UNL     1      18.897  -1.302  53.230  1.00  0.00     0.138 A 
HETATM   13  F1  UNL     1      19.960  -1.935  53.810  1.00  0.00    -0.204 F 
HETATM   14  C12 UNL     1      19.103  -0.061  52.672  1.00  0.00     0.052 A 
HETATM   15  C13 UNL     1      18.108   0.673  52.058  1.00  0.00    -0.033 A 
HETATM   16  C14 UNL     1      18.669   1.950  51.574  1.00  0.00     0.096 A 
HETATM   17  C15 UNL     1      19.968   2.276  52.165  1.00  0.00     0.021 A 
HETATM   18  C16 UNL     1      21.079   2.541  51.497  1.00  0.00     0.066 A 
ENDROOT
BRANCH  18  19
HETATM   19  N3  UNL     1      22.331   2.857  52.103  1.00  0.00    -0.321 N 
HETATM   20  C17 UNL     1      23.086   1.722  52.542  1.00  0.00     0.245 C 
HETATM   21  O2  UNL     1      22.764   0.508  52.449  1.00  0.00    -0.268 OA
HETATM   22  H14 UNL     1      22.724   3.815  52.246  1.00  0.00     0.169 HD
BRANCH  20  23
HETATM   23  C18 UNL     1      24.376   1.976  53.170  1.00  0.00     0.072 C 
HETATM   24  C19 UNL     1      25.414   1.154  53.209  1.00  0.00     0.013 C 
BRANCH  24  25
HETATM   25  C20 UNL     1      26.745   1.306  53.807  1.00  0.00     0.241 C 
HETATM   26  C21 UNL     1      27.664   2.144  52.944  1.00  0.00     0.047 C 
BRANCH  25  27
HETATM   27  N4  UNL     1      27.361   0.068  54.194  1.00  0.00     0.087 N 
HETATM   28  C22 UNL     1      28.639   0.208  54.822  1.00  0.00     0.310 C 
HETATM   29  C23 UNL     1      27.423  -0.847  53.089  1.00  0.00     0.310 C 
ENDBRANCH  25  27
ENDBRANCH  24  25
ENDBRANCH  20  23
ENDBRANCH  18  19
BRANCH   1  30
HETATM   30  O1  UNL     1      22.247   2.803  49.299  1.00  0.00    -0.354 OA
HETATM   31  C1  UNL     1      22.352   2.118  48.049  1.00  0.00     0.210 C 
ENDBRANCH   1  30
BRANCH   7  32
HETATM   32  N2  UNL     1      14.963   1.604  52.219  1.00  0.00    -0.419 N 
HETATM   33  H8  UNL     1      15.338   1.730  53.181  1.00  0.00     0.150 HD
HETATM   34  H9  UNL     1      14.806   2.476  51.685  1.00  0.00     0.150 HD
ENDBRANCH   7  32
TORSDOF 6
ENDMDL
