MODEL 1
REMARK VINA RESULT:      -6.8      0.000      0.000
REMARK  6 active torsions:
REMARK  status: ('A' for Active; 'I' for Inactive)
REMARK    1  A    between atoms: N1_1  and  C1_2 
REMARK    2  A    between atoms: C2_3  and  C3_4 
REMARK    3  A    between atoms: C4_6  and  C5_7 
REMARK    4  A    between atoms: N4_10  and  C7_11 
REMARK    5  A    between atoms: C7_11  and  C8_12 
REMARK    6  A    between atoms: C8_12  and  N5_13 
ROOT
HETATM    1  C5  UNL     1      26.253   4.482  49.431  1.00  0.00     0.030 A 
HETATM    2  C6  UNL     1      24.869   4.515  49.406  1.00  0.00     0.154 A 
HETATM    3  N3  UNL     1      24.431   3.477  50.153  1.00  0.00    -0.184 NA
HETATM    4  N4  UNL     1      25.459   2.803  50.638  1.00  0.00    -0.279 N 
HETATM    5  C13 UNL     1      26.583   3.399  50.209  1.00  0.00     0.127 A 
ENDROOT
BRANCH   1   6
HETATM    6  C4  UNL     1      27.148   5.415  48.759  1.00  0.00     0.085 A 
HETATM    7  N2  UNL     1      28.511   5.073  48.569  1.00  0.00    -0.249 NA
HETATM    8  C3  UNL     1      29.370   5.854  47.977  1.00  0.00     0.054 A 
HETATM    9  C15 UNL     1      29.006   7.186  47.433  1.00  0.00     0.178 A 
HETATM   10  N6  UNL     1      27.599   7.405  47.703  1.00  0.00    -0.391 N 
HETATM   11  C14 UNL     1      26.650   6.566  48.343  1.00  0.00     0.116 A 
HETATM   12  H20 UNL     1      27.345   8.349  47.331  1.00  0.00     0.159 HD
BRANCH   8  13
HETATM   13  C2  UNL     1      30.720   5.354  47.867  1.00  0.00     0.045 C 
HETATM   14  C1  UNL     1      31.615   5.459  48.825  1.00  0.00     0.082 C 
BRANCH  14  15
HETATM   15  N1  UNL     1      31.337   6.074  50.063  1.00  0.00    -0.408 N 
HETATM   16  H1  UNL     1      31.284   7.104  50.261  1.00  0.00     0.155 HD
HETATM   17  H2  UNL     1      31.129   6.494  50.987  1.00  0.00     0.155 HD
ENDBRANCH  14  15
ENDBRANCH   8  13
ENDBRANCH   1   6
BRANCH   4  18
HETATM   18  C7  UNL     1      25.273   1.634  51.480  1.00  0.00     0.180 C 
BRANCH  18  19
HETATM   19  C8  UNL     1      26.578   1.001  51.861  1.00  0.00     0.294 C 
BRANCH  19  20
HETATM   20  N5  UNL     1      26.757   0.854  53.297  1.00  0.00     0.094 N 
HETATM   21  C9  UNL     1      27.009   2.157  53.882  1.00  0.00     0.298 C 
HETATM   22  C10 UNL     1      28.484   2.431  53.758  1.00  0.00     0.198 C 
HETATM   23  O1  UNL     1      29.269   1.592  54.525  1.00  0.00    -0.388 OA
HETATM   24  C11 UNL     1      28.713   0.329  54.686  1.00  0.00     0.198 C 
HETATM   25  C12 UNL     1      27.837  -0.068  53.524  1.00  0.00     0.298 C 
ENDBRANCH  19  20
ENDBRANCH  18  19
ENDBRANCH   4  18
TORSDOF 6
ENDMDL
MODEL 2
REMARK VINA RESULT:      -6.7      4.744      7.487
REMARK  6 active torsions:
REMARK  status: ('A' for Active; 'I' for Inactive)
REMARK    1  A    between atoms: N1_1  and  C1_2 
REMARK    2  A    between atoms: C2_3  and  C3_4 
REMARK    3  A    between atoms: C4_6  and  C5_7 
REMARK    4  A    between atoms: N4_10  and  C7_11 
REMARK    5  A    between atoms: C7_11  and  C8_12 
REMARK    6  A    between atoms: C8_12  and  N5_13 
ROOT
HETATM    1  C5  UNL     1      21.791  -0.367  53.409  1.00  0.00     0.030 A 
HETATM    2  C6  UNL     1      21.414  -1.006  54.578  1.00  0.00     0.154 A 
HETATM    3  N3  UNL     1      22.544  -1.272  55.271  1.00  0.00    -0.184 NA
HETATM    4  N4  UNL     1      23.597  -0.838  54.601  1.00  0.00    -0.279 N 
HETATM    5  C13 UNL     1      23.161  -0.281  53.460  1.00  0.00     0.127 A 
ENDROOT
BRANCH   1   6
HETATM    6  C4  UNL     1      20.896   0.104  52.359  1.00  0.00     0.085 A 
HETATM    7  N2  UNL     1      21.415   0.410  51.076  1.00  0.00    -0.249 NA
HETATM    8  C3  UNL     1      20.679   0.835  50.088  1.00  0.00     0.054 A 
HETATM    9  C15 UNL     1      19.212   1.037  50.206  1.00  0.00     0.178 A 
HETATM   10  N6  UNL     1      18.826   0.697  51.560  1.00  0.00    -0.391 N 
HETATM   11  C14 UNL     1      19.613   0.231  52.646  1.00  0.00     0.116 A 
HETATM   12  H20 UNL     1      17.795   0.851  51.647  1.00  0.00     0.159 HD
BRANCH   8  13
HETATM   13  C2  UNL     1      21.364   1.101  48.846  1.00  0.00     0.045 C 
HETATM   14  C1  UNL     1      22.203   2.100  48.678  1.00  0.00     0.082 C 
BRANCH  14  15
HETATM   15  N1  UNL     1      22.515   3.013  49.706  1.00  0.00    -0.408 N 
HETATM   16  H1  UNL     1      22.409   2.864  50.740  1.00  0.00     0.155 HD
HETATM   17  H2  UNL     1      22.754   3.708  50.437  1.00  0.00     0.155 HD
ENDBRANCH  14  15
ENDBRANCH   8  13
ENDBRANCH   1   6
BRANCH   4  18
HETATM   18  C7  UNL     1      24.945  -0.997  55.119  1.00  0.00     0.180 C 
BRANCH  18  19
HETATM   19  C8  UNL     1      25.981  -0.501  54.154  1.00  0.00     0.294 C 
BRANCH  19  20
HETATM   20  N5  UNL     1      26.723   0.652  54.636  1.00  0.00     0.094 N 
HETATM   21  C9  UNL     1      26.375   1.812  53.838  1.00  0.00     0.298 C 
HETATM   22  C10 UNL     1      27.252   1.799  52.614  1.00  0.00     0.198 C 
HETATM   23  O1  UNL     1      28.590   2.006  52.890  1.00  0.00    -0.388 OA
HETATM   24  C11 UNL     1      28.966   1.518  54.135  1.00  0.00     0.198 C 
HETATM   25  C12 UNL     1      28.127   0.344  54.573  1.00  0.00     0.298 C 
ENDBRANCH  19  20
ENDBRANCH  18  19
ENDBRANCH   4  18
TORSDOF 6
ENDMDL
MODEL 3
REMARK VINA RESULT:      -6.7      4.995      8.832
REMARK  6 active torsions:
REMARK  status: ('A' for Active; 'I' for Inactive)
REMARK    1  A    between atoms: N1_1  and  C1_2 
REMARK    2  A    between atoms: C2_3  and  C3_4 
REMARK    3  A    between atoms: C4_6  and  C5_7 
REMARK    4  A    between atoms: N4_10  and  C7_11 
REMARK    5  A    between atoms: C7_11  and  C8_12 
REMARK    6  A    between atoms: C8_12  and  N5_13 
ROOT
HETATM    1  C5  UNL     1      21.755   0.493  52.786  1.00  0.00     0.030 A 
HETATM    2  C6  UNL     1      22.142  -0.787  53.147  1.00  0.00     0.154 A 
HETATM    3  N3  UNL     1      23.456  -0.735  53.459  1.00  0.00    -0.184 NA
HETATM    4  N4  UNL     1      23.906   0.499  53.314  1.00  0.00    -0.279 N 
HETATM    5  C13 UNL     1      22.884   1.267  52.904  1.00  0.00     0.127 A 
ENDROOT
BRANCH   1   6
HETATM    6  C4  UNL     1      20.419   0.904  52.372  1.00  0.00     0.085 A 
HETATM    7  N2  UNL     1      19.391  -0.064  52.248  1.00  0.00    -0.249 NA
HETATM    8  C3  UNL     1      18.174   0.226  51.885  1.00  0.00     0.054 A 
HETATM    9  C15 UNL     1      17.736   1.609  51.569  1.00  0.00     0.178 A 
HETATM   10  N6  UNL     1      18.881   2.483  51.729  1.00  0.00    -0.391 N 
HETATM   11  C14 UNL     1      20.211   2.184  52.125  1.00  0.00     0.116 A 
HETATM   12  H20 UNL     1      18.576   3.456  51.493  1.00  0.00     0.159 HD
BRANCH   8  13
HETATM   13  C2  UNL     1      17.248  -0.878  51.807  1.00  0.00     0.045 C 
HETATM   14  C1  UNL     1      17.041  -1.725  52.791  1.00  0.00     0.082 C 
BRANCH  14  15
HETATM   15  N1  UNL     1      17.711  -1.633  54.028  1.00  0.00    -0.408 N 
HETATM   16  H1  UNL     1      18.340  -0.857  54.352  1.00  0.00     0.155 HD
HETATM   17  H2  UNL     1      18.189  -1.597  54.947  1.00  0.00     0.155 HD
ENDBRANCH  14  15
ENDBRANCH   8  13
ENDBRANCH   1   6
BRANCH   4  18
HETATM   18  C7  UNL     1      25.293   0.839  53.585  1.00  0.00     0.180 C 
BRANCH  18  19
HETATM   19  C8  UNL     1      26.244  -0.132  52.951  1.00  0.00     0.294 C 
BRANCH  19  20
HETATM   20  N5  UNL     1      27.564   0.424  52.701  1.00  0.00     0.094 N 
HETATM   21  C9  UNL     1      28.544  -0.302  53.485  1.00  0.00     0.298 C 
HETATM   22  C10 UNL     1      28.578   0.320  54.855  1.00  0.00     0.198 C 
HETATM   23  O1  UNL     1      29.070   1.611  54.864  1.00  0.00    -0.388 OA
HETATM   24  C11 UNL     1      28.797   2.302  53.691  1.00  0.00     0.198 C 
HETATM   25  C12 UNL     1      27.532   1.825  53.022  1.00  0.00     0.298 C 
ENDBRANCH  19  20
ENDBRANCH  18  19
ENDBRANCH   4  18
TORSDOF 6
ENDMDL
MODEL 4
REMARK VINA RESULT:      -6.6      1.939      2.791
REMARK  6 active torsions:
REMARK  status: ('A' for Active; 'I' for Inactive)
REMARK    1  A    between atoms: N1_1  and  C1_2 
REMARK    2  A    between atoms: C2_3  and  C3_4 
REMARK    3  A    between atoms: C4_6  and  C5_7 
REMARK    4  A    between atoms: N4_10  and  C7_11 
REMARK    5  A    between atoms: C7_11  and  C8_12 
REMARK    6  A    between atoms: C8_12  and  N5_13 
ROOT
HETATM    1  C5  UNL     1      25.312   4.320  49.780  1.00  0.00     0.030 A 
HETATM    2  C6  UNL     1      23.948   4.509  49.630  1.00  0.00     0.154 A 
HETATM    3  N3  UNL     1      23.330   3.508  50.296  1.00  0.00    -0.184 NA
HETATM    4  N4  UNL     1      24.228   2.712  50.849  1.00  0.00    -0.279 N 
HETATM    5  C13 UNL     1      25.446   3.189  50.547  1.00  0.00     0.127 A 
ENDROOT
BRANCH   1   6
HETATM    6  C4  UNL     1      26.363   5.164  49.227  1.00  0.00     0.085 A 
HETATM    7  N2  UNL     1      26.177   6.568  49.157  1.00  0.00    -0.249 NA
HETATM    8  C3  UNL     1      27.070   7.386  48.678  1.00  0.00     0.054 A 
HETATM    9  C15 UNL     1      28.384   6.930  48.158  1.00  0.00     0.178 A 
HETATM   10  N6  UNL     1      28.432   5.488  48.282  1.00  0.00    -0.391 N 
HETATM   11  C14 UNL     1      27.471   4.582  48.804  1.00  0.00     0.116 A 
HETATM   12  H20 UNL     1      29.352   5.164  47.904  1.00  0.00     0.159 HD
BRANCH   8  13
HETATM   13  C2  UNL     1      26.722   8.787  48.678  1.00  0.00     0.045 C 
HETATM   14  C1  UNL     1      26.928   9.588  49.700  1.00  0.00     0.082 C 
BRANCH  14  15
HETATM   15  N1  UNL     1      27.517   9.149  50.905  1.00  0.00    -0.408 N 
HETATM   16  H1  UNL     1      27.440   8.194  51.336  1.00  0.00     0.155 HD
HETATM   17  H2  UNL     1      27.963   8.859  51.794  1.00  0.00     0.155 HD
ENDBRANCH  14  15
ENDBRANCH   8  13
ENDBRANCH   1   6
BRANCH   4  18
HETATM   18  C7  UNL     1      23.836   1.550  51.629  1.00  0.00     0.180 C 
BRANCH  18  19
HETATM   19  C8  UNL     1      24.727   1.343  52.817  1.00  0.00     0.294 C 
BRANCH  19  20
HETATM   20  N5  UNL     1      25.315   0.015  52.881  1.00  0.00     0.094 N 
HETATM   21  C9  UNL     1      25.273  -0.461  54.251  1.00  0.00     0.298 C 
HETATM   22  C10 UNL     1      26.491   0.078  54.953  1.00  0.00     0.198 C 
HETATM   23  O1  UNL     1      27.679  -0.447  54.481  1.00  0.00    -0.388 OA
HETATM   24  C11 UNL     1      27.627  -0.774  53.132  1.00  0.00     0.198 C 
HETATM   25  C12 UNL     1      26.656   0.089  52.367  1.00  0.00     0.298 C 
ENDBRANCH  19  20
ENDBRANCH  18  19
ENDBRANCH   4  18
TORSDOF 6
ENDMDL
MODEL 5
REMARK VINA RESULT:      -6.6      4.993      8.933
REMARK  6 active torsions:
REMARK  status: ('A' for Active; 'I' for Inactive)
REMARK    1  A    between atoms: N1_1  and  C1_2 
REMARK    2  A    between atoms: C2_3  and  C3_4 
REMARK    3  A    between atoms: C4_6  and  C5_7 
REMARK    4  A    between atoms: N4_10  and  C7_11 
REMARK    5  A    between atoms: C7_11  and  C8_12 
REMARK    6  A    between atoms: C8_12  and  N5_13 
ROOT
HETATM    1  C5  UNL     1      21.743   0.441  52.467  1.00  0.00     0.030 A 
HETATM    2  C6  UNL     1      22.177   1.144  51.356  1.00  0.00     0.154 A 
HETATM    3  N3  UNL     1      23.467   1.484  51.577  1.00  0.00    -0.184 NA
HETATM    4  N4  UNL     1      23.857   1.034  52.757  1.00  0.00    -0.279 N 
HETATM    5  C13 UNL     1      22.819   0.393  53.319  1.00  0.00     0.127 A 
ENDROOT
BRANCH   1   6
HETATM    6  C4  UNL     1      20.412  -0.121  52.663  1.00  0.00     0.085 A 
HETATM    7  N2  UNL     1      19.409   0.086  51.684  1.00  0.00    -0.249 NA
HETATM    8  C3  UNL     1      18.198  -0.384  51.788  1.00  0.00     0.054 A 
HETATM    9  C15 UNL     1      17.746  -1.195  52.947  1.00  0.00     0.178 A 
HETATM   10  N6  UNL     1      18.862  -1.318  53.863  1.00  0.00    -0.391 N 
HETATM   11  C14 UNL     1      20.185  -0.814  53.764  1.00  0.00     0.116 A 
HETATM   12  H20 UNL     1      18.540  -1.878  54.686  1.00  0.00     0.159 HD
BRANCH   8  13
HETATM   13  C2  UNL     1      17.297  -0.081  50.702  1.00  0.00     0.045 C 
HETATM   14  C1  UNL     1      16.800   1.116  50.481  1.00  0.00     0.082 C 
BRANCH  14  15
HETATM   15  N1  UNL     1      17.106   2.228  51.293  1.00  0.00    -0.408 N 
HETATM   16  H1  UNL     1      16.438   2.961  51.641  1.00  0.00     0.155 HD
HETATM   17  H2  UNL     1      17.364   3.035  51.889  1.00  0.00     0.155 HD
ENDBRANCH  14  15
ENDBRANCH   8  13
ENDBRANCH   1   6
BRANCH   4  18
HETATM   18  C7  UNL     1      25.205   1.260  53.249  1.00  0.00     0.180 C 
BRANCH  18  19
HETATM   19  C8  UNL     1      26.145   0.167  52.835  1.00  0.00     0.294 C 
BRANCH  19  20
HETATM   20  N5  UNL     1      27.516   0.614  52.653  1.00  0.00     0.094 N 
HETATM   21  C9  UNL     1      28.402  -0.236  53.425  1.00  0.00     0.298 C 
HETATM   22  C10 UNL     1      28.444   0.310  54.828  1.00  0.00     0.198 C 
HETATM   23  O1  UNL     1      29.048   1.550  54.921  1.00  0.00    -0.388 OA
HETATM   24  C11 UNL     1      28.875   2.322  53.779  1.00  0.00     0.198 C 
HETATM   25  C12 UNL     1      27.597   1.994  53.049  1.00  0.00     0.298 C 
ENDBRANCH  19  20
ENDBRANCH  18  19
ENDBRANCH   4  18
TORSDOF 6
ENDMDL
MODEL 6
REMARK VINA RESULT:      -6.5      4.161      5.877
REMARK  6 active torsions:
REMARK  status: ('A' for Active; 'I' for Inactive)
REMARK    1  A    between atoms: N1_1  and  C1_2 
REMARK    2  A    between atoms: C2_3  and  C3_4 
REMARK    3  A    between atoms: C4_6  and  C5_7 
REMARK    4  A    between atoms: N4_10  and  C7_11 
REMARK    5  A    between atoms: C7_11  and  C8_12 
REMARK    6  A    between atoms: C8_12  and  N5_13 
ROOT
HETATM    1  C5  UNL     1      22.325   1.488  52.473  1.00  0.00     0.030 A 
HETATM    2  C6  UNL     1      21.655   0.395  52.997  1.00  0.00     0.154 A 
HETATM    3  N3  UNL     1      22.591  -0.503  53.380  1.00  0.00    -0.184 NA
HETATM    4  N4  UNL     1      23.799  -0.032  53.124  1.00  0.00    -0.279 N 
HETATM    5  C13 UNL     1      23.661   1.183  52.569  1.00  0.00     0.127 A 
ENDROOT
BRANCH   1   6
HETATM    6  C4  UNL     1      21.713   2.696  51.936  1.00  0.00     0.085 A 
HETATM    7  N2  UNL     1      22.528   3.702  51.359  1.00  0.00    -0.249 NA
HETATM    8  C3  UNL     1      22.054   4.808  50.858  1.00  0.00     0.054 A 
HETATM    9  C15 UNL     1      20.604   5.126  50.836  1.00  0.00     0.178 A 
HETATM   10  N6  UNL     1      19.900   4.024  51.460  1.00  0.00    -0.391 N 
HETATM   11  C14 UNL     1      20.399   2.813  52.007  1.00  0.00     0.116 A 
HETATM   12  H20 UNL     1      18.879   4.253  51.456  1.00  0.00     0.159 HD
BRANCH   8  13
HETATM   13  C2  UNL     1      23.020   5.729  50.309  1.00  0.00     0.045 C 
HETATM   14  C1  UNL     1      23.944   6.329  51.028  1.00  0.00     0.082 C 
BRANCH  14  15
HETATM   15  N1  UNL     1      24.078   6.125  52.417  1.00  0.00    -0.408 N 
HETATM   16  H1  UNL     1      24.353   5.236  52.904  1.00  0.00     0.155 HD
HETATM   17  H2  UNL     1      24.168   6.010  53.443  1.00  0.00     0.155 HD
ENDBRANCH  14  15
ENDBRANCH   8  13
ENDBRANCH   1   6
BRANCH   4  18
HETATM   18  C7  UNL     1      24.994  -0.797  53.437  1.00  0.00     0.180 C 
BRANCH  18  19
HETATM   19  C8  UNL     1      25.998   0.015  54.199  1.00  0.00     0.294 C 
BRANCH  19  20
HETATM   20  N5  UNL     1      27.085   0.520  53.377  1.00  0.00     0.094 N 
HETATM   21  C9  UNL     1      28.314  -0.159  53.741  1.00  0.00     0.298 C 
HETATM   22  C10 UNL     1      28.904   0.575  54.916  1.00  0.00     0.198 C 
HETATM   23  O1  UNL     1      29.336   1.852  54.610  1.00  0.00    -0.388 OA
HETATM   24  C11 UNL     1      28.589   2.448  53.603  1.00  0.00     0.198 C 
HETATM   25  C12 UNL     1      27.168   1.944  53.563  1.00  0.00     0.298 C 
ENDBRANCH  19  20
ENDBRANCH  18  19
ENDBRANCH   4  18
TORSDOF 6
ENDMDL
MODEL 7
REMARK VINA RESULT:      -6.5      1.997      2.685
REMARK  6 active torsions:
REMARK  status: ('A' for Active; 'I' for Inactive)
REMARK    1  A    between atoms: N1_1  and  C1_2 
REMARK    2  A    between atoms: C2_3  and  C3_4 
REMARK    3  A    between atoms: C4_6  and  C5_7 
REMARK    4  A    between atoms: N4_10  and  C7_11 
REMARK    5  A    between atoms: C7_11  and  C8_12 
REMARK    6  A    between atoms: C8_12  and  N5_13 
ROOT
HETATM    1  C5  UNL     1      24.480   4.423  50.220  1.00  0.00     0.030 A 
HETATM    2  C6  UNL     1      23.763   3.772  49.230  1.00  0.00     0.154 A 
HETATM    3  N3  UNL     1      23.359   2.587  49.743  1.00  0.00    -0.184 NA
HETATM    4  N4  UNL     1      23.783   2.467  50.989  1.00  0.00    -0.279 N 
HETATM    5  C13 UNL     1      24.469   3.577  51.302  1.00  0.00     0.127 A 
ENDROOT
BRANCH   1   6
HETATM    6  C4  UNL     1      25.104   5.735  50.106  1.00  0.00     0.085 A 
HETATM    7  N2  UNL     1      26.061   5.975  49.088  1.00  0.00    -0.249 NA
HETATM    8  C3  UNL     1      26.660   7.120  48.923  1.00  0.00     0.054 A 
HETATM    9  C15 UNL     1      26.395   8.299  49.786  1.00  0.00     0.178 A 
HETATM   10  N6  UNL     1      25.414   7.910  50.778  1.00  0.00    -0.391 N 
HETATM   11  C14 UNL     1      24.750   6.670  50.970  1.00  0.00     0.116 A 
HETATM   12  H20 UNL     1      25.236   8.736  51.395  1.00  0.00     0.159 HD
BRANCH   8  13
HETATM   13  C2  UNL     1      27.609   7.197  47.838  1.00  0.00     0.045 C 
HETATM   14  C1  UNL     1      28.767   6.575  47.840  1.00  0.00     0.082 C 
BRANCH  14  15
HETATM   15  N1  UNL     1      29.195   5.766  48.913  1.00  0.00    -0.408 N 
HETATM   16  H1  UNL     1      28.869   4.794  49.143  1.00  0.00     0.155 HD
HETATM   17  H2  UNL     1      29.532   5.197  49.711  1.00  0.00     0.155 HD
ENDBRANCH  14  15
ENDBRANCH   8  13
ENDBRANCH   1   6
BRANCH   4  18
HETATM   18  C7  UNL     1      23.488   1.285  51.781  1.00  0.00     0.180 C 
BRANCH  18  19
HETATM   19  C8  UNL     1      24.425   1.138  52.943  1.00  0.00     0.294 C 
BRANCH  19  20
HETATM   20  N5  UNL     1      25.108  -0.144  52.984  1.00  0.00     0.094 N 
HETATM   21  C9  UNL     1      25.190  -0.598  54.358  1.00  0.00     0.298 C 
HETATM   22  C10 UNL     1      26.411   0.035  54.972  1.00  0.00     0.198 C 
HETATM   23  O1  UNL     1      27.599  -0.413  54.427  1.00  0.00    -0.388 OA
HETATM   24  C11 UNL     1      27.482  -0.764  53.089  1.00  0.00     0.198 C 
HETATM   25  C12 UNL     1      26.404   0.016  52.380  1.00  0.00     0.298 C 
ENDBRANCH  19  20
ENDBRANCH  18  19
ENDBRANCH   4  18
TORSDOF 6
ENDMDL
MODEL 8
REMARK VINA RESULT:      -6.5      3.987      7.303
REMARK  6 active torsions:
REMARK  status: ('A' for Active; 'I' for Inactive)
REMARK    1  A    between atoms: N1_1  and  C1_2 
REMARK    2  A    between atoms: C2_3  and  C3_4 
REMARK    3  A    between atoms: C4_6  and  C5_7 
REMARK    4  A    between atoms: N4_10  and  C7_11 
REMARK    5  A    between atoms: C7_11  and  C8_12 
REMARK    6  A    between atoms: C8_12  and  N5_13 
ROOT
HETATM    1  C5  UNL     1      25.950   2.176  51.551  1.00  0.00     0.030 A 
HETATM    2  C6  UNL     1      26.662   2.852  50.574  1.00  0.00     0.154 A 
HETATM    3  N3  UNL     1      25.767   3.298  49.663  1.00  0.00    -0.184 NA
HETATM    4  N4  UNL     1      24.546   2.938  50.017  1.00  0.00    -0.279 N 
HETATM    5  C13 UNL     1      24.634   2.252  51.168  1.00  0.00     0.127 A 
ENDROOT
BRANCH   1   6
HETATM    6  C4  UNL     1      26.511   1.528  52.730  1.00  0.00     0.085 A 
HETATM    7  N2  UNL     1      27.563   0.590  52.586  1.00  0.00    -0.249 NA
HETATM    8  C3  UNL     1      28.116  -0.028  53.591  1.00  0.00     0.054 A 
HETATM    9  C15 UNL     1      27.699   0.194  54.999  1.00  0.00     0.178 A 
HETATM   10  N6  UNL     1      26.621   1.160  54.995  1.00  0.00    -0.391 N 
HETATM   11  C14 UNL     1      26.010   1.844  53.911  1.00  0.00     0.116 A 
HETATM   12  H20 UNL     1      26.318   1.307  55.985  1.00  0.00     0.159 HD
BRANCH   8  13
HETATM   13  C2  UNL     1      29.176  -0.954  53.271  1.00  0.00     0.045 C 
HETATM   14  C1  UNL     1      28.974  -2.223  52.996  1.00  0.00     0.082 C 
BRANCH  14  15
HETATM   15  N1  UNL     1      27.690  -2.806  52.986  1.00  0.00    -0.408 N 
HETATM   16  H1  UNL     1      26.767  -2.305  52.989  1.00  0.00     0.155 HD
HETATM   17  H2  UNL     1      26.761  -3.266  52.979  1.00  0.00     0.155 HD
ENDBRANCH  14  15
ENDBRANCH   8  13
ENDBRANCH   1   6
BRANCH   4  18
HETATM   18  C7  UNL     1      23.388   3.288  49.212  1.00  0.00     0.180 C 
BRANCH  18  19
HETATM   19  C8  UNL     1      22.130   2.659  49.733  1.00  0.00     0.294 C 
BRANCH  19  20
HETATM   20  N5  UNL     1      21.071   3.615  50.012  1.00  0.00     0.094 N 
HETATM   21  C9  UNL     1      21.369   4.311  51.249  1.00  0.00     0.298 C 
HETATM   22  C10 UNL     1      20.855   3.460  52.380  1.00  0.00     0.198 C 
HETATM   23  O1  UNL     1      19.477   3.354  52.410  1.00  0.00    -0.388 OA
HETATM   24  C11 UNL     1      18.903   3.417  51.147  1.00  0.00     0.198 C 
HETATM   25  C12 UNL     1      19.823   2.903  50.068  1.00  0.00     0.298 C 
ENDBRANCH  19  20
ENDBRANCH  18  19
ENDBRANCH   4  18
TORSDOF 6
ENDMDL
MODEL 9
REMARK VINA RESULT:      -6.4      5.243      7.399
REMARK  6 active torsions:
REMARK  status: ('A' for Active; 'I' for Inactive)
REMARK    1  A    between atoms: N1_1  and  C1_2 
REMARK    2  A    between atoms: C2_3  and  C3_4 
REMARK    3  A    between atoms: C4_6  and  C5_7 
REMARK    4  A    between atoms: N4_10  and  C7_11 
REMARK    5  A    between atoms: C7_11  and  C8_12 
REMARK    6  A    between atoms: C8_12  and  N5_13 
ROOT
HETATM    1  C5  UNL     1      24.777   0.473  53.410  1.00  0.00     0.030 A 
HETATM    2  C6  UNL     1      24.223  -0.748  53.756  1.00  0.00     0.154 A 
HETATM    3  N3  UNL     1      22.906  -0.690  53.454  1.00  0.00    -0.184 NA
HETATM    4  N4  UNL     1      22.612   0.493  52.943  1.00  0.00    -0.279 N 
HETATM    5  C13 UNL     1      23.740   1.220  52.907  1.00  0.00     0.127 A 
ENDROOT
BRANCH   1   6
HETATM    6  C4  UNL     1      26.174   0.857  53.561  1.00  0.00     0.085 A 
HETATM    7  N2  UNL     1      27.188  -0.131  53.495  1.00  0.00    -0.249 NA
HETATM    8  C3  UNL     1      28.458   0.134  53.620  1.00  0.00     0.054 A 
HETATM    9  C15 UNL     1      28.974   1.509  53.838  1.00  0.00     0.178 A 
HETATM   10  N6  UNL     1      27.838   2.406  53.892  1.00  0.00    -0.391 N 
HETATM   11  C14 UNL     1      26.451   2.134  53.756  1.00  0.00     0.116 A 
HETATM   12  H20 UNL     1      28.201   3.373  54.059  1.00  0.00     0.159 HD
BRANCH   8  13
HETATM   13  C2  UNL     1      29.360  -0.988  53.529  1.00  0.00     0.045 C 
HETATM   14  C1  UNL     1      28.972  -2.212  53.244  1.00  0.00     0.082 C 
BRANCH  14  15
HETATM   15  N1  UNL     1      27.624  -2.545  52.996  1.00  0.00    -0.408 N 
HETATM   16  H1  UNL     1      26.934  -2.006  52.416  1.00  0.00     0.155 HD
HETATM   17  H2  UNL     1      26.638  -2.819  52.834  1.00  0.00     0.155 HD
ENDBRANCH  14  15
ENDBRANCH   8  13
ENDBRANCH   1   6
BRANCH   4  18
HETATM   18  C7  UNL     1      21.259   0.827  52.529  1.00  0.00     0.180 C 
BRANCH  18  19
HETATM   19  C8  UNL     1      20.949   0.312  51.155  1.00  0.00     0.294 C 
BRANCH  19  20
HETATM   20  N5  UNL     1      20.494   1.342  50.235  1.00  0.00     0.094 N 
HETATM   21  C9  UNL     1      21.327   1.326  49.049  1.00  0.00     0.298 C 
HETATM   22  C10 UNL     1      22.543   2.166  49.339  1.00  0.00     0.198 C 
HETATM   23  O1  UNL     1      22.260   3.510  49.498  1.00  0.00    -0.388 OA
HETATM   24  C11 UNL     1      20.999   3.737  50.033  1.00  0.00     0.198 C 
HETATM   25  C12 UNL     1      20.535   2.607  50.918  1.00  0.00     0.298 C 
ENDBRANCH  19  20
ENDBRANCH  18  19
ENDBRANCH   4  18
TORSDOF 6
ENDMDL
