MODEL 1
REMARK VINA RESULT:      -7.8      0.000      0.000
REMARK  2 active torsions:
REMARK  status: ('A' for Active; 'I' for Inactive)
REMARK    1  A    between atoms: C12_15  and  C13_16 
REMARK    2  A    between atoms: C13_16  and  C14_17 
ROOT
HETATM    1  C1  UNL     1      23.836   0.630  52.770  1.00  0.00     0.043 A 
HETATM    2  C2  UNL     1      23.692   1.897  52.494  1.00  0.00    -0.052 A 
HETATM    3  C3  UNL     1      22.476   2.683  52.348  1.00  0.00     0.007 C 
HETATM    4  C4  UNL     1      22.145   3.927  52.090  1.00  0.00     0.002 C 
HETATM    5  C5  UNL     1      22.461   5.311  51.794  1.00  0.00     0.017 C 
HETATM    6  C6  UNL     1      23.510   6.072  51.624  1.00  0.00     0.083 C 
HETATM    7  N1  UNL     1      24.758   6.704  51.479  1.00  0.00    -0.393 N 
HETATM    8  C7  UNL     1      25.423   7.251  50.302  1.00  0.00     0.174 C 
HETATM    9  C8  UNL     1      25.897   6.267  49.338  1.00  0.00     0.036 C 
HETATM   10  N2  UNL     1      27.003   6.384  48.635  1.00  0.00    -0.249 NA
HETATM   11  C9  UNL     1      27.825   5.185  48.533  1.00  0.00     0.232 C 
HETATM   12  N3  UNL     1      27.430   4.069  49.137  1.00  0.00    -0.250 NA
HETATM   13  C10 UNL     1      26.139   3.968  49.696  1.00  0.00     0.029 C 
HETATM   14  C11 UNL     1      26.378   3.017  50.571  1.00  0.00     0.081 C 
HETATM   15  C12 UNL     1      25.861   2.201  51.581  1.00  0.00    -0.044 C 
HETATM   16  O1  UNL     1      25.036   1.547  52.542  1.00  0.00     0.000 OA
HETATM   17  C16 UNL     1      25.215   4.979  49.030  1.00  0.00     0.112 C 
HETATM   18  H7  UNL     1      25.325   6.794  52.383  1.00  0.00     0.159 HD
ENDROOT
BRANCH  15  19
HETATM   19  C13 UNL     1      26.938   1.440  51.960  1.00  0.00    -0.019 C 
BRANCH  19  20
HETATM   20  C14 UNL     1      27.880   1.129  53.050  1.00  0.00     0.023 C 
HETATM   21  C15 UNL     1      28.517   2.379  53.599  1.00  0.00     0.009 C 
ENDBRANCH  19  20
ENDBRANCH  15  19
TORSDOF 2
ENDMDL
MODEL 2
REMARK VINA RESULT:      -7.5      3.011      5.575
REMARK  2 active torsions:
REMARK  status: ('A' for Active; 'I' for Inactive)
REMARK    1  A    between atoms: C12_15  and  C13_16 
REMARK    2  A    between atoms: C13_16  and  C14_17 
ROOT
HETATM    1  C1  UNL     1      19.943  -0.095  52.699  1.00  0.00     0.043 A 
HETATM    2  C2  UNL     1      21.176  -0.283  53.081  1.00  0.00    -0.052 A 
HETATM    3  C3  UNL     1      21.697  -0.657  54.388  1.00  0.00     0.007 C 
HETATM    4  C4  UNL     1      22.863  -0.894  54.941  1.00  0.00     0.002 C 
HETATM    5  C5  UNL     1      24.309  -1.006  54.905  1.00  0.00     0.017 C 
HETATM    6  C6  UNL     1      25.290  -0.879  54.052  1.00  0.00     0.083 C 
HETATM    7  N1  UNL     1      26.186  -0.691  52.984  1.00  0.00    -0.393 N 
HETATM    8  C7  UNL     1      27.172   0.355  52.734  1.00  0.00     0.174 C 
HETATM    9  C8  UNL     1      26.624   1.663  52.402  1.00  0.00     0.036 C 
HETATM   10  N2  UNL     1      27.166   2.503  51.546  1.00  0.00    -0.249 NA
HETATM   11  C9  UNL     1      26.247   3.159  50.626  1.00  0.00     0.232 C 
HETATM   12  N3  UNL     1      24.949   2.884  50.692  1.00  0.00    -0.250 NA
HETATM   13  C10 UNL     1      24.423   2.132  51.763  1.00  0.00     0.029 C 
HETATM   14  C11 UNL     1      23.337   1.685  51.175  1.00  0.00     0.081 C 
HETATM   15  C12 UNL     1      22.178   0.912  51.292  1.00  0.00    -0.044 C 
HETATM   16  O1  UNL     1      21.120   0.066  51.737  1.00  0.00     0.000 OA
HETATM   17  C16 UNL     1      25.362   2.224  52.959  1.00  0.00     0.112 C 
HETATM   18  H7  UNL     1      26.134  -1.436  52.217  1.00  0.00     0.159 HD
ENDROOT
BRANCH  15  19
HETATM   19  C13 UNL     1      21.586   1.034  50.060  1.00  0.00    -0.019 C 
BRANCH  19  20
HETATM   20  C14 UNL     1      21.245   1.961  48.965  1.00  0.00     0.023 C 
HETATM   21  C15 UNL     1      22.243   1.875  47.841  1.00  0.00     0.009 C 
ENDBRANCH  19  20
ENDBRANCH  15  19
TORSDOF 2
ENDMDL
MODEL 3
REMARK VINA RESULT:      -7.4      1.313      1.541
REMARK  2 active torsions:
REMARK  status: ('A' for Active; 'I' for Inactive)
REMARK    1  A    between atoms: C12_15  and  C13_16 
REMARK    2  A    between atoms: C13_16  and  C14_17 
ROOT
HETATM    1  C1  UNL     1      22.916  -0.159  52.957  1.00  0.00     0.043 A 
HETATM    2  C2  UNL     1      22.819   1.114  52.687  1.00  0.00    -0.052 A 
HETATM    3  C3  UNL     1      21.633   1.930  52.472  1.00  0.00     0.007 C 
HETATM    4  C4  UNL     1      21.348   3.184  52.208  1.00  0.00     0.002 C 
HETATM    5  C5  UNL     1      21.713   4.563  51.948  1.00  0.00     0.017 C 
HETATM    6  C6  UNL     1      22.788   5.300  51.853  1.00  0.00     0.083 C 
HETATM    7  N1  UNL     1      24.057   5.904  51.794  1.00  0.00    -0.393 N 
HETATM    8  C7  UNL     1      24.807   6.447  50.667  1.00  0.00     0.174 C 
HETATM    9  C8  UNL     1      25.319   5.461  49.725  1.00  0.00     0.036 C 
HETATM   10  N2  UNL     1      26.470   5.559  49.095  1.00  0.00    -0.249 NA
HETATM   11  C9  UNL     1      27.269   4.342  49.032  1.00  0.00     0.232 C 
HETATM   12  N3  UNL     1      26.811   3.230  49.597  1.00  0.00    -0.250 NA
HETATM   13  C10 UNL     1      25.485   3.153  50.072  1.00  0.00     0.029 C 
HETATM   14  C11 UNL     1      25.647   2.189  50.950  1.00  0.00     0.081 C 
HETATM   15  C12 UNL     1      25.048   1.376  51.916  1.00  0.00    -0.044 C 
HETATM   16  O1  UNL     1      24.149   0.732  52.816  1.00  0.00     0.000 OA
HETATM   17  C16 UNL     1      24.629   4.192  49.361  1.00  0.00     0.112 C 
HETATM   18  H7  UNL     1      24.567   5.972  52.734  1.00  0.00     0.159 HD
ENDROOT
BRANCH  15  19
HETATM   19  C13 UNL     1      26.081   0.586  52.354  1.00  0.00    -0.019 C 
BRANCH  19  20
HETATM   20  C14 UNL     1      26.501  -0.423  53.343  1.00  0.00     0.023 C 
HETATM   21  C15 UNL     1      26.958  -1.692  52.673  1.00  0.00     0.009 C 
ENDBRANCH  19  20
ENDBRANCH  15  19
TORSDOF 2
ENDMDL
MODEL 4
REMARK VINA RESULT:      -7.2      3.700      7.190
REMARK  2 active torsions:
REMARK  status: ('A' for Active; 'I' for Inactive)
REMARK    1  A    between atoms: C12_15  and  C13_16 
REMARK    2  A    between atoms: C13_16  and  C14_17 
ROOT
HETATM    1  C1  UNL     1      25.941   3.348  50.673  1.00  0.00     0.043 A 
HETATM    2  C2  UNL     1      25.931   2.309  51.462  1.00  0.00    -0.052 A 
HETATM    3  C3  UNL     1      26.750   1.107  51.425  1.00  0.00     0.007 C 
HETATM    4  C4  UNL     1      26.886  -0.002  52.115  1.00  0.00     0.002 C 
HETATM    5  C5  UNL     1      26.539  -0.894  53.204  1.00  0.00     0.017 C 
HETATM    6  C6  UNL     1      25.714  -0.945  54.217  1.00  0.00     0.083 C 
HETATM    7  N1  UNL     1      24.756  -0.798  55.236  1.00  0.00    -0.393 N 
HETATM    8  C7  UNL     1      23.496  -1.494  55.473  1.00  0.00     0.174 C 
HETATM    9  C8  UNL     1      22.427  -1.188  54.532  1.00  0.00     0.036 C 
HETATM   10  N2  UNL     1      21.153  -1.110  54.850  1.00  0.00    -0.249 NA
HETATM   11  C9  UNL     1      20.419   0.010  54.276  1.00  0.00     0.232 C 
HETATM   12  N3  UNL     1      21.052   0.870  53.487  1.00  0.00    -0.250 NA
HETATM   13  C10 UNL     1      22.360   0.605  53.031  1.00  0.00     0.029 C 
HETATM   14  C11 UNL     1      22.737   1.840  52.786  1.00  0.00     0.081 C 
HETATM   15  C12 UNL     1      23.759   2.684  52.342  1.00  0.00    -0.044 C 
HETATM   16  O1  UNL     1      24.977   3.241  51.854  1.00  0.00     0.000 OA
HETATM   17  C16 UNL     1      22.624  -0.894  53.086  1.00  0.00     0.112 C 
HETATM   18  H7  UNL     1      24.982  -0.042  55.960  1.00  0.00     0.159 HD
ENDROOT
BRANCH  15  19
HETATM   19  C13 UNL     1      23.202   3.935  52.431  1.00  0.00    -0.019 C 
BRANCH  19  20
HETATM   20  C14 UNL     1      22.940   5.200  51.720  1.00  0.00     0.023 C 
HETATM   21  C15 UNL     1      21.522   5.264  51.217  1.00  0.00     0.009 C 
ENDBRANCH  19  20
ENDBRANCH  15  19
TORSDOF 2
ENDMDL
MODEL 5
REMARK VINA RESULT:      -7.2      2.550      5.216
REMARK  2 active torsions:
REMARK  status: ('A' for Active; 'I' for Inactive)
REMARK    1  A    between atoms: C12_15  and  C13_16 
REMARK    2  A    between atoms: C13_16  and  C14_17 
ROOT
HETATM    1  C1  UNL     1      26.110  -0.348  53.561  1.00  0.00     0.043 A 
HETATM    2  C2  UNL     1      25.885   0.536  52.629  1.00  0.00    -0.052 A 
HETATM    3  C3  UNL     1      26.788   1.513  52.039  1.00  0.00     0.007 C 
HETATM    4  C4  UNL     1      26.746   2.446  51.116  1.00  0.00     0.002 C 
HETATM    5  C5  UNL     1      26.068   3.220  50.094  1.00  0.00     0.017 C 
HETATM    6  C6  UNL     1      24.890   3.304  49.535  1.00  0.00     0.083 C 
HETATM    7  N1  UNL     1      23.564   3.227  49.072  1.00  0.00    -0.393 N 
HETATM    8  C7  UNL     1      22.442   4.146  49.225  1.00  0.00     0.174 C 
HETATM    9  C8  UNL     1      21.885   4.235  50.568  1.00  0.00     0.036 C 
HETATM   10  N2  UNL     1      20.608   4.400  50.837  1.00  0.00    -0.249 NA
HETATM   11  C9  UNL     1      20.068   3.575  51.909  1.00  0.00     0.232 C 
HETATM   12  N3  UNL     1      20.867   2.722  52.542  1.00  0.00    -0.250 NA
HETATM   13  C10 UNL     1      22.262   2.749  52.336  1.00  0.00     0.029 C 
HETATM   14  C11 UNL     1      22.536   1.512  52.684  1.00  0.00     0.081 C 
HETATM   15  C12 UNL     1      23.523   0.535  52.847  1.00  0.00    -0.044 C 
HETATM   16  O1  UNL     1      24.741  -0.204  52.899  1.00  0.00     0.000 OA
HETATM   17  C16 UNL     1      22.675   4.123  51.826  1.00  0.00     0.112 C 
HETATM   18  H7  UNL     1      23.331   2.339  48.520  1.00  0.00     0.159 HD
ENDROOT
BRANCH  15  19
HETATM   19  C13 UNL     1      22.820  -0.556  53.294  1.00  0.00    -0.019 C 
BRANCH  19  20
HETATM   20  C14 UNL     1      22.239  -1.225  54.473  1.00  0.00     0.023 C 
HETATM   21  C15 UNL     1      20.797  -1.591  54.240  1.00  0.00     0.009 C 
ENDBRANCH  19  20
ENDBRANCH  15  19
TORSDOF 2
ENDMDL
MODEL 6
REMARK VINA RESULT:      -7.1      3.748      5.998
REMARK  2 active torsions:
REMARK  status: ('A' for Active; 'I' for Inactive)
REMARK    1  A    between atoms: C12_15  and  C13_16 
REMARK    2  A    between atoms: C13_16  and  C14_17 
ROOT
HETATM    1  C1  UNL     1      27.145   2.283  51.777  1.00  0.00     0.043 A 
HETATM    2  C2  UNL     1      25.919   2.265  51.332  1.00  0.00    -0.052 A 
HETATM    3  C3  UNL     1      25.160   3.308  50.658  1.00  0.00     0.007 C 
HETATM    4  C4  UNL     1      23.962   3.466  50.146  1.00  0.00     0.002 C 
HETATM    5  C5  UNL     1      22.629   2.999  49.814  1.00  0.00     0.017 C 
HETATM    6  C6  UNL     1      21.902   1.920  49.931  1.00  0.00     0.083 C 
HETATM    7  N1  UNL     1      21.298   0.669  50.158  1.00  0.00    -0.393 N 
HETATM    8  C7  UNL     1      20.223   0.275  51.062  1.00  0.00     0.174 C 
HETATM    9  C8  UNL     1      20.564   0.280  52.478  1.00  0.00     0.036 C 
HETATM   10  N2  UNL     1      20.109  -0.586  53.358  1.00  0.00    -0.249 NA
HETATM   11  C9  UNL     1      21.086  -1.112  54.302  1.00  0.00     0.232 C 
HETATM   12  N3  UNL     1      22.349  -0.707  54.228  1.00  0.00    -0.250 NA
HETATM   13  C10 UNL     1      22.715   0.371  53.394  1.00  0.00     0.029 C 
HETATM   14  C11 UNL     1      23.985   0.072  53.234  1.00  0.00     0.081 C 
HETATM   15  C12 UNL     1      25.203   0.424  52.646  1.00  0.00    -0.044 C 
HETATM   16  O1  UNL     1      26.255   1.049  51.915  1.00  0.00     0.000 OA
HETATM   17  C16 UNL     1      21.497   1.244  53.126  1.00  0.00     0.112 C 
HETATM   18  H7  UNL     1      21.699  -0.136  49.576  1.00  0.00     0.159 HD
ENDROOT
BRANCH  15  19
HETATM   19  C13 UNL     1      26.060  -0.558  53.074  1.00  0.00    -0.019 C 
BRANCH  19  20
HETATM   20  C14 UNL     1      27.148  -1.474  52.684  1.00  0.00     0.023 C 
HETATM   21  C15 UNL     1      28.449  -1.092  53.340  1.00  0.00     0.009 C 
ENDBRANCH  19  20
ENDBRANCH  15  19
TORSDOF 2
ENDMDL
MODEL 7
REMARK VINA RESULT:      -6.9      3.864      6.650
REMARK  2 active torsions:
REMARK  status: ('A' for Active; 'I' for Inactive)
REMARK    1  A    between atoms: C12_15  and  C13_16 
REMARK    2  A    between atoms: C13_16  and  C14_17 
ROOT
HETATM    1  C1  UNL     1      22.155  -1.548  54.780  1.00  0.00     0.043 A 
HETATM    2  C2  UNL     1      22.597  -0.699  53.894  1.00  0.00    -0.052 A 
HETATM    3  C3  UNL     1      23.916  -0.099  53.759  1.00  0.00     0.007 C 
HETATM    4  C4  UNL     1      24.529   0.738  52.955  1.00  0.00     0.002 C 
HETATM    5  C5  UNL     1      24.577   1.622  51.806  1.00  0.00     0.017 C 
HETATM    6  C6  UNL     1      23.794   2.041  50.847  1.00  0.00     0.083 C 
HETATM    7  N1  UNL     1      22.796   2.361  49.909  1.00  0.00    -0.393 N 
HETATM    8  C7  UNL     1      22.055   3.597  49.683  1.00  0.00     0.174 C 
HETATM    9  C8  UNL     1      21.087   3.943  50.715  1.00  0.00     0.036 C 
HETATM   10  N2  UNL     1      19.929   4.523  50.487  1.00  0.00    -0.249 NA
HETATM   11  C9  UNL     1      18.789   3.982  51.215  1.00  0.00     0.232 C 
HETATM   12  N3  UNL     1      18.969   2.960  52.045  1.00  0.00    -0.250 NA
HETATM   13  C10 UNL     1      20.267   2.529  52.389  1.00  0.00     0.029 C 
HETATM   14  C11 UNL     1      19.979   1.294  52.732  1.00  0.00     0.081 C 
HETATM   15  C12 UNL     1      20.462   0.066  53.194  1.00  0.00    -0.044 C 
HETATM   16  O1  UNL     1      21.265  -1.017  53.657  1.00  0.00     0.000 OA
HETATM   17  C16 UNL     1      21.256   3.666  52.169  1.00  0.00     0.112 C 
HETATM   18  H7  UNL     1      22.523   1.560  49.251  1.00  0.00     0.159 HD
ENDROOT
BRANCH  15  19
HETATM   19  C13 UNL     1      19.336  -0.714  53.265  1.00  0.00    -0.019 C 
BRANCH  19  20
HETATM   20  C14 UNL     1      17.942  -0.876  52.813  1.00  0.00     0.023 C 
HETATM   21  C15 UNL     1      17.374  -2.202  53.246  1.00  0.00     0.009 C 
ENDBRANCH  19  20
ENDBRANCH  15  19
TORSDOF 2
ENDMDL
MODEL 8
REMARK VINA RESULT:      -6.7      4.114      6.489
REMARK  2 active torsions:
REMARK  status: ('A' for Active; 'I' for Inactive)
REMARK    1  A    between atoms: C12_15  and  C13_16 
REMARK    2  A    between atoms: C13_16  and  C14_17 
ROOT
HETATM    1  C1  UNL     1      24.029   4.568  51.340  1.00  0.00     0.043 A 
HETATM    2  C2  UNL     1      22.857   3.998  51.404  1.00  0.00    -0.052 A 
HETATM    3  C3  UNL     1      21.536   4.600  51.505  1.00  0.00     0.007 C 
HETATM    4  C4  UNL     1      20.286   4.203  51.570  1.00  0.00     0.002 C 
HETATM    5  C5  UNL     1      19.257   3.182  51.600  1.00  0.00     0.017 C 
HETATM    6  C6  UNL     1      19.154   1.880  51.558  1.00  0.00     0.083 C 
HETATM    7  N1  UNL     1      19.268   0.479  51.498  1.00  0.00    -0.393 N 
HETATM    8  C7  UNL     1      19.034  -0.544  52.511  1.00  0.00     0.174 C 
HETATM    9  C8  UNL     1      20.010  -0.590  53.591  1.00  0.00     0.036 C 
HETATM   10  N2  UNL     1      20.424  -1.692  54.178  1.00  0.00    -0.249 NA
HETATM   11  C9  UNL     1      21.856  -1.788  54.422  1.00  0.00     0.232 C 
HETATM   12  N3  UNL     1      22.651  -0.790  54.050  1.00  0.00    -0.250 NA
HETATM   13  C10 UNL     1      22.112   0.439  53.615  1.00  0.00     0.029 C 
HETATM   14  C11 UNL     1      23.132   0.858  52.900  1.00  0.00     0.081 C 
HETATM   15  C12 UNL     1      23.652   1.869  52.087  1.00  0.00    -0.044 C 
HETATM   16  O1  UNL     1      23.868   3.049  51.316  1.00  0.00     0.000 OA
HETATM   17  C16 UNL     1      20.701   0.599  54.165  1.00  0.00     0.112 C 
HETATM   18  H7  UNL     1      19.588   0.093  50.552  1.00  0.00     0.159 HD
ENDROOT
BRANCH  15  19
HETATM   19  C13 UNL     1      24.903   1.407  51.764  1.00  0.00    -0.019 C 
BRANCH  19  20
HETATM   20  C14 UNL     1      26.001   0.504  52.156  1.00  0.00     0.023 C 
HETATM   21  C15 UNL     1      27.244   1.275  52.516  1.00  0.00     0.009 C 
ENDBRANCH  19  20
ENDBRANCH  15  19
TORSDOF 2
ENDMDL
MODEL 9
REMARK VINA RESULT:      -6.6      2.513      5.088
REMARK  2 active torsions:
REMARK  status: ('A' for Active; 'I' for Inactive)
REMARK    1  A    between atoms: C12_15  and  C13_16 
REMARK    2  A    between atoms: C13_16  and  C14_17 
ROOT
HETATM    1  C1  UNL     1      23.961   6.776  49.677  1.00  0.00     0.043 A 
HETATM    2  C2  UNL     1      23.395   5.757  50.263  1.00  0.00    -0.052 A 
HETATM    3  C3  UNL     1      22.235   5.718  51.142  1.00  0.00     0.007 C 
HETATM    4  C4  UNL     1      21.538   4.818  51.796  1.00  0.00     0.002 C 
HETATM    5  C5  UNL     1      21.251   3.456  52.206  1.00  0.00     0.017 C 
HETATM    6  C6  UNL     1      21.715   2.249  52.021  1.00  0.00     0.083 C 
HETATM    7  N1  UNL     1      22.368   1.047  51.691  1.00  0.00    -0.393 N 
HETATM    8  C7  UNL     1      23.187   0.150  52.499  1.00  0.00     0.174 C 
HETATM    9  C8  UNL     1      24.497   0.668  52.873  1.00  0.00     0.036 C 
HETATM   10  N2  UNL     1      25.587  -0.061  52.970  1.00  0.00    -0.249 NA
HETATM   11  C9  UNL     1      26.796   0.517  52.399  1.00  0.00     0.232 C 
HETATM   12  N3  UNL     1      26.739   1.714  51.824  1.00  0.00    -0.250 NA
HETATM   13  C10 UNL     1      25.585   2.517  51.941  1.00  0.00     0.029 C 
HETATM   14  C11 UNL     1      25.754   3.260  50.870  1.00  0.00     0.081 C 
HETATM   15  C12 UNL     1      25.255   4.296  50.076  1.00  0.00    -0.044 C 
HETATM   16  O1  UNL     1      24.486   5.352  49.504  1.00  0.00     0.000 OA
HETATM   17  C16 UNL     1      24.794   2.096  53.172  1.00  0.00     0.112 C 
HETATM   18  H7  UNL     1      22.254   0.738  50.672  1.00  0.00     0.159 HD
ENDROOT
BRANCH  15  19
HETATM   19  C13 UNL     1      26.183   4.404  49.071  1.00  0.00    -0.019 C 
BRANCH  19  20
HETATM   20  C14 UNL     1      27.571   4.771  48.736  1.00  0.00     0.023 C 
HETATM   21  C15 UNL     1      27.660   6.192  48.244  1.00  0.00     0.009 C 
ENDBRANCH  19  20
ENDBRANCH  15  19
TORSDOF 2
ENDMDL
