MODEL 1
REMARK VINA RESULT:      -8.2      0.000      0.000
REMARK  8 active torsions:
REMARK  status: ('A' for Active; 'I' for Inactive)
REMARK    1  A    between atoms: O1_2  and  C2_3 
REMARK    2  A    between atoms: C6_9  and  N3_10 
REMARK    3  A    between atoms: N3_10  and  C7_11 
REMARK    4  A    between atoms: C15_21  and  O2_22 
REMARK    5  A    between atoms: O2_22  and  C16_23 
REMARK    6  A    between atoms: C16_23  and  C17_24 
REMARK    7  A    between atoms: C17_24  and  C18_25 
REMARK    8  A    between atoms: C18_25  and  N4_26 
ROOT
HETATM    1  C2  UNL     1      20.025  -0.014  52.549  1.00  0.00     0.103 A 
HETATM    2  C3  UNL     1      20.327  -0.673  53.743  1.00  0.00     0.072 A 
HETATM    3  C4  UNL     1      21.643  -0.795  54.110  1.00  0.00     0.075 A 
HETATM    4  N1  UNL     1      21.885  -1.431  55.259  1.00  0.00    -0.241 NA
HETATM    5  C5  UNL     1      23.147  -1.590  55.687  1.00  0.00     0.236 A 
HETATM    6  N2  UNL     1      24.126  -1.096  54.930  1.00  0.00    -0.224 NA
HETATM    7  C6  UNL     1      23.982  -0.456  53.787  1.00  0.00     0.142 A 
HETATM    8  C13 UNL     1      22.686  -0.299  53.361  1.00  0.00     0.042 A 
HETATM    9  C14 UNL     1      22.320   0.333  52.204  1.00  0.00     0.057 A 
HETATM   10  C15 UNL     1      21.040   0.513  51.740  1.00  0.00     0.103 A 
ENDROOT
BRANCH   7  11
HETATM   11  N3  UNL     1      25.034   0.057  53.007  1.00  0.00    -0.340 N 
HETATM   12  H6  UNL     1      24.860   0.634  52.162  1.00  0.00     0.167 HD
BRANCH  11  13
HETATM   13  C7  UNL     1      26.435  -0.075  53.167  1.00  0.00     0.035 A 
HETATM   14  C8  UNL     1      27.190  -1.213  52.888  1.00  0.00     0.032 A 
HETATM   15  C9  UNL     1      28.532  -1.308  53.052  1.00  0.00     0.046 A 
HETATM   16  C10 UNL     1      29.257  -0.239  53.524  1.00  0.00     0.138 A 
HETATM   17  F1  UNL     1      30.587  -0.439  53.651  1.00  0.00    -0.204 F 
HETATM   18  C11 UNL     1      28.565   0.918  53.819  1.00  0.00     0.074 A 
HETATM   19 CL1  UNL     1      29.541   2.242  54.414  1.00  0.00    -0.081 Cl
HETATM   20  C12 UNL     1      27.211   0.960  53.635  1.00  0.00     0.056 A 
ENDBRANCH  11  13
ENDBRANCH   7  11
BRANCH  10  21
HETATM   21  O2  UNL     1      20.537   1.112  50.631  1.00  0.00    -0.348 OA
BRANCH  21  22
HETATM   22  C16 UNL     1      19.925   2.317  50.405  1.00  0.00     0.177 C 
BRANCH  22  23
HETATM   23  C17 UNL     1      20.483   3.458  51.212  1.00  0.00     0.057 C 
BRANCH  23  24
HETATM   24  C18 UNL     1      21.413   4.253  50.316  1.00  0.00     0.274 C 
BRANCH  24  25
HETATM   25  N4  UNL     1      22.628   4.667  50.986  1.00  0.00     0.092 N 
HETATM   26  C19 UNL     1      23.728   4.297  50.115  1.00  0.00     0.298 C 
HETATM   27  C20 UNL     1      24.108   2.880  50.425  1.00  0.00     0.198 C 
HETATM   28  O3  UNL     1      24.721   2.793  51.669  1.00  0.00    -0.388 OA
HETATM   29  C21 UNL     1      24.114   3.601  52.621  1.00  0.00     0.198 C 
HETATM   30  C22 UNL     1      22.691   3.957  52.251  1.00  0.00     0.298 C 
ENDBRANCH  24  25
ENDBRANCH  23  24
ENDBRANCH  22  23
ENDBRANCH  21  22
ENDBRANCH  10  21
BRANCH   1  31
HETATM   31  O1  UNL     1      18.670   0.074  52.237  1.00  0.00    -0.353 OA
HETATM   32  C1  UNL     1      17.744  -0.908  52.655  1.00  0.00     0.210 C 
ENDBRANCH   1  31
TORSDOF 8
ENDMDL
MODEL 2
REMARK VINA RESULT:      -7.8      2.091      2.692
REMARK  8 active torsions:
REMARK  status: ('A' for Active; 'I' for Inactive)
REMARK    1  A    between atoms: O1_2  and  C2_3 
REMARK    2  A    between atoms: C6_9  and  N3_10 
REMARK    3  A    between atoms: N3_10  and  C7_11 
REMARK    4  A    between atoms: C15_21  and  O2_22 
REMARK    5  A    between atoms: O2_22  and  C16_23 
REMARK    6  A    between atoms: C16_23  and  C17_24 
REMARK    7  A    between atoms: C17_24  and  C18_25 
REMARK    8  A    between atoms: C18_25  and  N4_26 
ROOT
HETATM    1  C2  UNL     1      20.565   2.555  52.419  1.00  0.00     0.103 A 
HETATM    2  C3  UNL     1      20.486   1.515  53.349  1.00  0.00     0.072 A 
HETATM    3  C4  UNL     1      21.599   0.744  53.567  1.00  0.00     0.075 A 
HETATM    4  N1  UNL     1      21.478  -0.238  54.464  1.00  0.00    -0.241 NA
HETATM    5  C5  UNL     1      22.524  -1.034  54.733  1.00  0.00     0.236 A 
HETATM    6  N2  UNL     1      23.663  -0.807  54.079  1.00  0.00    -0.224 NA
HETATM    7  C6  UNL     1      23.873   0.134  53.181  1.00  0.00     0.142 A 
HETATM    8  C13 UNL     1      22.796   0.943  52.915  1.00  0.00     0.042 A 
HETATM    9  C14 UNL     1      22.803   1.976  52.019  1.00  0.00     0.057 A 
HETATM   10  C15 UNL     1      21.753   2.809  51.722  1.00  0.00     0.103 A 
ENDROOT
BRANCH   7  11
HETATM   11  N3  UNL     1      25.086   0.353  52.505  1.00  0.00    -0.340 N 
HETATM   12  H6  UNL     1      25.121   0.806  51.572  1.00  0.00     0.167 HD
BRANCH  11  13
HETATM   13  C7  UNL     1      26.413   0.042  52.890  1.00  0.00     0.035 A 
HETATM   14  C8  UNL     1      27.039  -1.195  52.756  1.00  0.00     0.032 A 
HETATM   15  C9  UNL     1      28.313  -1.462  53.135  1.00  0.00     0.046 A 
HETATM   16  C10 UNL     1      29.094  -0.482  53.700  1.00  0.00     0.138 A 
HETATM   17  F1  UNL     1      30.348  -0.852  54.043  1.00  0.00    -0.204 F 
HETATM   18  C11 UNL     1      28.530   0.767  53.861  1.00  0.00     0.074 A 
HETATM   19 CL1  UNL     1      29.573   1.972  54.584  1.00  0.00    -0.081 Cl
HETATM   20  C12 UNL     1      27.241   0.982  53.460  1.00  0.00     0.056 A 
ENDBRANCH  11  13
ENDBRANCH   7  11
BRANCH  10  21
HETATM   21  O2  UNL     1      21.619   3.858  50.872  1.00  0.00    -0.348 OA
BRANCH  21  22
HETATM   22  C16 UNL     1      21.811   5.209  51.002  1.00  0.00     0.177 C 
BRANCH  22  23
HETATM   23  C17 UNL     1      23.238   5.613  51.256  1.00  0.00     0.057 C 
BRANCH  23  24
HETATM   24  C18 UNL     1      24.106   4.945  50.208  1.00  0.00     0.274 C 
BRANCH  24  25
HETATM   25  N4  UNL     1      25.485   5.384  50.251  1.00  0.00     0.092 N 
HETATM   26  C19 UNL     1      25.475   6.810  49.981  1.00  0.00     0.298 C 
HETATM   27  C20 UNL     1      25.521   7.000  48.495  1.00  0.00     0.198 C 
HETATM   28  O3  UNL     1      26.766   6.649  47.989  1.00  0.00    -0.388 OA
HETATM   29  C21 UNL     1      27.281   5.506  48.585  1.00  0.00     0.198 C 
HETATM   30  C22 UNL     1      26.206   4.655  49.223  1.00  0.00     0.298 C 
ENDBRANCH  24  25
ENDBRANCH  23  24
ENDBRANCH  22  23
ENDBRANCH  21  22
ENDBRANCH  10  21
BRANCH   1  31
HETATM   31  O1  UNL     1      19.398   3.297  52.247  1.00  0.00    -0.353 OA
HETATM   32  C1  UNL     1      18.278   2.776  51.561  1.00  0.00     0.210 C 
ENDBRANCH   1  31
TORSDOF 8
ENDMDL
MODEL 3
REMARK VINA RESULT:      -7.7      6.026      9.078
REMARK  8 active torsions:
REMARK  status: ('A' for Active; 'I' for Inactive)
REMARK    1  A    between atoms: O1_2  and  C2_3 
REMARK    2  A    between atoms: C6_9  and  N3_10 
REMARK    3  A    between atoms: N3_10  and  C7_11 
REMARK    4  A    between atoms: C15_21  and  O2_22 
REMARK    5  A    between atoms: O2_22  and  C16_23 
REMARK    6  A    between atoms: C16_23  and  C17_24 
REMARK    7  A    between atoms: C17_24  and  C18_25 
REMARK    8  A    between atoms: C18_25  and  N4_26 
ROOT
HETATM    1  C2  UNL     1      25.905   6.467  49.175  1.00  0.00     0.103 A 
HETATM    2  C3  UNL     1      26.655   7.585  48.800  1.00  0.00     0.072 A 
HETATM    3  C4  UNL     1      27.931   7.394  48.336  1.00  0.00     0.075 A 
HETATM    4  N1  UNL     1      28.610   8.490  47.988  1.00  0.00    -0.241 NA
HETATM    5  C5  UNL     1      29.864   8.385  47.524  1.00  0.00     0.236 A 
HETATM    6  N2  UNL     1      30.390   7.164  47.428  1.00  0.00    -0.224 NA
HETATM    7  C6  UNL     1      29.798   6.031  47.745  1.00  0.00     0.142 A 
HETATM    8  C13 UNL     1      28.514   6.152  48.218  1.00  0.00     0.042 A 
HETATM    9  C14 UNL     1      27.726   5.102  48.604  1.00  0.00     0.057 A 
HETATM   10  C15 UNL     1      26.441   5.177  49.080  1.00  0.00     0.103 A 
ENDROOT
BRANCH   7  11
HETATM   11  N3  UNL     1      30.376   4.755  47.634  1.00  0.00    -0.340 N 
HETATM   12  H6  UNL     1      29.809   3.887  47.693  1.00  0.00     0.167 HD
BRANCH  11  13
HETATM   13  C7  UNL     1      31.728   4.381  47.434  1.00  0.00     0.035 A 
HETATM   14  C8  UNL     1      32.198   3.476  46.485  1.00  0.00     0.032 A 
HETATM   15  C9  UNL     1      33.501   3.138  46.319  1.00  0.00     0.046 A 
HETATM   16  C10 UNL     1      34.475   3.694  47.114  1.00  0.00     0.138 A 
HETATM   17  F1  UNL     1      35.740   3.290  46.866  1.00  0.00    -0.204 F 
HETATM   18  C11 UNL     1      34.071   4.599  48.073  1.00  0.00     0.074 A 
HETATM   19 CL1  UNL     1      35.355   5.274  49.053  1.00  0.00    -0.081 Cl
HETATM   20  C12 UNL     1      32.745   4.905  48.198  1.00  0.00     0.056 A 
ENDBRANCH  11  13
ENDBRANCH   7  11
BRANCH  10  21
HETATM   21  O2  UNL     1      25.554   4.235  49.491  1.00  0.00    -0.348 OA
BRANCH  21  22
HETATM   22  C16 UNL     1      25.409   3.516  50.649  1.00  0.00     0.177 C 
BRANCH  22  23
HETATM   23  C17 UNL     1      26.389   2.385  50.804  1.00  0.00     0.057 C 
BRANCH  23  24
HETATM   24  C18 UNL     1      26.599   2.148  52.286  1.00  0.00     0.274 C 
BRANCH  24  25
HETATM   25  N4  UNL     1      27.655   1.197  52.564  1.00  0.00     0.092 N 
HETATM   26  C19 UNL     1      27.008  -0.077  52.821  1.00  0.00     0.298 C 
HETATM   27  C20 UNL     1      26.654  -0.130  54.277  1.00  0.00     0.198 C 
HETATM   28  O3  UNL     1      27.795  -0.256  55.060  1.00  0.00    -0.388 OA
HETATM   29  C21 UNL     1      28.845   0.529  54.602  1.00  0.00     0.198 C 
HETATM   30  C22 UNL     1      28.373   1.672  53.733  1.00  0.00     0.298 C 
ENDBRANCH  24  25
ENDBRANCH  23  24
ENDBRANCH  22  23
ENDBRANCH  21  22
ENDBRANCH  10  21
BRANCH   1  31
HETATM   31  O1  UNL     1      24.618   6.734  49.637  1.00  0.00    -0.353 OA
HETATM   32  C1  UNL     1      24.384   7.260  50.928  1.00  0.00     0.210 C 
ENDBRANCH   1  31
TORSDOF 8
ENDMDL
MODEL 4
REMARK VINA RESULT:      -7.7      1.467      2.288
REMARK  8 active torsions:
REMARK  status: ('A' for Active; 'I' for Inactive)
REMARK    1  A    between atoms: O1_2  and  C2_3 
REMARK    2  A    between atoms: C6_9  and  N3_10 
REMARK    3  A    between atoms: N3_10  and  C7_11 
REMARK    4  A    between atoms: C15_21  and  O2_22 
REMARK    5  A    between atoms: O2_22  and  C16_23 
REMARK    6  A    between atoms: C16_23  and  C17_24 
REMARK    7  A    between atoms: C17_24  and  C18_25 
REMARK    8  A    between atoms: C18_25  and  N4_26 
ROOT
HETATM    1  C2  UNL     1      20.116  -0.070  52.050  1.00  0.00     0.103 A 
HETATM    2  C3  UNL     1      20.327  -0.606  53.323  1.00  0.00     0.072 A 
HETATM    3  C4  UNL     1      21.614  -0.711  53.784  1.00  0.00     0.075 A 
HETATM    4  N1  UNL     1      21.769  -1.229  55.006  1.00  0.00    -0.241 NA
HETATM    5  C5  UNL     1      22.998  -1.364  55.528  1.00  0.00     0.236 A 
HETATM    6  N2  UNL     1      24.033  -0.967  54.789  1.00  0.00    -0.224 NA
HETATM    7  C6  UNL     1      23.977  -0.448  53.579  1.00  0.00     0.142 A 
HETATM    8  C13 UNL     1      22.714  -0.314  53.057  1.00  0.00     0.042 A 
HETATM    9  C14 UNL     1      22.435   0.200  51.820  1.00  0.00     0.057 A 
HETATM   10  C15 UNL     1      21.192   0.353  51.259  1.00  0.00     0.103 A 
ENDROOT
BRANCH   7  11
HETATM   11  N3  UNL     1      25.086  -0.037  52.821  1.00  0.00    -0.340 N 
HETATM   12  H6  UNL     1      24.980   0.471  51.921  1.00  0.00     0.167 HD
BRANCH  11  13
HETATM   13  C7  UNL     1      26.471  -0.198  53.070  1.00  0.00     0.035 A 
HETATM   14  C8  UNL     1      27.216  -1.354  52.852  1.00  0.00     0.032 A 
HETATM   15  C9  UNL     1      28.544  -1.477  53.102  1.00  0.00     0.046 A 
HETATM   16  C10 UNL     1      29.260  -0.418  53.609  1.00  0.00     0.138 A 
HETATM   17  F1  UNL     1      30.575  -0.646  53.822  1.00  0.00    -0.204 F 
HETATM   18  C11 UNL     1      28.577   0.756  53.847  1.00  0.00     0.074 A 
HETATM   19 CL1  UNL     1      29.543   2.066  54.491  1.00  0.00    -0.081 Cl
HETATM   20  C12 UNL     1      27.239   0.825  53.577  1.00  0.00     0.056 A 
ENDBRANCH  11  13
ENDBRANCH   7  11
BRANCH  10  21
HETATM   21  O2  UNL     1      20.773   0.841  50.064  1.00  0.00    -0.348 OA
BRANCH  21  22
HETATM   22  C16 UNL     1      21.415   1.155  48.895  1.00  0.00     0.177 C 
BRANCH  22  23
HETATM   23  C17 UNL     1      21.220   2.577  48.442  1.00  0.00     0.057 C 
BRANCH  23  24
HETATM   24  C18 UNL     1      21.772   3.491  49.518  1.00  0.00     0.274 C 
BRANCH  24  25
HETATM   25  N4  UNL     1      20.903   4.611  49.810  1.00  0.00     0.092 N 
HETATM   26  C19 UNL     1      20.645   4.573  51.238  1.00  0.00     0.298 C 
HETATM   27  C20 UNL     1      19.469   3.674  51.472  1.00  0.00     0.198 C 
HETATM   28  O3  UNL     1      18.296   4.261  51.012  1.00  0.00    -0.388 OA
HETATM   29  C21 UNL     1      18.470   4.920  49.802  1.00  0.00     0.198 C 
HETATM   30  C22 UNL     1      19.683   4.427  49.046  1.00  0.00     0.298 C 
ENDBRANCH  24  25
ENDBRANCH  23  24
ENDBRANCH  22  23
ENDBRANCH  21  22
ENDBRANCH  10  21
BRANCH   1  31
HETATM   31  O1  UNL     1      18.785   0.008  51.644  1.00  0.00    -0.353 OA
HETATM   32  C1  UNL     1      17.752  -0.648  52.350  1.00  0.00     0.210 C 
ENDBRANCH   1  31
TORSDOF 8
ENDMDL
MODEL 5
REMARK VINA RESULT:      -7.6      4.064      6.881
REMARK  8 active torsions:
REMARK  status: ('A' for Active; 'I' for Inactive)
REMARK    1  A    between atoms: O1_2  and  C2_3 
REMARK    2  A    between atoms: C6_9  and  N3_10 
REMARK    3  A    between atoms: N3_10  and  C7_11 
REMARK    4  A    between atoms: C15_21  and  O2_22 
REMARK    5  A    between atoms: O2_22  and  C16_23 
REMARK    6  A    between atoms: C16_23  and  C17_24 
REMARK    7  A    between atoms: C17_24  and  C18_25 
REMARK    8  A    between atoms: C18_25  and  N4_26 
ROOT
HETATM    1  C2  UNL     1      26.139  -0.003  53.233  1.00  0.00     0.103 A 
HETATM    2  C3  UNL     1      25.320  -0.692  54.130  1.00  0.00     0.072 A 
HETATM    3  C4  UNL     1      23.965  -0.488  54.072  1.00  0.00     0.075 A 
HETATM    4  N1  UNL     1      23.221  -1.168  54.948  1.00  0.00    -0.241 NA
HETATM    5  C5  UNL     1      21.887  -1.022  54.952  1.00  0.00     0.236 A 
HETATM    6  N2  UNL     1      21.350  -0.186  54.064  1.00  0.00    -0.224 NA
HETATM    7  C6  UNL     1      22.003   0.524  53.166  1.00  0.00     0.142 A 
HETATM    8  C13 UNL     1      23.367   0.365  53.171  1.00  0.00     0.042 A 
HETATM    9  C14 UNL     1      24.227   1.008  52.323  1.00  0.00     0.057 A 
HETATM   10  C15 UNL     1      25.593   0.880  52.292  1.00  0.00     0.103 A 
ENDROOT
BRANCH   7  11
HETATM   11  N3  UNL     1      21.412   1.399  52.239  1.00  0.00    -0.340 N 
HETATM   12  H6  UNL     1      21.945   2.170  51.793  1.00  0.00     0.167 HD
BRANCH  11  13
HETATM   13  C7  UNL     1      20.087   1.440  51.740  1.00  0.00     0.035 A 
HETATM   14  C8  UNL     1      19.435   0.416  51.056  1.00  0.00     0.032 A 
HETATM   15  C9  UNL     1      18.164   0.486  50.590  1.00  0.00     0.046 A 
HETATM   16  C10 UNL     1      17.412   1.623  50.774  1.00  0.00     0.138 A 
HETATM   17  F1  UNL     1      16.159   1.588  50.270  1.00  0.00    -0.204 F 
HETATM   18  C11 UNL     1      18.003   2.673  51.445  1.00  0.00     0.074 A 
HETATM   19 CL1  UNL     1      16.998   4.091  51.649  1.00  0.00    -0.081 Cl
HETATM   20  C12 UNL     1      19.288   2.550  51.895  1.00  0.00     0.056 A 
ENDBRANCH  11  13
ENDBRANCH   7  11
BRANCH  10  21
HETATM   21  O2  UNL     1      26.555   1.444  51.518  1.00  0.00    -0.348 OA
BRANCH  21  22
HETATM   22  C16 UNL     1      26.813   2.730  51.120  1.00  0.00     0.177 C 
BRANCH  22  23
HETATM   23  C17 UNL     1      26.292   3.072  49.751  1.00  0.00     0.057 C 
BRANCH  23  24
HETATM   24  C18 UNL     1      25.978   4.555  49.727  1.00  0.00     0.274 C 
BRANCH  24  25
HETATM   25  N4  UNL     1      24.601   4.837  49.382  1.00  0.00     0.092 N 
HETATM   26  C19 UNL     1      24.052   5.621  50.474  1.00  0.00     0.298 C 
HETATM   27  C20 UNL     1      23.538   4.671  51.513  1.00  0.00     0.198 C 
HETATM   28  O3  UNL     1      22.397   4.017  51.065  1.00  0.00    -0.388 OA
HETATM   29  C21 UNL     1      22.485   3.646  49.730  1.00  0.00     0.198 C 
HETATM   30  C22 UNL     1      23.916   3.564  49.248  1.00  0.00     0.298 C 
ENDBRANCH  24  25
ENDBRANCH  23  24
ENDBRANCH  22  23
ENDBRANCH  21  22
ENDBRANCH  10  21
BRANCH   1  31
HETATM   31  O1  UNL     1      27.504  -0.258  53.348  1.00  0.00    -0.353 OA
HETATM   32  C1  UNL     1      28.260   0.211  54.446  1.00  0.00     0.210 C 
ENDBRANCH   1  31
TORSDOF 8
ENDMDL
MODEL 6
REMARK VINA RESULT:      -7.5      3.093      6.127
REMARK  8 active torsions:
REMARK  status: ('A' for Active; 'I' for Inactive)
REMARK    1  A    between atoms: O1_2  and  C2_3 
REMARK    2  A    between atoms: C6_9  and  N3_10 
REMARK    3  A    between atoms: N3_10  and  C7_11 
REMARK    4  A    between atoms: C15_21  and  O2_22 
REMARK    5  A    between atoms: O2_22  and  C16_23 
REMARK    6  A    between atoms: C16_23  and  C17_24 
REMARK    7  A    between atoms: C17_24  and  C18_25 
REMARK    8  A    between atoms: C18_25  and  N4_26 
ROOT
HETATM    1  C2  UNL     1      21.624   0.114  53.036  1.00  0.00     0.103 A 
HETATM    2  C3  UNL     1      20.445   0.641  52.503  1.00  0.00     0.072 A 
HETATM    3  C4  UNL     1      20.434   1.953  52.106  1.00  0.00     0.075 A 
HETATM    4  N1  UNL     1      19.286   2.415  51.603  1.00  0.00    -0.241 NA
HETATM    5  C5  UNL     1      19.197   3.689  51.192  1.00  0.00     0.236 A 
HETATM    6  N2  UNL     1      20.281   4.456  51.307  1.00  0.00    -0.224 NA
HETATM    7  C6  UNL     1      21.450   4.089  51.789  1.00  0.00     0.142 A 
HETATM    8  C13 UNL     1      21.529   2.782  52.206  1.00  0.00     0.042 A 
HETATM    9  C14 UNL     1      22.649   2.203  52.737  1.00  0.00     0.057 A 
HETATM   10  C15 UNL     1      22.773   0.904  53.164  1.00  0.00     0.103 A 
ENDROOT
BRANCH   7  11
HETATM   11  N3  UNL     1      22.579   4.919  51.899  1.00  0.00    -0.340 N 
HETATM   12  H6  UNL     1      22.751   5.504  52.740  1.00  0.00     0.167 HD
BRANCH  11  13
HETATM   13  C7  UNL     1      23.642   5.138  50.990  1.00  0.00     0.035 A 
HETATM   14  C8  UNL     1      24.065   4.259  49.994  1.00  0.00     0.032 A 
HETATM   15  C9  UNL     1      25.089   4.498  49.137  1.00  0.00     0.046 A 
HETATM   16  C10 UNL     1      25.800   5.673  49.207  1.00  0.00     0.138 A 
HETATM   17  F1  UNL     1      26.799   5.810  48.308  1.00  0.00    -0.204 F 
HETATM   18  C11 UNL     1      25.428   6.584  50.173  1.00  0.00     0.074 A 
HETATM   19 CL1  UNL     1      26.368   8.060  50.211  1.00  0.00    -0.081 Cl
HETATM   20  C12 UNL     1      24.388   6.294  51.011  1.00  0.00     0.056 A 
ENDBRANCH  11  13
ENDBRANCH   7  11
BRANCH  10  21
HETATM   21  O2  UNL     1      23.805   0.204  53.700  1.00  0.00    -0.348 OA
BRANCH  21  22
HETATM   22  C16 UNL     1      24.797  -0.575  53.164  1.00  0.00     0.177 C 
BRANCH  22  23
HETATM   23  C17 UNL     1      25.857   0.194  52.422  1.00  0.00     0.057 C 
BRANCH  23  24
HETATM   24  C18 UNL     1      27.148  -0.597  52.500  1.00  0.00     0.274 C 
BRANCH  24  25
HETATM   25  N4  UNL     1      28.320   0.244  52.631  1.00  0.00     0.092 N 
HETATM   26  C19 UNL     1      29.113  -0.317  53.709  1.00  0.00     0.298 C 
HETATM   27  C20 UNL     1      28.621   0.267  54.999  1.00  0.00     0.198 C 
HETATM   28  O3  UNL     1      28.962   1.610  55.097  1.00  0.00    -0.388 OA
HETATM   29  C21 UNL     1      28.811   2.288  53.894  1.00  0.00     0.198 C 
HETATM   30  C22 UNL     1      27.861   1.583  52.952  1.00  0.00     0.298 C 
ENDBRANCH  24  25
ENDBRANCH  23  24
ENDBRANCH  22  23
ENDBRANCH  21  22
ENDBRANCH  10  21
BRANCH   1  31
HETATM   31  O1  UNL     1      21.564  -1.225  53.418  1.00  0.00    -0.353 OA
HETATM   32  C1  UNL     1      21.394  -1.608  54.767  1.00  0.00     0.210 C 
ENDBRANCH   1  31
TORSDOF 8
ENDMDL
MODEL 7
REMARK VINA RESULT:      -7.5      3.854      6.696
REMARK  8 active torsions:
REMARK  status: ('A' for Active; 'I' for Inactive)
REMARK    1  A    between atoms: O1_2  and  C2_3 
REMARK    2  A    between atoms: C6_9  and  N3_10 
REMARK    3  A    between atoms: N3_10  and  C7_11 
REMARK    4  A    between atoms: C15_21  and  O2_22 
REMARK    5  A    between atoms: O2_22  and  C16_23 
REMARK    6  A    between atoms: C16_23  and  C17_24 
REMARK    7  A    between atoms: C17_24  and  C18_25 
REMARK    8  A    between atoms: C18_25  and  N4_26 
ROOT
HETATM    1  C2  UNL     1      27.223   0.950  53.293  1.00  0.00     0.103 A 
HETATM    2  C3  UNL     1      26.804   0.076  54.299  1.00  0.00     0.072 A 
HETATM    3  C4  UNL     1      25.476  -0.260  54.364  1.00  0.00     0.075 A 
HETATM    4  N1  UNL     1      25.120  -1.098  55.341  1.00  0.00    -0.241 NA
HETATM    5  C5  UNL     1      23.838  -1.474  55.470  1.00  0.00     0.236 A 
HETATM    6  N2  UNL     1      22.957  -0.984  54.600  1.00  0.00    -0.224 NA
HETATM    7  C6  UNL     1      23.215  -0.156  53.608  1.00  0.00     0.142 A 
HETATM    8  C13 UNL     1      24.530   0.221  53.486  1.00  0.00     0.042 A 
HETATM    9  C14 UNL     1      25.009   1.072  52.528  1.00  0.00     0.057 A 
HETATM   10  C15 UNL     1      26.312   1.475  52.369  1.00  0.00     0.103 A 
ENDROOT
BRANCH   7  11
HETATM   11  N3  UNL     1      22.265   0.347  52.703  1.00  0.00    -0.340 N 
HETATM   12  H6  UNL     1      22.509   1.059  51.988  1.00  0.00     0.167 HD
BRANCH  11  13
HETATM   13  C7  UNL     1      20.890   0.038  52.559  1.00  0.00     0.035 A 
HETATM   14  C8  UNL     1      20.106  -0.662  53.473  1.00  0.00     0.032 A 
HETATM   15  C9  UNL     1      18.790  -0.943  53.306  1.00  0.00     0.046 A 
HETATM   16  C10 UNL     1      18.126  -0.535  52.173  1.00  0.00     0.138 A 
HETATM   17  F1  UNL     1      16.818  -0.867  52.105  1.00  0.00    -0.204 F 
HETATM   18  C11 UNL     1      18.849   0.163  51.229  1.00  0.00     0.074 A 
HETATM   19 CL1  UNL     1      17.951   0.656  49.811  1.00  0.00    -0.081 Cl
HETATM   20  C12 UNL     1      20.174   0.420  51.448  1.00  0.00     0.056 A 
ENDBRANCH  11  13
ENDBRANCH   7  11
BRANCH  10  21
HETATM   21  O2  UNL     1      26.920   2.298  51.478  1.00  0.00    -0.348 OA
BRANCH  21  22
HETATM   22  C16 UNL     1      26.532   2.849  50.284  1.00  0.00     0.177 C 
BRANCH  22  23
HETATM   23  C17 UNL     1      25.458   3.896  50.404  1.00  0.00     0.057 C 
BRANCH  23  24
HETATM   24  C18 UNL     1      24.270   3.443  49.579  1.00  0.00     0.274 C 
BRANCH  24  25
HETATM   25  N4  UNL     1      23.068   3.265  50.367  1.00  0.00     0.092 N 
HETATM   26  C19 UNL     1      21.968   3.767  49.563  1.00  0.00     0.298 C 
HETATM   27  C20 UNL     1      21.845   5.240  49.814  1.00  0.00     0.198 C 
HETATM   28  O3  UNL     1      21.365   5.486  51.095  1.00  0.00    -0.388 OA
HETATM   29  C21 UNL     1      21.918   4.636  52.044  1.00  0.00     0.198 C 
HETATM   30  C22 UNL     1      23.228   4.036  51.586  1.00  0.00     0.298 C 
ENDBRANCH  24  25
ENDBRANCH  23  24
ENDBRANCH  22  23
ENDBRANCH  21  22
ENDBRANCH  10  21
BRANCH   1  31
HETATM   31  O1  UNL     1      28.584   1.247  53.285  1.00  0.00    -0.353 OA
HETATM   32  C1  UNL     1      29.566   0.254  53.500  1.00  0.00     0.210 C 
ENDBRANCH   1  31
TORSDOF 8
ENDMDL
MODEL 8
REMARK VINA RESULT:      -7.4      3.557      5.403
REMARK  8 active torsions:
REMARK  status: ('A' for Active; 'I' for Inactive)
REMARK    1  A    between atoms: O1_2  and  C2_3 
REMARK    2  A    between atoms: C6_9  and  N3_10 
REMARK    3  A    between atoms: N3_10  and  C7_11 
REMARK    4  A    between atoms: C15_21  and  O2_22 
REMARK    5  A    between atoms: O2_22  and  C16_23 
REMARK    6  A    between atoms: C16_23  and  C17_24 
REMARK    7  A    between atoms: C17_24  and  C18_25 
REMARK    8  A    between atoms: C18_25  and  N4_26 
ROOT
HETATM    1  C2  UNL     1      23.606   0.193  53.459  1.00  0.00     0.103 A 
HETATM    2  C3  UNL     1      24.846   0.414  54.063  1.00  0.00     0.072 A 
HETATM    3  C4  UNL     1      25.793   1.128  53.373  1.00  0.00     0.075 A 
HETATM    4  N1  UNL     1      26.963   1.316  53.989  1.00  0.00    -0.241 NA
HETATM    5  C5  UNL     1      27.940   2.005  53.380  1.00  0.00     0.236 A 
HETATM    6  N2  UNL     1      27.696   2.481  52.159  1.00  0.00    -0.224 NA
HETATM    7  C6  UNL     1      26.577   2.345  51.477  1.00  0.00     0.142 A 
HETATM    8  C13 UNL     1      25.585   1.639  52.112  1.00  0.00     0.042 A 
HETATM    9  C14 UNL     1      24.350   1.384  51.579  1.00  0.00     0.057 A 
HETATM   10  C15 UNL     1      23.331   0.685  52.177  1.00  0.00     0.103 A 
ENDROOT
BRANCH   7  11
HETATM   11  N3  UNL     1      26.345   2.858  50.189  1.00  0.00    -0.340 N 
HETATM   12  H6  UNL     1      26.032   2.254  49.405  1.00  0.00     0.167 HD
BRANCH  11  13
HETATM   13  C7  UNL     1      26.468   4.181  49.700  1.00  0.00     0.035 A 
HETATM   14  C8  UNL     1      27.439   4.642  48.813  1.00  0.00     0.032 A 
HETATM   15  C9  UNL     1      27.531   5.918  48.362  1.00  0.00     0.046 A 
HETATM   16  C10 UNL     1      26.630   6.872  48.775  1.00  0.00     0.138 A 
HETATM   17  F1  UNL     1      26.811   8.111  48.267  1.00  0.00    -0.204 F 
HETATM   18  C11 UNL     1      25.644   6.477  49.654  1.00  0.00     0.074 A 
HETATM   19 CL1  UNL     1      24.529   7.733  50.141  1.00  0.00    -0.081 Cl
HETATM   20  C12 UNL     1      25.597   5.177  50.076  1.00  0.00     0.056 A 
ENDBRANCH  11  13
ENDBRANCH   7  11
BRANCH  10  21
HETATM   21  O2  UNL     1      22.075   0.363  51.776  1.00  0.00    -0.348 OA
BRANCH  21  22
HETATM   22  C16 UNL     1      21.345   0.637  50.649  1.00  0.00     0.177 C 
BRANCH  22  23
HETATM   23  C17 UNL     1      20.100   1.445  50.897  1.00  0.00     0.057 C 
BRANCH  23  24
HETATM   24  C18 UNL     1      20.522   2.811  51.399  1.00  0.00     0.274 C 
BRANCH  24  25
HETATM   25  N4  UNL     1      20.870   3.725  50.331  1.00  0.00     0.092 N 
HETATM   26  C19 UNL     1      22.154   4.304  50.683  1.00  0.00     0.298 C 
HETATM   27  C20 UNL     1      21.900   5.502  51.548  1.00  0.00     0.198 C 
HETATM   28  O3  UNL     1      21.342   6.537  50.808  1.00  0.00    -0.388 OA
HETATM   29  C21 UNL     1      20.394   6.092  49.897  1.00  0.00     0.198 C 
HETATM   30  C22 UNL     1      19.832   4.737  50.268  1.00  0.00     0.298 C 
ENDBRANCH  24  25
ENDBRANCH  23  24
ENDBRANCH  22  23
ENDBRANCH  21  22
ENDBRANCH  10  21
BRANCH   1  31
HETATM   31  O1  UNL     1      22.692  -0.538  54.215  1.00  0.00    -0.353 OA
HETATM   32  C1  UNL     1      23.097  -1.327  55.315  1.00  0.00     0.210 C 
ENDBRANCH   1  31
TORSDOF 8
ENDMDL
MODEL 9
REMARK VINA RESULT:      -7.3      5.061      7.787
REMARK  8 active torsions:
REMARK  status: ('A' for Active; 'I' for Inactive)
REMARK    1  A    between atoms: O1_2  and  C2_3 
REMARK    2  A    between atoms: C6_9  and  N3_10 
REMARK    3  A    between atoms: N3_10  and  C7_11 
REMARK    4  A    between atoms: C15_21  and  O2_22 
REMARK    5  A    between atoms: O2_22  and  C16_23 
REMARK    6  A    between atoms: C16_23  and  C17_24 
REMARK    7  A    between atoms: C17_24  and  C18_25 
REMARK    8  A    between atoms: C18_25  and  N4_26 
ROOT
HETATM    1  C2  UNL     1      25.635   6.769  49.385  1.00  0.00     0.103 A 
HETATM    2  C3  UNL     1      24.554   6.705  50.268  1.00  0.00     0.072 A 
HETATM    3  C4  UNL     1      24.274   5.507  50.876  1.00  0.00     0.075 A 
HETATM    4  N1  UNL     1      23.233   5.492  51.712  1.00  0.00    -0.241 NA
HETATM    5  C5  UNL     1      22.897   4.358  52.345  1.00  0.00     0.236 A 
HETATM    6  N2  UNL     1      23.631   3.272  52.107  1.00  0.00    -0.224 NA
HETATM    7  C6  UNL     1      24.671   3.194  51.301  1.00  0.00     0.142 A 
HETATM    8  C13 UNL     1      25.006   4.361  50.660  1.00  0.00     0.042 A 
HETATM    9  C14 UNL     1      26.048   4.494  49.783  1.00  0.00     0.057 A 
HETATM   10  C15 UNL     1      26.418   5.639  49.122  1.00  0.00     0.103 A 
ENDROOT
BRANCH   7  11
HETATM   11  N3  UNL     1      25.429   2.034  51.067  1.00  0.00    -0.340 N 
HETATM   12  H6  UNL     1      25.326   1.475  50.198  1.00  0.00     0.167 HD
BRANCH  11  13
HETATM   13  C7  UNL     1      26.414   1.411  51.873  1.00  0.00     0.035 A 
HETATM   14  C8  UNL     1      27.371   2.059  52.650  1.00  0.00     0.032 A 
HETATM   15  C9  UNL     1      28.302   1.433  53.411  1.00  0.00     0.046 A 
HETATM   16  C10 UNL     1      28.357   0.060  53.460  1.00  0.00     0.138 A 
HETATM   17  F1  UNL     1      29.322  -0.463  54.248  1.00  0.00    -0.204 F 
HETATM   18  C11 UNL     1      27.434  -0.640  52.712  1.00  0.00     0.074 A 
HETATM   19 CL1  UNL     1      27.553  -2.383  52.816  1.00  0.00    -0.081 Cl
HETATM   20  C12 UNL     1      26.516   0.041  51.962  1.00  0.00     0.056 A 
ENDBRANCH  11  13
ENDBRANCH   7  11
BRANCH  10  21
HETATM   21  O2  UNL     1      27.413   5.913  48.241  1.00  0.00    -0.348 OA
BRANCH  21  22
HETATM   22  C16 UNL     1      28.757   5.642  48.220  1.00  0.00     0.177 C 
BRANCH  22  23
HETATM   23  C17 UNL     1      29.624   6.825  47.883  1.00  0.00     0.057 C 
BRANCH  23  24
HETATM   24  C18 UNL     1      30.939   6.301  47.341  1.00  0.00     0.274 C 
BRANCH  24  25
HETATM   25  N4  UNL     1      31.442   5.160  48.079  1.00  0.00     0.092 N 
HETATM   26  C19 UNL     1      32.446   5.669  48.994  1.00  0.00     0.298 C 
HETATM   27  C20 UNL     1      33.758   5.707  48.269  1.00  0.00     0.198 C 
HETATM   28  O3  UNL     1      34.237   4.422  48.046  1.00  0.00    -0.388 OA
HETATM   29  C21 UNL     1      33.234   3.535  47.677  1.00  0.00     0.198 C 
HETATM   30  C22 UNL     1      32.020   4.240  47.116  1.00  0.00     0.298 C 
ENDBRANCH  24  25
ENDBRANCH  23  24
ENDBRANCH  22  23
ENDBRANCH  21  22
ENDBRANCH  10  21
BRANCH   1  31
HETATM   31  O1  UNL     1      25.862   8.015  48.804  1.00  0.00    -0.353 OA
HETATM   32  C1  UNL     1      26.508   9.058  49.506  1.00  0.00     0.210 C 
ENDBRANCH   1  31
TORSDOF 8
ENDMDL
