MODEL 1
REMARK VINA RESULT:      -8.3      0.000      0.000
REMARK  5 active torsions:
REMARK  status: ('A' for Active; 'I' for Inactive)
REMARK    1  A    between atoms: N1_2  and  C2_3 
REMARK    2  A    between atoms: C5_8  and  C6_9 
REMARK    3  A    between atoms: C11_15  and  C12_16 
REMARK    4  A    between atoms: C12_16  and  C13_17 
REMARK    5  A    between atoms: C13_17  and  C14_18 
ROOT
HETATM    1  C6  UNL     1      23.223   1.790  52.108  1.00  0.00     0.032 A 
HETATM    2  C7  UNL     1      23.321   3.210  52.590  1.00  0.00     0.030 C 
HETATM    3  C8  UNL     1      22.125   1.110  52.915  1.00  0.00     0.034 A 
HETATM    4  C9  UNL     1      22.538   0.041  53.621  1.00  0.00     0.114 A 
HETATM    5  F1  UNL     1      21.865  -0.824  54.456  1.00  0.00    -0.206 F 
HETATM    6  C10 UNL     1      23.982  -0.018  53.295  1.00  0.00     0.046 A 
HETATM    7  C11 UNL     1      24.378   0.969  52.443  1.00  0.00    -0.060 A 
ENDROOT
BRANCH   1   8
HETATM    8  C5  UNL     1      22.755   1.747  50.718  1.00  0.00     0.021 A 
HETATM    9  C2  UNL     1      23.390   2.643  49.846  1.00  0.00     0.133 A 
HETATM   10  N2  UNL     1      23.042   2.721  48.551  1.00  0.00    -0.224 NA
HETATM   11  C3  UNL     1      22.089   1.983  47.975  1.00  0.00     0.234 A 
HETATM   12  N3  UNL     1      21.469   1.118  48.794  1.00  0.00    -0.253 NA
HETATM   13  C4  UNL     1      21.787   1.011  50.091  1.00  0.00     0.130 A 
BRANCH   9  14
HETATM   14  N1  UNL     1      24.457   3.576  50.136  1.00  0.00    -0.379 N 
HETATM   15  C1  UNL     1      25.778   3.504  49.542  1.00  0.00     0.147 C 
HETATM   16  H4  UNL     1      24.640   4.418  50.720  1.00  0.00     0.160 HD
ENDBRANCH   9  14
ENDBRANCH   1   8
BRANCH   7  17
HETATM   17  C12 UNL     1      25.812   0.908  52.124  1.00  0.00     0.040 C 
BRANCH  17  18
HETATM   18  C13 UNL     1      26.469  -0.431  52.188  1.00  0.00     0.040 C 
BRANCH  18  19
HETATM   19  C14 UNL     1      27.471  -0.574  53.283  1.00  0.00    -0.065 C 
HETATM   20  C15 UNL     1      27.850   0.090  54.370  1.00  0.00    -0.023 C 
HETATM   21  C16 UNL     1      29.042   0.612  54.301  1.00  0.00     0.012 C 
HETATM   22  C17 UNL     1      30.137  -0.178  53.739  1.00  0.00    -0.003 C 
HETATM   23  C18 UNL     1      29.746  -1.331  53.218  1.00  0.00    -0.022 C 
HETATM   24  C19 UNL     1      28.344  -1.800  53.195  1.00  0.00     0.062 C 
ENDBRANCH  18  19
ENDBRANCH  17  18
ENDBRANCH   7  17
TORSDOF 5
ENDMDL
MODEL 2
REMARK VINA RESULT:      -8.2      3.049      6.197
REMARK  5 active torsions:
REMARK  status: ('A' for Active; 'I' for Inactive)
REMARK    1  A    between atoms: N1_2  and  C2_3 
REMARK    2  A    between atoms: C5_8  and  C6_9 
REMARK    3  A    between atoms: C11_15  and  C12_16 
REMARK    4  A    between atoms: C12_16  and  C13_17 
REMARK    5  A    between atoms: C13_17  and  C14_18 
ROOT
HETATM    1  C6  UNL     1      25.870  -0.135  52.970  1.00  0.00     0.032 A 
HETATM    2  C7  UNL     1      26.345  -1.143  51.963  1.00  0.00     0.030 C 
HETATM    3  C8  UNL     1      25.411  -0.904  54.202  1.00  0.00     0.034 A 
HETATM    4  C9  UNL     1      24.119  -0.710  54.527  1.00  0.00     0.114 A 
HETATM    5  F1  UNL     1      23.343  -1.213  55.549  1.00  0.00    -0.206 F 
HETATM    6  C10 UNL     1      23.663   0.226  53.474  1.00  0.00     0.046 A 
HETATM    7  C11 UNL     1      24.645   0.554  52.588  1.00  0.00    -0.060 A 
ENDROOT
BRANCH   1   8
HETATM    8  C5  UNL     1      26.985   0.697  53.437  1.00  0.00     0.021 A 
HETATM    9  C2  UNL     1      28.133  -0.009  53.828  1.00  0.00     0.133 A 
HETATM   10  N2  UNL     1      29.218   0.630  54.294  1.00  0.00    -0.224 NA
HETATM   11  C3  UNL     1      29.320   1.955  54.433  1.00  0.00     0.234 A 
HETATM   12  N3  UNL     1      28.230   2.648  54.064  1.00  0.00    -0.253 NA
HETATM   13  C4  UNL     1      27.129   2.048  53.594  1.00  0.00     0.130 A 
BRANCH   9  14
HETATM   14  N1  UNL     1      28.362  -1.436  53.802  1.00  0.00    -0.379 N 
HETATM   15  C1  UNL     1      29.603  -2.049  53.366  1.00  0.00     0.147 C 
HETATM   16  H4  UNL     1      27.867  -2.326  54.022  1.00  0.00     0.160 HD
ENDBRANCH   9  14
ENDBRANCH   1   8
BRANCH   7  17
HETATM   17  C12 UNL     1      24.187   1.481  51.543  1.00  0.00     0.040 C 
BRANCH  17  18
HETATM   18  C13 UNL     1      24.802   2.842  51.521  1.00  0.00     0.040 C 
BRANCH  18  19
HETATM   19  C14 UNL     1      25.302   3.271  50.184  1.00  0.00    -0.065 C 
HETATM   20  C15 UNL     1      26.422   3.190  49.474  1.00  0.00    -0.023 C 
HETATM   21  C16 UNL     1      27.030   4.328  49.285  1.00  0.00     0.012 C 
HETATM   22  C17 UNL     1      26.243   5.507  48.925  1.00  0.00    -0.003 C 
HETATM   23  C18 UNL     1      24.936   5.305  48.967  1.00  0.00    -0.022 C 
HETATM   24  C19 UNL     1      24.304   4.021  49.339  1.00  0.00     0.062 C 
ENDBRANCH  18  19
ENDBRANCH  17  18
ENDBRANCH   7  17
TORSDOF 5
ENDMDL
MODEL 3
REMARK VINA RESULT:      -7.8      2.554      3.918
REMARK  5 active torsions:
REMARK  status: ('A' for Active; 'I' for Inactive)
REMARK    1  A    between atoms: N1_2  and  C2_3 
REMARK    2  A    between atoms: C5_8  and  C6_9 
REMARK    3  A    between atoms: C11_15  and  C12_16 
REMARK    4  A    between atoms: C12_16  and  C13_17 
REMARK    5  A    between atoms: C13_17  and  C14_18 
ROOT
HETATM    1  C6  UNL     1      23.199   1.581  51.961  1.00  0.00     0.032 A 
HETATM    2  C7  UNL     1      22.622   1.444  50.581  1.00  0.00     0.030 C 
HETATM    3  C8  UNL     1      22.747   2.927  52.511  1.00  0.00     0.034 A 
HETATM    4  C9  UNL     1      23.755   3.761  52.831  1.00  0.00     0.114 A 
HETATM    5  F1  UNL     1      23.761   5.039  53.347  1.00  0.00    -0.206 F 
HETATM    6  C10 UNL     1      24.952   2.963  52.481  1.00  0.00     0.046 A 
HETATM    7  C11 UNL     1      24.647   1.731  51.986  1.00  0.00    -0.060 A 
ENDROOT
BRANCH   1   8
HETATM    8  C5  UNL     1      22.615   0.586  52.868  1.00  0.00     0.021 A 
HETATM    9  C2  UNL     1      21.270   0.800  53.202  1.00  0.00     0.133 A 
HETATM   10  N2  UNL     1      20.620  -0.024  54.040  1.00  0.00    -0.224 NA
HETATM   11  C3  UNL     1      21.163  -1.096  54.625  1.00  0.00     0.234 A 
HETATM   12  N3  UNL     1      22.451  -1.317  54.316  1.00  0.00    -0.253 NA
HETATM   13  C4  UNL     1      23.133  -0.519  53.485  1.00  0.00     0.130 A 
BRANCH   9  14
HETATM   14  N1  UNL     1      20.388   1.853  52.749  1.00  0.00    -0.379 N 
HETATM   15  C1  UNL     1      19.225   1.629  51.911  1.00  0.00     0.147 C 
HETATM   16  H4  UNL     1      20.277   2.886  52.823  1.00  0.00     0.160 HD
ENDBRANCH   9  14
ENDBRANCH   1   8
BRANCH   7  17
HETATM   17  C12 UNL     1      25.838   0.943  51.638  1.00  0.00     0.040 C 
BRANCH  17  18
HETATM   18  C13 UNL     1      27.093   1.233  52.393  1.00  0.00     0.040 C 
BRANCH  18  19
HETATM   19  C14 UNL     1      27.560   0.117  53.264  1.00  0.00    -0.065 C 
HETATM   20  C15 UNL     1      28.500  -0.096  54.179  1.00  0.00    -0.023 C 
HETATM   21  C16 UNL     1      29.437  -0.926  53.814  1.00  0.00     0.012 C 
HETATM   22  C17 UNL     1      29.069  -2.158  53.116  1.00  0.00    -0.003 C 
HETATM   23  C18 UNL     1      27.784  -2.225  52.803  1.00  0.00    -0.022 C 
HETATM   24  C19 UNL     1      26.794  -1.173  53.117  1.00  0.00     0.062 C 
ENDBRANCH  18  19
ENDBRANCH  17  18
ENDBRANCH   7  17
TORSDOF 5
ENDMDL
MODEL 4
REMARK VINA RESULT:      -7.7      2.856      5.519
REMARK  5 active torsions:
REMARK  status: ('A' for Active; 'I' for Inactive)
REMARK    1  A    between atoms: N1_2  and  C2_3 
REMARK    2  A    between atoms: C5_8  and  C6_9 
REMARK    3  A    between atoms: C11_15  and  C12_16 
REMARK    4  A    between atoms: C12_16  and  C13_17 
REMARK    5  A    between atoms: C13_17  and  C14_18 
ROOT
HETATM    1  C6  UNL     1      21.834   1.615  51.992  1.00  0.00     0.032 A 
HETATM    2  C7  UNL     1      22.317   1.023  50.699  1.00  0.00     0.030 C 
HETATM    3  C8  UNL     1      20.325   1.791  51.878  1.00  0.00     0.034 A 
HETATM    4  C9  UNL     1      19.904   3.062  52.018  1.00  0.00     0.114 A 
HETATM    5  F1  UNL     1      18.645   3.621  51.981  1.00  0.00    -0.206 F 
HETATM    6  C10 UNL     1      21.172   3.796  52.231  1.00  0.00     0.046 A 
HETATM    7  C11 UNL     1      22.268   2.987  52.216  1.00  0.00    -0.060 A 
ENDROOT
BRANCH   1   8
HETATM    8  C5  UNL     1      22.022   0.667  53.097  1.00  0.00     0.021 A 
HETATM    9  C2  UNL     1      23.328   0.175  53.244  1.00  0.00     0.133 A 
HETATM   10  N2  UNL     1      23.633  -0.714  54.203  1.00  0.00    -0.224 NA
HETATM   11  C3  UNL     1      22.761  -1.210  55.086  1.00  0.00     0.234 A 
HETATM   12  N3  UNL     1      21.505  -0.751  54.960  1.00  0.00    -0.253 NA
HETATM   13  C4  UNL     1      21.161   0.136  54.017  1.00  0.00     0.130 A 
BRANCH   9  14
HETATM   14  N1  UNL     1      24.504   0.502  52.470  1.00  0.00    -0.379 N 
HETATM   15  C1  UNL     1      25.852   0.115  52.842  1.00  0.00     0.147 C 
HETATM   16  H4  UNL     1      24.767   1.003  51.595  1.00  0.00     0.160 HD
ENDBRANCH   9  14
ENDBRANCH   1   8
BRANCH   7  17
HETATM   17  C12 UNL     1      23.524   3.720  52.425  1.00  0.00     0.040 C 
BRANCH  17  18
HETATM   18  C13 UNL     1      23.860   4.794  51.443  1.00  0.00     0.040 C 
BRANCH  18  19
HETATM   19  C14 UNL     1      24.589   4.318  50.233  1.00  0.00    -0.065 C 
HETATM   20  C15 UNL     1      25.162   3.200  49.801  1.00  0.00    -0.023 C 
HETATM   21  C16 UNL     1      26.460   3.259  49.696  1.00  0.00     0.012 C 
HETATM   22  C17 UNL     1      27.076   4.448  49.107  1.00  0.00    -0.003 C 
HETATM   23  C18 UNL     1      26.216   5.425  48.863  1.00  0.00    -0.022 C 
HETATM   24  C19 UNL     1      24.767   5.348  49.147  1.00  0.00     0.062 C 
ENDBRANCH  18  19
ENDBRANCH  17  18
ENDBRANCH   7  17
TORSDOF 5
ENDMDL
MODEL 5
REMARK VINA RESULT:      -7.5      3.281      6.036
REMARK  5 active torsions:
REMARK  status: ('A' for Active; 'I' for Inactive)
REMARK    1  A    between atoms: N1_2  and  C2_3 
REMARK    2  A    between atoms: C5_8  and  C6_9 
REMARK    3  A    between atoms: C11_15  and  C12_16 
REMARK    4  A    between atoms: C12_16  and  C13_17 
REMARK    5  A    between atoms: C13_17  and  C14_18 
ROOT
HETATM    1  C6  UNL     1      25.654   2.066  52.182  1.00  0.00     0.032 A 
HETATM    2  C7  UNL     1      25.315   2.778  53.460  1.00  0.00     0.030 C 
HETATM    3  C8  UNL     1      26.736   2.877  51.482  1.00  0.00     0.034 A 
HETATM    4  C9  UNL     1      26.393   3.315  50.256  1.00  0.00     0.114 A 
HETATM    5  F1  UNL     1      27.079   4.064  49.324  1.00  0.00    -0.206 F 
HETATM    6  C10 UNL     1      25.015   2.794  50.105  1.00  0.00     0.046 A 
HETATM    7  C11 UNL     1      24.588   2.088  51.190  1.00  0.00    -0.060 A 
ENDROOT
BRANCH   1   8
HETATM    8  C5  UNL     1      26.276   0.766  52.463  1.00  0.00     0.021 A 
HETATM    9  C2  UNL     1      27.374   0.807  53.336  1.00  0.00     0.133 A 
HETATM   10  N2  UNL     1      28.048  -0.308  53.661  1.00  0.00    -0.224 NA
HETATM   11  C3  UNL     1      27.759  -1.531  53.205  1.00  0.00     0.234 A 
HETATM   12  N3  UNL     1      26.711  -1.590  52.368  1.00  0.00    -0.253 NA
HETATM   13  C4  UNL     1      26.013  -0.500  52.020  1.00  0.00     0.130 A 
BRANCH   9  14
HETATM   14  N1  UNL     1      27.946   1.953  54.008  1.00  0.00    -0.379 N 
HETATM   15  C1  UNL     1      29.360   2.098  54.299  1.00  0.00     0.147 C 
HETATM   16  H4  UNL     1      27.649   2.859  54.428  1.00  0.00     0.160 HD
ENDBRANCH   9  14
ENDBRANCH   1   8
BRANCH   7  17
HETATM   17  C12 UNL     1      23.220   1.574  51.036  1.00  0.00     0.040 C 
BRANCH  17  18
HETATM   18  C13 UNL     1      22.232   1.936  52.096  1.00  0.00     0.040 C 
BRANCH  18  19
HETATM   19  C14 UNL     1      21.618   0.769  52.791  1.00  0.00    -0.065 C 
HETATM   20  C15 UNL     1      20.589   0.527  53.596  1.00  0.00    -0.023 C 
HETATM   21  C16 UNL     1      20.919   0.180  54.810  1.00  0.00     0.012 C 
HETATM   22  C17 UNL     1      22.003  -0.781  55.009  1.00  0.00    -0.003 C 
HETATM   23  C18 UNL     1      22.641  -1.098  53.894  1.00  0.00    -0.022 C 
HETATM   24  C19 UNL     1      22.312  -0.549  52.561  1.00  0.00     0.062 C 
ENDBRANCH  18  19
ENDBRANCH  17  18
ENDBRANCH   7  17
TORSDOF 5
ENDMDL
MODEL 6
REMARK VINA RESULT:      -7.5      2.981      4.504
REMARK  5 active torsions:
REMARK  status: ('A' for Active; 'I' for Inactive)
REMARK    1  A    between atoms: N1_2  and  C2_3 
REMARK    2  A    between atoms: C5_8  and  C6_9 
REMARK    3  A    between atoms: C11_15  and  C12_16 
REMARK    4  A    between atoms: C12_16  and  C13_17 
REMARK    5  A    between atoms: C13_17  and  C14_18 
ROOT
HETATM    1  C6  UNL     1      24.176   3.794  49.919  1.00  0.00     0.032 A 
HETATM    2  C7  UNL     1      23.306   2.847  49.143  1.00  0.00     0.030 C 
HETATM    3  C8  UNL     1      25.290   4.257  48.988  1.00  0.00     0.034 A 
HETATM    4  C9  UNL     1      26.531   3.964  49.421  1.00  0.00     0.114 A 
HETATM    5  F1  UNL     1      27.773   4.207  48.878  1.00  0.00    -0.206 F 
HETATM    6  C10 UNL     1      26.266   3.263  50.698  1.00  0.00     0.046 A 
HETATM    7  C11 UNL     1      24.938   3.161  50.987  1.00  0.00    -0.060 A 
ENDROOT
BRANCH   1   8
HETATM    8  C5  UNL     1      23.437   5.015  50.261  1.00  0.00     0.021 A 
HETATM    9  C2  UNL     1      22.158   4.806  50.800  1.00  0.00     0.133 A 
HETATM   10  N2  UNL     1      21.367   5.837  51.137  1.00  0.00    -0.224 NA
HETATM   11  C3  UNL     1      21.697   7.125  51.000  1.00  0.00     0.234 A 
HETATM   12  N3  UNL     1      22.918   7.345  50.486  1.00  0.00    -0.253 NA
HETATM   13  C4  UNL     1      23.736   6.343  50.137  1.00  0.00     0.130 A 
BRANCH   9  14
HETATM   14  N1  UNL     1      21.496   3.552  51.083  1.00  0.00    -0.379 N 
HETATM   15  C1  UNL     1      20.812   3.261  52.329  1.00  0.00     0.147 C 
HETATM   16  H4  UNL     1      21.309   2.631  50.633  1.00  0.00     0.160 HD
ENDBRANCH   9  14
ENDBRANCH   1   8
BRANCH   7  17
HETATM   17  C12 UNL     1      24.679   2.464  52.255  1.00  0.00     0.040 C 
BRANCH  17  18
HETATM   18  C13 UNL     1      24.387   1.001  52.182  1.00  0.00     0.040 C 
BRANCH  18  19
HETATM   19  C14 UNL     1      25.319   0.146  52.972  1.00  0.00    -0.065 C 
HETATM   20  C15 UNL     1      25.423  -0.318  54.213  1.00  0.00    -0.023 C 
HETATM   21  C16 UNL     1      26.418   0.176  54.896  1.00  0.00     0.012 C 
HETATM   22  C17 UNL     1      27.726   0.314  54.256  1.00  0.00    -0.003 C 
HETATM   23  C18 UNL     1      27.714   0.037  52.962  1.00  0.00    -0.022 C 
HETATM   24  C19 UNL     1      26.510  -0.375  52.209  1.00  0.00     0.062 C 
ENDBRANCH  18  19
ENDBRANCH  17  18
ENDBRANCH   7  17
TORSDOF 5
ENDMDL
MODEL 7
REMARK VINA RESULT:      -7.5      2.746      5.674
REMARK  5 active torsions:
REMARK  status: ('A' for Active; 'I' for Inactive)
REMARK    1  A    between atoms: N1_2  and  C2_3 
REMARK    2  A    between atoms: C5_8  and  C6_9 
REMARK    3  A    between atoms: C11_15  and  C12_16 
REMARK    4  A    between atoms: C12_16  and  C13_17 
REMARK    5  A    between atoms: C13_17  and  C14_18 
ROOT
HETATM    1  C6  UNL     1      25.008   2.360  52.762  1.00  0.00     0.032 A 
HETATM    2  C7  UNL     1      24.309   3.655  53.061  1.00  0.00     0.030 C 
HETATM    3  C8  UNL     1      26.004   2.110  53.887  1.00  0.00     0.034 A 
HETATM    4  C9  UNL     1      27.285   2.017  53.483  1.00  0.00     0.114 A 
HETATM    5  F1  UNL     1      28.454   1.799  54.179  1.00  0.00    -0.206 F 
HETATM    6  C10 UNL     1      27.172   2.219  52.020  1.00  0.00     0.046 A 
HETATM    7  C11 UNL     1      25.890   2.416  51.604  1.00  0.00    -0.060 A 
ENDROOT
BRANCH   1   8
HETATM    8  C5  UNL     1      24.068   1.236  52.830  1.00  0.00     0.021 A 
HETATM    9  C2  UNL     1      22.884   1.404  52.097  1.00  0.00     0.133 A 
HETATM   10  N2  UNL     1      21.928   0.460  52.090  1.00  0.00    -0.224 NA
HETATM   11  C3  UNL     1      21.998  -0.697  52.756  1.00  0.00     0.234 A 
HETATM   12  N3  UNL     1      23.125  -0.875  53.464  1.00  0.00    -0.253 NA
HETATM   13  C4  UNL     1      24.100   0.042  53.497  1.00  0.00     0.130 A 
BRANCH   9  14
HETATM   14  N1  UNL     1      22.490   2.522  51.269  1.00  0.00    -0.379 N 
HETATM   15  C1  UNL     1      21.205   2.624  50.604  1.00  0.00     0.147 C 
HETATM   16  H4  UNL     1      22.869   3.428  50.923  1.00  0.00     0.160 HD
ENDBRANCH   9  14
ENDBRANCH   1   8
BRANCH   7  17
HETATM   17  C12 UNL     1      25.783   2.618  50.152  1.00  0.00     0.040 C 
BRANCH  17  18
HETATM   18  C13 UNL     1      26.646   3.676  49.545  1.00  0.00     0.040 C 
BRANCH  18  19
HETATM   19  C14 UNL     1      25.938   4.955  49.252  1.00  0.00    -0.065 C 
HETATM   20  C15 UNL     1      26.246   6.230  49.043  1.00  0.00    -0.023 C 
HETATM   21  C16 UNL     1      25.854   7.046  49.982  1.00  0.00     0.012 C 
HETATM   22  C17 UNL     1      24.512   6.897  50.543  1.00  0.00    -0.003 C 
HETATM   23  C18 UNL     1      23.873   5.821  50.111  1.00  0.00    -0.022 C 
HETATM   24  C19 UNL     1      24.437   4.847  49.153  1.00  0.00     0.062 C 
ENDBRANCH  18  19
ENDBRANCH  17  18
ENDBRANCH   7  17
TORSDOF 5
ENDMDL
MODEL 8
REMARK VINA RESULT:      -7.4      3.524      5.524
REMARK  5 active torsions:
REMARK  status: ('A' for Active; 'I' for Inactive)
REMARK    1  A    between atoms: N1_2  and  C2_3 
REMARK    2  A    between atoms: C5_8  and  C6_9 
REMARK    3  A    between atoms: C11_15  and  C12_16 
REMARK    4  A    between atoms: C12_16  and  C13_17 
REMARK    5  A    between atoms: C13_17  and  C14_18 
ROOT
HETATM    1  C6  UNL     1      23.707   3.463  50.213  1.00  0.00     0.032 A 
HETATM    2  C7  UNL     1      22.721   2.499  49.618  1.00  0.00     0.030 C 
HETATM    3  C8  UNL     1      24.830   3.649  49.202  1.00  0.00     0.034 A 
HETATM    4  C9  UNL     1      26.049   3.301  49.657  1.00  0.00     0.114 A 
HETATM    5  F1  UNL     1      27.292   3.322  49.062  1.00  0.00    -0.206 F 
HETATM    6  C10 UNL     1      25.757   2.850  51.037  1.00  0.00     0.046 A 
HETATM    7  C11 UNL     1      24.436   2.935  51.359  1.00  0.00    -0.060 A 
ENDROOT
BRANCH   1   8
HETATM    8  C5  UNL     1      23.106   4.794  50.361  1.00  0.00     0.021 A 
HETATM    9  C2  UNL     1      21.825   4.809  50.932  1.00  0.00     0.133 A 
HETATM   10  N2  UNL     1      21.152   5.958  51.104  1.00  0.00    -0.224 NA
HETATM   11  C3  UNL     1      21.611   7.166  50.763  1.00  0.00     0.234 A 
HETATM   12  N3  UNL     1      22.836   7.171  50.214  1.00  0.00    -0.253 NA
HETATM   13  C4  UNL     1      23.539   6.047  50.026  1.00  0.00     0.130 A 
BRANCH   9  14
HETATM   14  N1  UNL     1      21.042   3.692  51.414  1.00  0.00    -0.379 N 
HETATM   15  C1  UNL     1      19.606   3.737  51.615  1.00  0.00     0.147 C 
HETATM   16  H4  UNL     1      21.169   2.705  51.720  1.00  0.00     0.160 HD
ENDBRANCH   9  14
ENDBRANCH   1   8
BRANCH   7  17
HETATM   17  C12 UNL     1      24.150   2.485  52.728  1.00  0.00     0.040 C 
BRANCH  17  18
HETATM   18  C13 UNL     1      24.374   1.040  53.032  1.00  0.00     0.040 C 
BRANCH  18  19
HETATM   19  C14 UNL     1      23.137   0.208  53.020  1.00  0.00    -0.065 C 
HETATM   20  C15 UNL     1      22.033   0.090  52.290  1.00  0.00    -0.023 C 
HETATM   21  C16 UNL     1      20.938   0.453  52.898  1.00  0.00     0.012 C 
HETATM   22  C17 UNL     1      20.720   0.041  54.285  1.00  0.00    -0.003 C 
HETATM   23  C18 UNL     1      21.765  -0.563  54.828  1.00  0.00    -0.022 C 
HETATM   24  C19 UNL     1      23.041  -0.812  54.126  1.00  0.00     0.062 C 
ENDBRANCH  18  19
ENDBRANCH  17  18
ENDBRANCH   7  17
TORSDOF 5
ENDMDL
MODEL 9
REMARK VINA RESULT:      -7.2      3.134      6.893
REMARK  5 active torsions:
REMARK  status: ('A' for Active; 'I' for Inactive)
REMARK    1  A    between atoms: N1_2  and  C2_3 
REMARK    2  A    between atoms: C5_8  and  C6_9 
REMARK    3  A    between atoms: C11_15  and  C12_16 
REMARK    4  A    between atoms: C12_16  and  C13_17 
REMARK    5  A    between atoms: C13_17  and  C14_18 
ROOT
HETATM    1  C6  UNL     1      24.456   2.361  51.633  1.00  0.00     0.032 A 
HETATM    2  C7  UNL     1      23.843   3.045  52.822  1.00  0.00     0.030 C 
HETATM    3  C8  UNL     1      25.474   3.321  51.030  1.00  0.00     0.034 A 
HETATM    4  C9  UNL     1      25.226   3.659  49.750  1.00  0.00     0.114 A 
HETATM    5  F1  UNL     1      25.895   4.484  48.872  1.00  0.00    -0.206 F 
HETATM    6  C10 UNL     1      23.982   2.910  49.458  1.00  0.00     0.046 A 
HETATM    7  C11 UNL     1      23.538   2.176  50.517  1.00  0.00    -0.060 A 
ENDROOT
BRANCH   1   8
HETATM    8  C5  UNL     1      25.238   1.193  52.053  1.00  0.00     0.021 A 
HETATM    9  C2  UNL     1      24.566   0.298  52.898  1.00  0.00     0.133 A 
HETATM   10  N2  UNL     1      25.173  -0.802  53.373  1.00  0.00    -0.224 NA
HETATM   11  C3  UNL     1      26.435  -1.149  53.105  1.00  0.00     0.234 A 
HETATM   12  N3  UNL     1      27.096  -0.303  52.298  1.00  0.00    -0.253 NA
HETATM   13  C4  UNL     1      26.525   0.803  51.804  1.00  0.00     0.130 A 
BRANCH   9  14
HETATM   14  N1  UNL     1      23.203   0.366  53.378  1.00  0.00    -0.379 N 
HETATM   15  C1  UNL     1      22.445  -0.786  53.830  1.00  0.00     0.147 C 
HETATM   16  H4  UNL     1      22.450   1.068  53.538  1.00  0.00     0.160 HD
ENDBRANCH   9  14
ENDBRANCH   1   8
BRANCH   7  17
HETATM   17  C12 UNL     1      22.303   1.436  50.223  1.00  0.00     0.040 C 
BRANCH  17  18
HETATM   18  C13 UNL     1      21.065   1.862  50.942  1.00  0.00     0.040 C 
BRANCH  18  19
HETATM   19  C14 UNL     1      20.585   3.228  50.587  1.00  0.00    -0.065 C 
HETATM   20  C15 UNL     1      20.089   3.857  49.527  1.00  0.00    -0.023 C 
HETATM   21  C16 UNL     1      20.873   4.765  49.018  1.00  0.00     0.012 C 
HETATM   22  C17 UNL     1      21.580   5.682  49.912  1.00  0.00    -0.003 C 
HETATM   23  C18 UNL     1      21.443   5.383  51.194  1.00  0.00    -0.022 C 
HETATM   24  C19 UNL     1      20.655   4.240  51.702  1.00  0.00     0.062 C 
ENDBRANCH  18  19
ENDBRANCH  17  18
ENDBRANCH   7  17
TORSDOF 5
ENDMDL
