MODEL 1
REMARK VINA RESULT:      -8.5      0.000      0.000
REMARK  5 active torsions:
REMARK  status: ('A' for Active; 'I' for Inactive)
REMARK    1  A    between atoms: C5_6  and  N2_7 
REMARK    2  A    between atoms: C8_13  and  N6_14 
REMARK    3  A    between atoms: N6_14  and  C9_15 
REMARK    4  A    between atoms: C12_18  and  S1_19 
REMARK    5  A    between atoms: S1_19  and  N7_20 
ROOT
HETATM    1  N1  UNL     1      22.442   1.778  50.711  1.00  0.00    -0.191 NA
HETATM    2  C1  UNL     1      23.500   1.698  51.167  1.00  0.00     0.103 C 
HETATM    3  C2  UNL     1      24.810   1.604  51.718  1.00  0.00     0.091 A 
HETATM    4  C3  UNL     1      25.024   0.772  52.795  1.00  0.00     0.045 A 
HETATM    5  C4  UNL     1      26.295   0.698  53.306  1.00  0.00     0.059 A 
HETATM    6  C5  UNL     1      26.614  -0.095  54.377  1.00  0.00     0.136 A 
HETATM    7  N3  UNL     1      27.867  -0.186  54.907  1.00  0.00    -0.224 NA
HETATM    8  C6  UNL     1      28.867   0.532  54.369  1.00  0.00     0.237 A 
HETATM    9  N4  UNL     1      28.564   1.304  53.330  1.00  0.00    -0.221 NA
HETATM   10  C7  UNL     1      27.358   1.431  52.770  1.00  0.00     0.167 A 
HETATM   11  N5  UNL     1      27.149   2.245  51.717  1.00  0.00    -0.209 NA
HETATM   12  C8  UNL     1      25.904   2.317  51.219  1.00  0.00     0.151 A 
ENDROOT
BRANCH  12  13
HETATM   13  N6  UNL     1      25.721   3.197  50.126  1.00  0.00    -0.340 N 
HETATM   14  H5  UNL     1      25.264   2.614  49.363  1.00  0.00     0.167 HD
BRANCH  13  15
HETATM   15  C9  UNL     1      25.978   4.539  49.817  1.00  0.00     0.033 A 
HETATM   16  C10 UNL     1      26.933   4.938  48.929  1.00  0.00     0.031 A 
HETATM   17  C11 UNL     1      27.122   6.284  48.715  1.00  0.00     0.027 A 
HETATM   18  C12 UNL     1      26.404   7.283  49.342  1.00  0.00     0.074 A 
HETATM   19  C13 UNL     1      25.428   6.864  50.250  1.00  0.00     0.027 A 
HETATM   20  C14 UNL     1      25.227   5.517  50.475  1.00  0.00     0.031 A 
BRANCH  18  21
HETATM   21  S1  UNL     1      26.605   9.012  49.092  1.00  0.00     0.239 S 
HETATM   22  O1  UNL     1      27.569   9.315  48.012  1.00  0.00    -0.206 OA
HETATM   23  O2  UNL     1      25.242   9.641  48.817  1.00  0.00    -0.206 OA
BRANCH  21  24
HETATM   24  N7  UNL     1      27.162   9.778  50.551  1.00  0.00    -0.225 NA
HETATM   25  H8  UNL     1      27.612   9.080  51.186  1.00  0.00     0.136 HD
HETATM   26  H9  UNL     1      26.297  10.141  51.031  1.00  0.00     0.136 HD
ENDBRANCH  21  24
ENDBRANCH  18  21
ENDBRANCH  13  15
ENDBRANCH  12  13
BRANCH   6  27
HETATM   27  N2  UNL     1      25.582  -0.859  54.954  1.00  0.00    -0.383 N 
HETATM   28  H2  UNL     1      24.697  -0.392  54.600  1.00  0.00     0.157 HD
HETATM   29  H3  UNL     1      24.932  -1.500  55.437  1.00  0.00     0.157 HD
ENDBRANCH   6  27
TORSDOF 5
ENDMDL
MODEL 2
REMARK VINA RESULT:      -8.3      2.007      3.587
REMARK  5 active torsions:
REMARK  status: ('A' for Active; 'I' for Inactive)
REMARK    1  A    between atoms: C5_6  and  N2_7 
REMARK    2  A    between atoms: C8_13  and  N6_14 
REMARK    3  A    between atoms: N6_14  and  C9_15 
REMARK    4  A    between atoms: C12_18  and  S1_19 
REMARK    5  A    between atoms: S1_19  and  N7_20 
ROOT
HETATM    1  N1  UNL     1      27.771   1.955  52.411  1.00  0.00    -0.191 NA
HETATM    2  C1  UNL     1      26.720   1.513  52.597  1.00  0.00     0.103 C 
HETATM    3  C2  UNL     1      25.419   0.977  52.817  1.00  0.00     0.091 A 
HETATM    4  C3  UNL     1      25.214   0.141  53.893  1.00  0.00     0.045 A 
HETATM    5  C4  UNL     1      23.952  -0.360  54.084  1.00  0.00     0.059 A 
HETATM    6  C5  UNL     1      23.642  -1.203  55.120  1.00  0.00     0.136 A 
HETATM    7  N3  UNL     1      22.398  -1.718  55.333  1.00  0.00    -0.224 NA
HETATM    8  C6  UNL     1      21.398  -1.399  54.495  1.00  0.00     0.237 A 
HETATM    9  N4  UNL     1      21.691  -0.583  53.488  1.00  0.00    -0.221 NA
HETATM   10  C7  UNL     1      22.889  -0.049  53.232  1.00  0.00     0.167 A 
HETATM   11  N5  UNL     1      23.088   0.769  52.180  1.00  0.00    -0.209 NA
HETATM   12  C8  UNL     1      24.325   1.258  51.994  1.00  0.00     0.151 A 
ENDROOT
BRANCH  12  13
HETATM   13  N6  UNL     1      24.499   2.096  50.867  1.00  0.00    -0.340 N 
HETATM   14  H5  UNL     1      24.391   1.462  50.020  1.00  0.00     0.167 HD
BRANCH  13  15
HETATM   15  C9  UNL     1      24.765   3.447  50.607  1.00  0.00     0.033 A 
HETATM   16  C10 UNL     1      24.072   4.474  51.178  1.00  0.00     0.031 A 
HETATM   17  C11 UNL     1      24.397   5.767  50.835  1.00  0.00     0.027 A 
HETATM   18  C12 UNL     1      25.391   6.112  49.941  1.00  0.00     0.074 A 
HETATM   19  C13 UNL     1      26.094   5.052  49.362  1.00  0.00     0.027 A 
HETATM   20  C14 UNL     1      25.779   3.751  49.695  1.00  0.00     0.031 A 
BRANCH  18  21
HETATM   21  S1  UNL     1      25.845   7.747  49.482  1.00  0.00     0.239 S 
HETATM   22  O1  UNL     1      26.570   7.788  48.194  1.00  0.00    -0.206 OA
HETATM   23  O2  UNL     1      24.595   8.624  49.447  1.00  0.00    -0.206 OA
BRANCH  21  24
HETATM   24  N7  UNL     1      26.857   8.464  50.700  1.00  0.00    -0.225 NA
HETATM   25  H8  UNL     1      26.581   9.458  50.872  1.00  0.00     0.136 HD
HETATM   26  H9  UNL     1      27.831   8.465  50.299  1.00  0.00     0.136 HD
ENDBRANCH  21  24
ENDBRANCH  18  21
ENDBRANCH  13  15
ENDBRANCH  12  13
BRANCH   6  27
HETATM   27  N2  UNL     1      24.675  -1.547  56.012  1.00  0.00    -0.383 N 
HETATM   28  H2  UNL     1      25.328  -0.711  55.975  1.00  0.00     0.157 HD
HETATM   29  H3  UNL     1      25.358  -1.924  56.689  1.00  0.00     0.157 HD
ENDBRANCH   6  27
TORSDOF 5
ENDMDL
MODEL 3
REMARK VINA RESULT:      -7.9      1.555      2.083
REMARK  5 active torsions:
REMARK  status: ('A' for Active; 'I' for Inactive)
REMARK    1  A    between atoms: C5_6  and  N2_7 
REMARK    2  A    between atoms: C8_13  and  N6_14 
REMARK    3  A    between atoms: N6_14  and  C9_15 
REMARK    4  A    between atoms: C12_18  and  S1_19 
REMARK    5  A    between atoms: S1_19  and  N7_20 
ROOT
HETATM    1  N1  UNL     1      20.719   3.575  52.228  1.00  0.00    -0.191 NA
HETATM    2  C1  UNL     1      21.732   3.020  52.229  1.00  0.00     0.103 C 
HETATM    3  C2  UNL     1      22.984   2.341  52.219  1.00  0.00     0.091 A 
HETATM    4  C3  UNL     1      23.150   1.232  53.020  1.00  0.00     0.045 A 
HETATM    5  C4  UNL     1      24.364   0.595  52.991  1.00  0.00     0.059 A 
HETATM    6  C5  UNL     1      24.634  -0.513  53.751  1.00  0.00     0.136 A 
HETATM    7  N3  UNL     1      25.832  -1.164  53.745  1.00  0.00    -0.224 NA
HETATM    8  C6  UNL     1      26.824  -0.717  52.957  1.00  0.00     0.237 A 
HETATM    9  N4  UNL     1      26.569   0.358  52.217  1.00  0.00    -0.221 NA
HETATM   10  C7  UNL     1      25.417   1.034  52.183  1.00  0.00     0.167 A 
HETATM   11  N5  UNL     1      25.256   2.117  51.399  1.00  0.00    -0.209 NA
HETATM   12  C8  UNL     1      24.066   2.741  51.430  1.00  0.00     0.151 A 
ENDROOT
BRANCH  12  13
HETATM   13  N6  UNL     1      23.943   3.886  50.608  1.00  0.00    -0.340 N 
HETATM   14  H5  UNL     1      23.128   3.683  49.956  1.00  0.00     0.167 HD
BRANCH  13  15
HETATM   15  C9  UNL     1      24.580   5.123  50.446  1.00  0.00     0.033 A 
HETATM   16  C10 UNL     1      24.194   6.260  51.095  1.00  0.00     0.031 A 
HETATM   17  C11 UNL     1      24.872   7.431  50.846  1.00  0.00     0.027 A 
HETATM   18  C12 UNL     1      25.934   7.547  49.973  1.00  0.00     0.074 A 
HETATM   19  C13 UNL     1      26.321   6.378  49.312  1.00  0.00     0.027 A 
HETATM   20  C14 UNL     1      25.650   5.196  49.552  1.00  0.00     0.031 A 
BRANCH  18  21
HETATM   21  S1  UNL     1      26.834   9.019  49.631  1.00  0.00     0.239 S 
HETATM   22  O1  UNL     1      27.815   8.837  48.539  1.00  0.00    -0.206 OA
HETATM   23  O2  UNL     1      25.853  10.146  49.318  1.00  0.00    -0.206 OA
BRANCH  21  24
HETATM   24  N7  UNL     1      27.689   9.554  51.048  1.00  0.00    -0.225 NA
HETATM   25  H8  UNL     1      28.272   8.781  51.442  1.00  0.00     0.136 HD
HETATM   26  H9  UNL     1      26.946   9.793  51.757  1.00  0.00     0.136 HD
ENDBRANCH  21  24
ENDBRANCH  18  21
ENDBRANCH  13  15
ENDBRANCH  12  13
BRANCH   6  27
HETATM   27  N2  UNL     1      23.607  -1.001  54.582  1.00  0.00    -0.383 N 
HETATM   28  H2  UNL     1      24.110  -1.667  55.238  1.00  0.00     0.157 HD
HETATM   29  H3  UNL     1      22.764  -1.272  55.113  1.00  0.00     0.157 HD
ENDBRANCH   6  27
TORSDOF 5
ENDMDL
MODEL 4
REMARK VINA RESULT:      -7.8      5.168      7.612
REMARK  5 active torsions:
REMARK  status: ('A' for Active; 'I' for Inactive)
REMARK    1  A    between atoms: C5_6  and  N2_7 
REMARK    2  A    between atoms: C8_13  and  N6_14 
REMARK    3  A    between atoms: N6_14  and  C9_15 
REMARK    4  A    between atoms: C12_18  and  S1_19 
REMARK    5  A    between atoms: S1_19  and  N7_20 
ROOT
HETATM    1  N1  UNL     1      30.024   9.313  49.098  1.00  0.00    -0.191 NA
HETATM    2  C1  UNL     1      30.539   8.311  48.843  1.00  0.00     0.103 C 
HETATM    3  C2  UNL     1      31.163   7.070  48.527  1.00  0.00     0.091 A 
HETATM    4  C3  UNL     1      32.523   6.940  48.709  1.00  0.00     0.045 A 
HETATM    5  C4  UNL     1      33.098   5.735  48.400  1.00  0.00     0.059 A 
HETATM    6  C5  UNL     1      34.442   5.501  48.540  1.00  0.00     0.136 A 
HETATM    7  N3  UNL     1      35.041   4.315  48.238  1.00  0.00    -0.224 NA
HETATM    8  C6  UNL     1      34.298   3.297  47.774  1.00  0.00     0.237 A 
HETATM    9  N4  UNL     1      32.994   3.516  47.635  1.00  0.00    -0.221 NA
HETATM   10  C7  UNL     1      32.354   4.655  47.915  1.00  0.00     0.167 A 
HETATM   11  N5  UNL     1      31.025   4.781  47.737  1.00  0.00    -0.209 NA
HETATM   12  C8  UNL     1      30.463   5.963  48.040  1.00  0.00     0.151 A 
ENDROOT
BRANCH  12  13
HETATM   13  N6  UNL     1      29.068   6.063  47.820  1.00  0.00    -0.340 N 
HETATM   14  H5  UNL     1      28.961   6.480  46.848  1.00  0.00     0.167 HD
BRANCH  13  15
HETATM   15  C9  UNL     1      27.884   5.778  48.512  1.00  0.00     0.033 A 
HETATM   16  C10 UNL     1      27.477   4.512  48.819  1.00  0.00     0.031 A 
HETATM   17  C11 UNL     1      26.283   4.340  49.480  1.00  0.00     0.027 A 
HETATM   18  C12 UNL     1      25.448   5.369  49.866  1.00  0.00     0.074 A 
HETATM   19  C13 UNL     1      25.873   6.661  49.546  1.00  0.00     0.027 A 
HETATM   20  C14 UNL     1      27.068   6.850  48.883  1.00  0.00     0.031 A 
BRANCH  18  21
HETATM   21  S1  UNL     1      23.920   5.195  50.719  1.00  0.00     0.239 S 
HETATM   22  O1  UNL     1      22.772   5.674  49.918  1.00  0.00    -0.206 OA
HETATM   23  O2  UNL     1      23.741   3.738  51.136  1.00  0.00    -0.206 OA
BRANCH  21  24
HETATM   24  N7  UNL     1      23.951   6.084  52.213  1.00  0.00    -0.225 NA
HETATM   25  H8  UNL     1      23.388   5.595  52.946  1.00  0.00     0.136 HD
HETATM   26  H9  UNL     1      23.482   7.006  52.007  1.00  0.00     0.136 HD
ENDBRANCH  21  24
ENDBRANCH  18  21
ENDBRANCH  13  15
ENDBRANCH  12  13
BRANCH   6  27
HETATM   27  N2  UNL     1      35.239   6.553  49.028  1.00  0.00    -0.383 N 
HETATM   28  H2  UNL     1      36.134   6.473  48.463  1.00  0.00     0.157 HD
HETATM   29  H3  UNL     1      35.711   7.356  49.475  1.00  0.00     0.157 HD
ENDBRANCH   6  27
TORSDOF 5
ENDMDL
MODEL 5
REMARK VINA RESULT:      -7.6      3.054      3.466
REMARK  5 active torsions:
REMARK  status: ('A' for Active; 'I' for Inactive)
REMARK    1  A    between atoms: C5_6  and  N2_7 
REMARK    2  A    between atoms: C8_13  and  N6_14 
REMARK    3  A    between atoms: N6_14  and  C9_15 
REMARK    4  A    between atoms: C12_18  and  S1_19 
REMARK    5  A    between atoms: S1_19  and  N7_20 
ROOT
HETATM    1  N1  UNL     1      22.562   0.309  52.510  1.00  0.00    -0.191 NA
HETATM    2  C1  UNL     1      23.698   0.419  52.688  1.00  0.00     0.103 C 
HETATM    3  C2  UNL     1      25.098   0.567  52.904  1.00  0.00     0.091 A 
HETATM    4  C3  UNL     1      25.895  -0.557  52.918  1.00  0.00     0.045 A 
HETATM    5  C4  UNL     1      27.240  -0.387  53.127  1.00  0.00     0.059 A 
HETATM    6  C5  UNL     1      28.119  -1.438  53.163  1.00  0.00     0.136 A 
HETATM    7  N3  UNL     1      29.459  -1.298  53.371  1.00  0.00    -0.224 NA
HETATM    8  C6  UNL     1      29.977  -0.072  53.554  1.00  0.00     0.237 A 
HETATM    9  N4  UNL     1      29.129   0.951  53.520  1.00  0.00    -0.221 NA
HETATM   10  C7  UNL     1      27.811   0.875  53.320  1.00  0.00     0.167 A 
HETATM   11  N5  UNL     1      27.033   1.973  53.306  1.00  0.00    -0.209 NA
HETATM   12  C8  UNL     1      25.715   1.805  53.103  1.00  0.00     0.151 A 
ENDROOT
BRANCH  12  13
HETATM   13  N6  UNL     1      24.929   2.981  53.115  1.00  0.00    -0.340 N 
HETATM   14  H5  UNL     1      24.911   3.303  54.129  1.00  0.00     0.167 HD
BRANCH  13  15
HETATM   15  C9  UNL     1      24.216   3.765  52.199  1.00  0.00     0.033 A 
HETATM   16  C10 UNL     1      23.161   4.558  52.547  1.00  0.00     0.031 A 
HETATM   17  C11 UNL     1      22.512   5.271  51.565  1.00  0.00     0.027 A 
HETATM   18  C12 UNL     1      22.853   5.246  50.228  1.00  0.00     0.074 A 
HETATM   19  C13 UNL     1      23.934   4.431  49.882  1.00  0.00     0.027 A 
HETATM   20  C14 UNL     1      24.594   3.711  50.856  1.00  0.00     0.031 A 
BRANCH  18  21
HETATM   21  S1  UNL     1      22.059   6.146  48.943  1.00  0.00     0.239 S 
HETATM   22  O1  UNL     1      22.674   5.898  47.621  1.00  0.00    -0.206 OA
HETATM   23  O2  UNL     1      20.570   5.807  48.939  1.00  0.00    -0.206 OA
BRANCH  21  24
HETATM   24  N7  UNL     1      22.124   7.854  49.264  1.00  0.00    -0.225 NA
HETATM   25  H8  UNL     1      21.255   8.327  48.926  1.00  0.00     0.136 HD
HETATM   26  H9  UNL     1      22.933   8.221  48.696  1.00  0.00     0.136 HD
ENDBRANCH  21  24
ENDBRANCH  18  21
ENDBRANCH  13  15
ENDBRANCH  12  13
BRANCH   6  27
HETATM   27  N2  UNL     1      27.598  -2.731  52.970  1.00  0.00    -0.383 N 
HETATM   28  H2  UNL     1      28.205  -3.133  52.197  1.00  0.00     0.157 HD
HETATM   29  H3  UNL     1      27.122  -3.646  52.935  1.00  0.00     0.157 HD
ENDBRANCH   6  27
TORSDOF 5
ENDMDL
MODEL 6
REMARK VINA RESULT:      -7.6      2.462      3.565
REMARK  5 active torsions:
REMARK  status: ('A' for Active; 'I' for Inactive)
REMARK    1  A    between atoms: C5_6  and  N2_7 
REMARK    2  A    between atoms: C8_13  and  N6_14 
REMARK    3  A    between atoms: N6_14  and  C9_15 
REMARK    4  A    between atoms: C12_18  and  S1_19 
REMARK    5  A    between atoms: S1_19  and  N7_20 
ROOT
HETATM    1  N1  UNL     1      21.387   2.542  49.289  1.00  0.00    -0.191 NA
HETATM    2  C1  UNL     1      21.806   1.973  50.202  1.00  0.00     0.103 C 
HETATM    3  C2  UNL     1      22.336   1.274  51.325  1.00  0.00     0.091 A 
HETATM    4  C3  UNL     1      21.476   0.571  52.141  1.00  0.00     0.045 A 
HETATM    5  C4  UNL     1      22.010  -0.096  53.213  1.00  0.00     0.059 A 
HETATM    6  C5  UNL     1      21.243  -0.820  54.088  1.00  0.00     0.136 A 
HETATM    7  N3  UNL     1      21.747  -1.490  55.163  1.00  0.00    -0.224 NA
HETATM    8  C6  UNL     1      23.069  -1.456  55.404  1.00  0.00     0.237 A 
HETATM    9  N4  UNL     1      23.818  -0.755  54.560  1.00  0.00    -0.221 NA
HETATM   10  C7  UNL     1      23.380  -0.081  53.493  1.00  0.00     0.167 A 
HETATM   11  N5  UNL     1      24.221   0.605  52.695  1.00  0.00    -0.209 NA
HETATM   12  C8  UNL     1      23.696   1.258  51.646  1.00  0.00     0.151 A 
ENDROOT
BRANCH  12  13
HETATM   13  N6  UNL     1      24.609   1.983  50.844  1.00  0.00    -0.340 N 
HETATM   14  H5  UNL     1      25.200   1.250  50.351  1.00  0.00     0.167 HD
BRANCH  13  15
HETATM   15  C9  UNL     1      24.911   3.322  50.563  1.00  0.00     0.033 A 
HETATM   16  C10 UNL     1      24.249   4.377  51.122  1.00  0.00     0.031 A 
HETATM   17  C11 UNL     1      24.609   5.655  50.760  1.00  0.00     0.027 A 
HETATM   18  C12 UNL     1      25.607   5.958  49.857  1.00  0.00     0.074 A 
HETATM   19  C13 UNL     1      26.278   4.872  49.290  1.00  0.00     0.027 A 
HETATM   20  C14 UNL     1      25.929   3.585  49.644  1.00  0.00     0.031 A 
BRANCH  18  21
HETATM   21  S1  UNL     1      26.105   7.574  49.372  1.00  0.00     0.239 S 
HETATM   22  O1  UNL     1      27.086   7.551  48.265  1.00  0.00    -0.206 OA
HETATM   23  O2  UNL     1      24.868   8.391  49.005  1.00  0.00    -0.206 OA
BRANCH  21  24
HETATM   24  N7  UNL     1      26.816   8.422  50.714  1.00  0.00    -0.225 NA
HETATM   25  H8  UNL     1      26.150   9.131  51.097  1.00  0.00     0.136 HD
HETATM   26  H9  UNL     1      27.645   8.938  50.318  1.00  0.00     0.136 HD
ENDBRANCH  21  24
ENDBRANCH  18  21
ENDBRANCH  13  15
ENDBRANCH  12  13
BRANCH   6  27
HETATM   27  N2  UNL     1      19.857  -0.872  53.852  1.00  0.00    -0.383 N 
HETATM   28  H2  UNL     1      19.559  -1.785  54.304  1.00  0.00     0.157 HD
HETATM   29  H3  UNL     1      18.857  -0.781  53.611  1.00  0.00     0.157 HD
ENDBRANCH   6  27
TORSDOF 5
ENDMDL
MODEL 7
REMARK VINA RESULT:      -7.5      5.295      7.200
REMARK  5 active torsions:
REMARK  status: ('A' for Active; 'I' for Inactive)
REMARK    1  A    between atoms: C5_6  and  N2_7 
REMARK    2  A    between atoms: C8_13  and  N6_14 
REMARK    3  A    between atoms: N6_14  and  C9_15 
REMARK    4  A    between atoms: C12_18  and  S1_19 
REMARK    5  A    between atoms: S1_19  and  N7_20 
ROOT
HETATM    1  N1  UNL     1      20.987  -1.994  54.577  1.00  0.00    -0.191 NA
HETATM    2  C1  UNL     1      21.785  -1.322  54.081  1.00  0.00     0.103 C 
HETATM    3  C2  UNL     1      22.762  -0.494  53.457  1.00  0.00     0.091 A 
HETATM    4  C3  UNL     1      24.005  -0.372  54.040  1.00  0.00     0.045 A 
HETATM    5  C4  UNL     1      24.928   0.429  53.419  1.00  0.00     0.059 A 
HETATM    6  C5  UNL     1      26.191   0.622  53.916  1.00  0.00     0.136 A 
HETATM    7  N3  UNL     1      27.128   1.415  53.322  1.00  0.00    -0.224 NA
HETATM    8  C6  UNL     1      26.824   2.057  52.182  1.00  0.00     0.237 A 
HETATM    9  N4  UNL     1      25.601   1.874  51.694  1.00  0.00    -0.221 NA
HETATM   10  C7  UNL     1      24.646   1.111  52.231  1.00  0.00     0.167 A 
HETATM   11  N5  UNL     1      23.432   0.992  51.661  1.00  0.00    -0.209 NA
HETATM   12  C8  UNL     1      22.528   0.208  52.271  1.00  0.00     0.151 A 
ENDROOT
BRANCH  12  13
HETATM   13  N6  UNL     1      21.258   0.124  51.653  1.00  0.00    -0.340 N 
HETATM   14  H5  UNL     1      21.284  -0.763  51.065  1.00  0.00     0.167 HD
BRANCH  13  15
HETATM   15  C9  UNL     1      20.068   0.862  51.616  1.00  0.00     0.033 A 
HETATM   16  C10 UNL     1      18.840   0.302  51.421  1.00  0.00     0.031 A 
HETATM   17  C11 UNL     1      17.734   1.120  51.378  1.00  0.00     0.027 A 
HETATM   18  C12 UNL     1      17.772   2.492  51.520  1.00  0.00     0.074 A 
HETATM   19  C13 UNL     1      19.035   3.057  51.719  1.00  0.00     0.027 A 
HETATM   20  C14 UNL     1      20.153   2.249  51.765  1.00  0.00     0.031 A 
BRANCH  18  21
HETATM   21  S1  UNL     1      16.386   3.574  51.481  1.00  0.00     0.239 S 
HETATM   22  O1  UNL     1      15.112   2.847  51.289  1.00  0.00    -0.206 OA
HETATM   23  O2  UNL     1      16.366   4.410  52.758  1.00  0.00    -0.206 OA
BRANCH  21  24
HETATM   24  N7  UNL     1      16.553   4.731  50.194  1.00  0.00    -0.225 NA
HETATM   25  H8  UNL     1      17.526   4.721  49.811  1.00  0.00     0.136 HD
HETATM   26  H9  UNL     1      16.389   5.675  50.635  1.00  0.00     0.136 HD
ENDBRANCH  21  24
ENDBRANCH  18  21
ENDBRANCH  13  15
ENDBRANCH  12  13
BRANCH   6  27
HETATM   27  N2  UNL     1      26.531  -0.044  55.109  1.00  0.00    -0.383 N 
HETATM   28  H2  UNL     1      25.661   0.056  55.709  1.00  0.00     0.157 HD
HETATM   29  H3  UNL     1      26.910  -0.560  55.919  1.00  0.00     0.157 HD
ENDBRANCH   6  27
TORSDOF 5
ENDMDL
MODEL 8
REMARK VINA RESULT:      -7.4      4.141      6.636
REMARK  5 active torsions:
REMARK  status: ('A' for Active; 'I' for Inactive)
REMARK    1  A    between atoms: C5_6  and  N2_7 
REMARK    2  A    between atoms: C8_13  and  N6_14 
REMARK    3  A    between atoms: N6_14  and  C9_15 
REMARK    4  A    between atoms: C12_18  and  S1_19 
REMARK    5  A    between atoms: S1_19  and  N7_20 
ROOT
HETATM    1  N1  UNL     1      23.153  -1.470  55.640  1.00  0.00    -0.191 NA
HETATM    2  C1  UNL     1      22.318  -1.109  54.928  1.00  0.00     0.103 C 
HETATM    3  C2  UNL     1      21.295  -0.651  54.048  1.00  0.00     0.091 A 
HETATM    4  C3  UNL     1      20.077  -1.295  54.047  1.00  0.00     0.045 A 
HETATM    5  C4  UNL     1      19.109  -0.834  53.193  1.00  0.00     0.059 A 
HETATM    6  C5  UNL     1      17.866  -1.405  53.110  1.00  0.00     0.136 A 
HETATM    7  N3  UNL     1      16.885  -0.969  52.268  1.00  0.00    -0.224 NA
HETATM    8  C6  UNL     1      17.123   0.078  51.462  1.00  0.00     0.237 A 
HETATM    9  N4  UNL     1      18.327   0.636  51.536  1.00  0.00    -0.221 NA
HETATM   10  C7  UNL     1      19.323   0.253  52.340  1.00  0.00     0.167 A 
HETATM   11  N5  UNL     1      20.513   0.883  52.341  1.00  0.00    -0.209 NA
HETATM   12  C8  UNL     1      21.461   0.430  53.178  1.00  0.00     0.151 A 
ENDROOT
BRANCH  12  13
HETATM   13  N6  UNL     1      22.704   1.105  53.135  1.00  0.00    -0.340 N 
HETATM   14  H5  UNL     1      23.312   0.631  53.867  1.00  0.00     0.167 HD
BRANCH  13  15
HETATM   15  C9  UNL     1      23.288   2.165  52.429  1.00  0.00     0.033 A 
HETATM   16  C10 UNL     1      23.462   3.413  52.952  1.00  0.00     0.031 A 
HETATM   17  C11 UNL     1      24.026   4.391  52.165  1.00  0.00     0.027 A 
HETATM   18  C12 UNL     1      24.437   4.203  50.861  1.00  0.00     0.074 A 
HETATM   19  C13 UNL     1      24.254   2.922  50.334  1.00  0.00     0.027 A 
HETATM   20  C14 UNL     1      23.691   1.931  51.112  1.00  0.00     0.031 A 
BRANCH  18  21
HETATM   21  S1  UNL     1      25.169   5.420  49.824  1.00  0.00     0.239 S 
HETATM   22  O1  UNL     1      24.458   5.560  48.534  1.00  0.00    -0.206 OA
HETATM   23  O2  UNL     1      25.229   6.749  50.574  1.00  0.00    -0.206 OA
BRANCH  21  24
HETATM   24  N7  UNL     1      26.828   5.021  49.492  1.00  0.00    -0.225 NA
HETATM   25  H8  UNL     1      27.008   4.007  49.673  1.00  0.00     0.136 HD
HETATM   26  H9  UNL     1      27.400   5.579  50.180  1.00  0.00     0.136 HD
ENDBRANCH  21  24
ENDBRANCH  18  21
ENDBRANCH  13  15
ENDBRANCH  12  13
BRANCH   6  27
HETATM   27  N2  UNL     1      17.594  -2.501  53.950  1.00  0.00    -0.383 N 
HETATM   28  H2  UNL     1      16.717  -2.207  54.471  1.00  0.00     0.157 HD
HETATM   29  H3  UNL     1      17.514  -3.368  54.506  1.00  0.00     0.157 HD
ENDBRANCH   6  27
TORSDOF 5
ENDMDL
MODEL 9
REMARK VINA RESULT:      -7.4      1.704      2.120
REMARK  5 active torsions:
REMARK  status: ('A' for Active; 'I' for Inactive)
REMARK    1  A    between atoms: C5_6  and  N2_7 
REMARK    2  A    between atoms: C8_13  and  N6_14 
REMARK    3  A    between atoms: N6_14  and  C9_15 
REMARK    4  A    between atoms: C12_18  and  S1_19 
REMARK    5  A    between atoms: S1_19  and  N7_20 
ROOT
HETATM    1  N1  UNL     1      22.145   3.889  49.420  1.00  0.00    -0.191 NA
HETATM    2  C1  UNL     1      23.078   3.432  49.925  1.00  0.00     0.103 C 
HETATM    3  C2  UNL     1      24.236   2.874  50.539  1.00  0.00     0.091 A 
HETATM    4  C3  UNL     1      24.079   1.894  51.495  1.00  0.00     0.045 A 
HETATM    5  C4  UNL     1      25.209   1.372  52.070  1.00  0.00     0.059 A 
HETATM    6  C5  UNL     1      25.164   0.397  53.032  1.00  0.00     0.136 A 
HETATM    7  N3  UNL     1      26.271  -0.138  53.622  1.00  0.00    -0.224 NA
HETATM    8  C6  UNL     1      27.490   0.296  53.259  1.00  0.00     0.237 A 
HETATM    9  N4  UNL     1      27.540   1.241  52.326  1.00  0.00    -0.221 NA
HETATM   10  C7  UNL     1      26.492   1.800  51.715  1.00  0.00     0.167 A 
HETATM   11  N5  UNL     1      26.646   2.758  50.781  1.00  0.00    -0.209 NA
HETATM   12  C8  UNL     1      25.538   3.269  50.220  1.00  0.00     0.151 A 
ENDROOT
BRANCH  12  13
HETATM   13  N6  UNL     1      25.740   4.286  49.257  1.00  0.00    -0.340 N 
HETATM   14  H5  UNL     1      24.938   4.189  48.566  1.00  0.00     0.167 HD
BRANCH  13  15
HETATM   15  C9  UNL     1      26.664   5.308  49.002  1.00  0.00     0.033 A 
HETATM   16  C10 UNL     1      27.906   5.086  48.482  1.00  0.00     0.031 A 
HETATM   17  C11 UNL     1      28.748   6.158  48.291  1.00  0.00     0.027 A 
HETATM   18  C12 UNL     1      28.427   7.466  48.591  1.00  0.00     0.074 A 
HETATM   19  C13 UNL     1      27.154   7.682  49.124  1.00  0.00     0.027 A 
HETATM   20  C14 UNL     1      26.298   6.617  49.320  1.00  0.00     0.031 A 
BRANCH  18  21
HETATM   21  S1  UNL     1      29.467   8.865  48.356  1.00  0.00     0.239 S 
HETATM   22  O1  UNL     1      30.750   8.509  47.713  1.00  0.00    -0.206 OA
HETATM   23  O2  UNL     1      28.713   9.921  47.551  1.00  0.00    -0.206 OA
BRANCH  21  24
HETATM   24  N7  UNL     1      29.813   9.630  49.879  1.00  0.00    -0.225 NA
HETATM   25  H8  UNL     1      29.138  10.407  50.064  1.00  0.00     0.136 HD
HETATM   26  H9  UNL     1      30.772  10.054  49.774  1.00  0.00     0.136 HD
ENDBRANCH  21  24
ENDBRANCH  18  21
ENDBRANCH  13  15
ENDBRANCH  12  13
BRANCH   6  27
HETATM   27  N2  UNL     1      23.898  -0.074  53.425  1.00  0.00    -0.383 N 
HETATM   28  H2  UNL     1      23.895   0.062  54.478  1.00  0.00     0.157 HD
HETATM   29  H3  UNL     1      22.946  -0.447  53.571  1.00  0.00     0.157 HD
ENDBRANCH   6  27
TORSDOF 5
ENDMDL
