MODEL 1
REMARK VINA RESULT:      -8.2      0.000      0.000
REMARK  3 active torsions:
REMARK  status: ('A' for Active; 'I' for Inactive)
REMARK    1  A    between atoms: C3_3  and  C4_4 
REMARK       I    between atoms: C4_4  and  N1_6 
REMARK    2  A    between atoms: N1_6  and  C5_7 
REMARK    3  A    between atoms: C10_12  and  O2_13 
ROOT
HETATM    1  C1  UNL     1      15.696  -3.575  53.212  1.00  0.00     0.112 C 
HETATM    2  C2  UNL     1      16.784  -2.605  53.072  1.00  0.00    -0.101 C 
HETATM    3  C3  UNL     1      17.679  -1.825  52.956  1.00  0.00    -0.006 C 
ENDROOT
BRANCH   3   4
HETATM    4  C4  UNL     1      18.764  -0.894  52.806  1.00  0.00     0.301 C 
HETATM    5  O1  UNL     1      19.085  -0.360  51.709  1.00  0.00    -0.258 OA
HETATM    6  N1  UNL     1      19.585  -0.480  53.880  1.00  0.00    -0.314 N 
HETATM    7  H4  UNL     1      19.419  -0.856  54.849  1.00  0.00     0.170 HD
BRANCH   6   8
HETATM    8  C5  UNL     1      20.574   0.442  53.444  1.00  0.00     0.071 A 
HETATM    9  C6  UNL     1      20.415   1.723  52.962  1.00  0.00     0.066 A 
HETATM   10  C7  UNL     1      21.479   2.525  52.573  1.00  0.00     0.082 A 
HETATM   11  C8  UNL     1      22.733   1.944  52.706  1.00  0.00     0.087 A 
HETATM   12  N4  UNL     1      21.047   3.648  52.145  1.00  0.00    -0.284 NA
HETATM   13  C9  UNL     1      22.911   0.674  53.182  1.00  0.00     0.073 A 
HETATM   14  N2  UNL     1      23.601   2.768  52.362  1.00  0.00    -0.258 NA
HETATM   15  C10 UNL     1      21.848  -0.127  53.569  1.00  0.00     0.097 A 
HETATM   16  C12 UNL     1      24.989   2.640  52.322  1.00  0.00     0.135 C 
HETATM   17  C13 UNL     1      26.142   2.635  51.656  1.00  0.00     0.040 C 
HETATM   18  C14 UNL     1      27.403   2.405  52.333  1.00  0.00     0.096 C 
HETATM   19  C15 UNL     1      26.307   2.859  50.170  1.00  0.00     0.052 C 
HETATM   20  N3  UNL     1      28.432   2.210  52.868  1.00  0.00    -0.192 NA
HETATM   21  C16 UNL     1      25.006   3.186  49.524  1.00  0.00     0.010 C 
HETATM   22  C17 UNL     1      24.398   4.503  49.935  1.00  0.00     0.034 C 
HETATM   23  C18 UNL     1      23.002   4.621  49.369  1.00  0.00    -0.086 C 
HETATM   24  C19 UNL     1      22.786   4.626  47.900  1.00  0.00     0.043 C 
HETATM   25  C20 UNL     1      21.952   4.724  50.172  1.00  0.00    -0.003 C 
HETATM   26  C21 UNL     1      21.807   4.754  51.653  1.00  0.00     0.177 C 
BRANCH  15  27
HETATM   27  O2  UNL     1      22.199  -1.366  54.021  1.00  0.00    -0.354 OA
HETATM   28  C11 UNL     1      22.815  -1.642  55.248  1.00  0.00     0.210 C 
ENDBRANCH  15  27
ENDBRANCH   6   8
ENDBRANCH   3   4
TORSDOF 3
ENDMDL
MODEL 2
REMARK VINA RESULT:      -7.9      2.862      7.020
REMARK  3 active torsions:
REMARK  status: ('A' for Active; 'I' for Inactive)
REMARK    1  A    between atoms: C3_3  and  C4_4 
REMARK       I    between atoms: C4_4  and  N1_6 
REMARK    2  A    between atoms: N1_6  and  C5_7 
REMARK    3  A    between atoms: C10_12  and  O2_13 
ROOT
HETATM    1  C1  UNL     1      30.909  -1.629  54.200  1.00  0.00     0.112 C 
HETATM    2  C2  UNL     1      29.608  -1.016  53.919  1.00  0.00    -0.101 C 
HETATM    3  C3  UNL     1      28.547  -0.517  53.704  1.00  0.00    -0.006 C 
ENDROOT
BRANCH   3   4
HETATM    4  C4  UNL     1      27.269   0.093  53.456  1.00  0.00     0.301 C 
HETATM    5  O1  UNL     1      26.665   0.823  54.290  1.00  0.00    -0.258 OA
HETATM    6  N1  UNL     1      26.556  -0.064  52.246  1.00  0.00    -0.314 N 
HETATM    7  H4  UNL     1      26.954  -0.652  51.469  1.00  0.00     0.170 HD
BRANCH   6   8
HETATM    8  C5  UNL     1      25.326   0.648  52.278  1.00  0.00     0.071 A 
HETATM    9  C6  UNL     1      24.130   0.288  52.860  1.00  0.00     0.066 A 
HETATM   10  C7  UNL     1      22.997   1.089  52.820  1.00  0.00     0.082 A 
HETATM   11  C8  UNL     1      23.150   2.294  52.149  1.00  0.00     0.087 A 
HETATM   12  N4  UNL     1      22.027   0.505  53.413  1.00  0.00    -0.284 NA
HETATM   13  C9  UNL     1      24.330   2.668  51.565  1.00  0.00     0.073 A 
HETATM   14  N2  UNL     1      22.085   2.934  52.213  1.00  0.00    -0.258 NA
HETATM   15  C10 UNL     1      25.461   1.868  51.604  1.00  0.00     0.097 A 
HETATM   16  C12 UNL     1      21.759   4.184  51.689  1.00  0.00     0.135 C 
HETATM   17  C13 UNL     1      21.029   4.964  50.893  1.00  0.00     0.040 C 
HETATM   18  C14 UNL     1      21.253   6.393  50.825  1.00  0.00     0.096 C 
HETATM   19  C15 UNL     1      19.911   4.501  49.987  1.00  0.00     0.052 C 
HETATM   20  N3  UNL     1      21.430   7.554  50.753  1.00  0.00    -0.192 NA
HETATM   21  C16 UNL     1      19.646   3.046  50.153  1.00  0.00     0.010 C 
HETATM   22  C17 UNL     1      19.094   2.643  51.497  1.00  0.00     0.034 C 
HETATM   23  C18 UNL     1      19.059   1.136  51.605  1.00  0.00    -0.086 C 
HETATM   24  C19 UNL     1      18.222   0.336  50.676  1.00  0.00     0.043 C 
HETATM   25  C20 UNL     1      19.772   0.507  52.530  1.00  0.00    -0.003 C 
HETATM   26  C21 UNL     1      20.693   0.982  53.598  1.00  0.00     0.177 C 
BRANCH  15  27
HETATM   27  O2  UNL     1      26.554   2.389  50.974  1.00  0.00    -0.354 OA
HETATM   28  C11 UNL     1      26.529   3.387  49.991  1.00  0.00     0.210 C 
ENDBRANCH  15  27
ENDBRANCH   6   8
ENDBRANCH   3   4
TORSDOF 3
ENDMDL
MODEL 3
REMARK VINA RESULT:      -7.8      3.333      7.734
REMARK  3 active torsions:
REMARK  status: ('A' for Active; 'I' for Inactive)
REMARK    1  A    between atoms: C3_3  and  C4_4 
REMARK       I    between atoms: C4_4  and  N1_6 
REMARK    2  A    between atoms: N1_6  and  C5_7 
REMARK    3  A    between atoms: C10_12  and  O2_13 
ROOT
HETATM    1  C1  UNL     1      28.944   8.011  47.529  1.00  0.00     0.112 C 
HETATM    2  C2  UNL     1      28.007   7.030  48.082  1.00  0.00    -0.101 C 
HETATM    3  C3  UNL     1      27.244   6.225  48.519  1.00  0.00    -0.006 C 
ENDROOT
BRANCH   3   4
HETATM    4  C4  UNL     1      26.331   5.243  49.039  1.00  0.00     0.301 C 
HETATM    5  O1  UNL     1      25.123   5.482  49.313  1.00  0.00    -0.258 OA
HETATM    6  N1  UNL     1      26.698   3.903  49.297  1.00  0.00    -0.314 N 
HETATM    7  H4  UNL     1      27.682   3.578  49.111  1.00  0.00     0.170 HD
BRANCH   6   8
HETATM    8  C5  UNL     1      25.600   3.159  49.806  1.00  0.00     0.071 A 
HETATM    9  C6  UNL     1      24.364   2.935  49.238  1.00  0.00     0.066 A 
HETATM   10  C7  UNL     1      23.376   2.176  49.848  1.00  0.00     0.082 A 
HETATM   11  C8  UNL     1      23.718   1.647  51.085  1.00  0.00     0.087 A 
HETATM   12  N4  UNL     1      22.328   2.154  49.117  1.00  0.00    -0.284 NA
HETATM   13  C9  UNL     1      24.939   1.858  51.665  1.00  0.00     0.073 A 
HETATM   14  N2  UNL     1      22.770   0.961  51.510  1.00  0.00    -0.258 NA
HETATM   15  C10 UNL     1      25.926   2.617  51.056  1.00  0.00     0.097 A 
HETATM   16  C12 UNL     1      22.648   0.244  52.699  1.00  0.00     0.135 C 
HETATM   17  C13 UNL     1      22.048   0.009  53.865  1.00  0.00     0.040 C 
HETATM   18  C14 UNL     1      22.500  -1.050  54.745  1.00  0.00     0.096 C 
HETATM   19  C15 UNL     1      20.865   0.769  54.421  1.00  0.00     0.052 C 
HETATM   20  N3  UNL     1      22.862  -1.900  55.474  1.00  0.00    -0.192 NA
HETATM   21  C16 UNL     1      20.369   1.783  53.451  1.00  0.00     0.010 C 
HETATM   22  C17 UNL     1      19.767   1.223  52.187  1.00  0.00     0.034 C 
HETATM   23  C18 UNL     1      19.490   2.343  51.212  1.00  0.00    -0.086 C 
HETATM   24  C19 UNL     1      18.529   3.421  51.560  1.00  0.00     0.043 C 
HETATM   25  C20 UNL     1      20.097   2.381  50.033  1.00  0.00    -0.003 C 
HETATM   26  C21 UNL     1      21.090   1.489  49.374  1.00  0.00     0.177 C 
BRANCH  15  27
HETATM   27  O2  UNL     1      27.085   2.727  51.769  1.00  0.00    -0.354 OA
HETATM   28  C11 UNL     1      27.355   2.096  52.989  1.00  0.00     0.210 C 
ENDBRANCH  15  27
ENDBRANCH   6   8
ENDBRANCH   3   4
TORSDOF 3
ENDMDL
MODEL 4
REMARK VINA RESULT:      -7.7      2.967      3.929
REMARK  3 active torsions:
REMARK  status: ('A' for Active; 'I' for Inactive)
REMARK    1  A    between atoms: C3_3  and  C4_4 
REMARK       I    between atoms: C4_4  and  N1_6 
REMARK    2  A    between atoms: N1_6  and  C5_7 
REMARK    3  A    between atoms: C10_12  and  O2_13 
ROOT
HETATM    1  C1  UNL     1      13.506   3.330  50.084  1.00  0.00     0.112 C 
HETATM    2  C2  UNL     1      14.928   3.215  50.417  1.00  0.00    -0.101 C 
HETATM    3  C3  UNL     1      16.083   3.109  50.695  1.00  0.00    -0.006 C 
ENDROOT
BRANCH   3   4
HETATM    4  C4  UNL     1      17.474   2.968  51.028  1.00  0.00     0.301 C 
HETATM    5  O1  UNL     1      18.022   3.535  52.013  1.00  0.00    -0.258 OA
HETATM    6  N1  UNL     1      18.374   2.175  50.280  1.00  0.00    -0.314 N 
HETATM    7  H4  UNL     1      18.038   1.650  49.432  1.00  0.00     0.170 HD
BRANCH   6   8
HETATM    8  C5  UNL     1      19.681   2.219  50.835  1.00  0.00     0.071 A 
HETATM    9  C6  UNL     1      20.593   3.252  50.828  1.00  0.00     0.066 A 
HETATM   10  C7  UNL     1      21.846   3.162  51.419  1.00  0.00     0.082 A 
HETATM   11  C8  UNL     1      22.123   1.946  52.028  1.00  0.00     0.087 A 
HETATM   12  N4  UNL     1      22.492   4.250  51.243  1.00  0.00    -0.284 NA
HETATM   13  C9  UNL     1      21.232   0.909  52.045  1.00  0.00     0.073 A 
HETATM   14  N2  UNL     1      23.253   2.001  52.549  1.00  0.00    -0.258 NA
HETATM   15  C10 UNL     1      19.980   0.999  51.454  1.00  0.00     0.097 A 
HETATM   16  C12 UNL     1      23.957   1.031  53.261  1.00  0.00     0.135 C 
HETATM   17  C13 UNL     1      25.010   0.230  53.417  1.00  0.00     0.040 C 
HETATM   18  C14 UNL     1      25.121  -0.656  54.558  1.00  0.00     0.096 C 
HETATM   19  C15 UNL     1      26.189   0.128  52.477  1.00  0.00     0.052 C 
HETATM   20  N3  UNL     1      25.221  -1.388  55.474  1.00  0.00    -0.192 NA
HETATM   21  C16 UNL     1      26.087   1.118  51.370  1.00  0.00     0.010 C 
HETATM   22  C17 UNL     1      26.193   2.562  51.788  1.00  0.00     0.034 C 
HETATM   23  C18 UNL     1      25.877   3.459  50.614  1.00  0.00    -0.086 C 
HETATM   24  C19 UNL     1      26.724   3.428  49.395  1.00  0.00     0.043 C 
HETATM   25  C20 UNL     1      24.841   4.287  50.654  1.00  0.00    -0.003 C 
HETATM   26  C21 UNL     1      23.810   4.573  51.689  1.00  0.00     0.177 C 
BRANCH  15  27
HETATM   27  O2  UNL     1      19.213  -0.125  51.562  1.00  0.00    -0.354 OA
HETATM   28  C11 UNL     1      18.463  -0.495  52.685  1.00  0.00     0.210 C 
ENDBRANCH  15  27
ENDBRANCH   6   8
ENDBRANCH   3   4
TORSDOF 3
ENDMDL
MODEL 5
REMARK VINA RESULT:      -7.5      3.131      7.198
REMARK  3 active torsions:
REMARK  status: ('A' for Active; 'I' for Inactive)
REMARK    1  A    between atoms: C3_3  and  C4_4 
REMARK       I    between atoms: C4_4  and  N1_6 
REMARK    2  A    between atoms: N1_6  and  C5_7 
REMARK    3  A    between atoms: C10_12  and  O2_13 
ROOT
HETATM    1  C1  UNL     1      29.938  -0.862  53.814  1.00  0.00     0.112 C 
HETATM    2  C2  UNL     1      28.773  -0.147  53.288  1.00  0.00    -0.101 C 
HETATM    3  C3  UNL     1      27.829   0.432  52.847  1.00  0.00    -0.006 C 
ENDROOT
BRANCH   3   4
HETATM    4  C4  UNL     1      26.690   1.122  52.304  1.00  0.00     0.301 C 
HETATM    5  O1  UNL     1      25.634   0.545  51.925  1.00  0.00    -0.258 OA
HETATM    6  N1  UNL     1      26.639   2.525  52.140  1.00  0.00    -0.314 N 
HETATM    7  H4  UNL     1      27.460   3.121  52.419  1.00  0.00     0.170 HD
BRANCH   6   8
HETATM    8  C5  UNL     1      25.397   2.932  51.583  1.00  0.00     0.071 A 
HETATM    9  C6  UNL     1      24.151   2.966  52.170  1.00  0.00     0.066 A 
HETATM   10  C7  UNL     1      23.011   3.395  51.506  1.00  0.00     0.082 A 
HETATM   11  C8  UNL     1      23.210   3.797  50.192  1.00  0.00     0.087 A 
HETATM   12  N4  UNL     1      21.994   3.301  52.274  1.00  0.00    -0.284 NA
HETATM   13  C9  UNL     1      24.439   3.769  49.592  1.00  0.00     0.073 A 
HETATM   14  N2  UNL     1      22.129   4.191  49.718  1.00  0.00    -0.258 NA
HETATM   15  C10 UNL     1      25.578   3.339  50.255  1.00  0.00     0.097 A 
HETATM   16  C12 UNL     1      21.835   4.680  48.446  1.00  0.00     0.135 C 
HETATM   17  C13 UNL     1      21.181   4.605  47.288  1.00  0.00     0.040 C 
HETATM   18  C14 UNL     1      21.377   5.594  46.247  1.00  0.00     0.096 C 
HETATM   19  C15 UNL     1      20.186   3.535  46.902  1.00  0.00     0.052 C 
HETATM   20  N3  UNL     1      21.533   6.383  45.388  1.00  0.00    -0.192 NA
HETATM   21  C16 UNL     1      19.939   2.594  48.028  1.00  0.00     0.010 C 
HETATM   22  C17 UNL     1      19.247   3.193  49.227  1.00  0.00     0.034 C 
HETATM   23  C18 UNL     1      19.237   2.197  50.363  1.00  0.00    -0.086 C 
HETATM   24  C19 UNL     1      18.531   0.898  50.216  1.00  0.00     0.043 C 
HETATM   25  C20 UNL     1      19.855   2.466  51.505  1.00  0.00    -0.003 C 
HETATM   26  C21 UNL     1      20.637   3.638  51.984  1.00  0.00     0.177 C 
BRANCH  15  27
HETATM   27  O2  UNL     1      26.722   3.375  49.512  1.00  0.00    -0.354 OA
HETATM   28  C11 UNL     1      27.283   4.521  48.933  1.00  0.00     0.210 C 
ENDBRANCH  15  27
ENDBRANCH   6   8
ENDBRANCH   3   4
TORSDOF 3
ENDMDL
MODEL 6
REMARK VINA RESULT:      -7.4      2.573      6.762
REMARK  3 active torsions:
REMARK  status: ('A' for Active; 'I' for Inactive)
REMARK    1  A    between atoms: C3_3  and  C4_4 
REMARK       I    between atoms: C4_4  and  N1_6 
REMARK    2  A    between atoms: N1_6  and  C5_7 
REMARK    3  A    between atoms: C10_12  and  O2_13 
ROOT
HETATM    1  C1  UNL     1      30.580  -1.147  54.151  1.00  0.00     0.112 C 
HETATM    2  C2  UNL     1      29.267  -0.734  53.648  1.00  0.00    -0.101 C 
HETATM    3  C3  UNL     1      28.198  -0.409  53.231  1.00  0.00    -0.006 C 
ENDROOT
BRANCH   3   4
HETATM    4  C4  UNL     1      26.905  -0.032  52.729  1.00  0.00     0.301 C 
HETATM    5  O1  UNL     1      26.471  -0.356  51.590  1.00  0.00    -0.258 OA
HETATM    6  N1  UNL     1      25.984   0.746  53.466  1.00  0.00    -0.314 N 
HETATM    7  H4  UNL     1      26.228   1.082  54.434  1.00  0.00     0.170 HD
BRANCH   6   8
HETATM    8  C5  UNL     1      24.791   0.967  52.727  1.00  0.00     0.071 A 
HETATM    9  C6  UNL     1      24.604   1.708  51.580  1.00  0.00     0.066 A 
HETATM   10  C7  UNL     1      23.373   1.836  50.952  1.00  0.00     0.082 A 
HETATM   11  C8  UNL     1      22.327   1.158  51.562  1.00  0.00     0.087 A 
HETATM   12  N4  UNL     1      23.481   2.595  49.929  1.00  0.00    -0.284 NA
HETATM   13  C9  UNL     1      22.493   0.418  52.701  1.00  0.00     0.073 A 
HETATM   14  N2  UNL     1      21.291   1.319  50.891  1.00  0.00    -0.258 NA
HETATM   15  C10 UNL     1      23.722   0.291  53.329  1.00  0.00     0.097 A 
HETATM   16  C12 UNL     1      20.001   0.838  51.107  1.00  0.00     0.135 C 
HETATM   17  C13 UNL     1      18.703   1.035  51.331  1.00  0.00     0.040 C 
HETATM   18  C14 UNL     1      17.786  -0.077  51.478  1.00  0.00     0.096 C 
HETATM   19  C15 UNL     1      18.021   2.378  51.458  1.00  0.00     0.052 C 
HETATM   20  N3  UNL     1      17.031  -0.971  51.610  1.00  0.00    -0.192 NA
HETATM   21  C16 UNL     1      18.974   3.494  51.207  1.00  0.00     0.010 C 
HETATM   22  C17 UNL     1      19.500   3.585  49.797  1.00  0.00     0.034 C 
HETATM   23  C18 UNL     1      20.596   4.623  49.725  1.00  0.00    -0.086 C 
HETATM   24  C19 UNL     1      20.305   6.045  50.038  1.00  0.00     0.043 C 
HETATM   25  C20 UNL     1      21.830   4.281  49.382  1.00  0.00    -0.003 C 
HETATM   26  C21 UNL     1      22.458   2.983  49.010  1.00  0.00     0.177 C 
BRANCH  15  27
HETATM   27  O2  UNL     1      23.714  -0.483  54.453  1.00  0.00    -0.354 OA
HETATM   28  C11 UNL     1      22.623  -1.224  54.925  1.00  0.00     0.210 C 
ENDBRANCH  15  27
ENDBRANCH   6   8
ENDBRANCH   3   4
TORSDOF 3
ENDMDL
MODEL 7
REMARK VINA RESULT:      -7.4      3.608      5.141
REMARK  3 active torsions:
REMARK  status: ('A' for Active; 'I' for Inactive)
REMARK    1  A    between atoms: C3_3  and  C4_4 
REMARK       I    between atoms: C4_4  and  N1_6 
REMARK    2  A    between atoms: N1_6  and  C5_7 
REMARK    3  A    between atoms: C10_12  and  O2_13 
ROOT
HETATM    1  C1  UNL     1      12.325   5.106  49.648  1.00  0.00     0.112 C 
HETATM    2  C2  UNL     1      13.656   4.735  50.133  1.00  0.00    -0.101 C 
HETATM    3  C3  UNL     1      14.743   4.427  50.515  1.00  0.00    -0.006 C 
ENDROOT
BRANCH   3   4
HETATM    4  C4  UNL     1      16.058   4.058  50.963  1.00  0.00     0.301 C 
HETATM    5  O1  UNL     1      16.475   4.235  52.141  1.00  0.00    -0.258 OA
HETATM    6  N1  UNL     1      17.023   3.456  50.124  1.00  0.00    -0.314 N 
HETATM    7  H4  UNL     1      16.797   3.257  49.115  1.00  0.00     0.170 HD
BRANCH   6   8
HETATM    8  C5  UNL     1      18.230   3.202  50.829  1.00  0.00     0.071 A 
HETATM    9  C6  UNL     1      19.282   4.054  51.086  1.00  0.00     0.066 A 
HETATM   10  C7  UNL     1      20.410   3.673  51.799  1.00  0.00     0.082 A 
HETATM   11  C8  UNL     1      20.408   2.358  52.245  1.00  0.00     0.087 A 
HETATM   12  N4  UNL     1      21.234   4.646  51.868  1.00  0.00    -0.284 NA
HETATM   13  C9  UNL     1      19.374   1.497  51.999  1.00  0.00     0.073 A 
HETATM   14  N2  UNL     1      21.448   2.148  52.897  1.00  0.00    -0.258 NA
HETATM   15  C10 UNL     1      18.248   1.878  51.286  1.00  0.00     0.097 A 
HETATM   16  C12 UNL     1      21.887   0.987  53.531  1.00  0.00     0.135 C 
HETATM   17  C13 UNL     1      22.771   0.003  53.685  1.00  0.00     0.040 C 
HETATM   18  C14 UNL     1      22.583  -1.030  54.683  1.00  0.00     0.096 C 
HETATM   19  C15 UNL     1      24.042  -0.177  52.886  1.00  0.00     0.052 C 
HETATM   20  N3  UNL     1      22.439  -1.881  55.483  1.00  0.00    -0.192 NA
HETATM   21  C16 UNL     1      24.250   0.952  51.938  1.00  0.00     0.010 C 
HETATM   22  C17 UNL     1      24.517   2.289  52.581  1.00  0.00     0.034 C 
HETATM   23  C18 UNL     1      24.511   3.373  51.528  1.00  0.00    -0.086 C 
HETATM   24  C19 UNL     1      25.507   3.355  50.427  1.00  0.00     0.043 C 
HETATM   25  C20 UNL     1      23.620   4.354  51.572  1.00  0.00    -0.003 C 
HETATM   26  C21 UNL     1      22.510   4.676  52.510  1.00  0.00     0.177 C 
BRANCH  15  27
HETATM   27  O2  UNL     1      17.309   0.898  51.131  1.00  0.00    -0.354 OA
HETATM   28  C11 UNL     1      17.359  -0.136  50.188  1.00  0.00     0.210 C 
ENDBRANCH  15  27
ENDBRANCH   6   8
ENDBRANCH   3   4
TORSDOF 3
ENDMDL
MODEL 8
REMARK VINA RESULT:      -7.3      4.838      6.731
REMARK  3 active torsions:
REMARK  status: ('A' for Active; 'I' for Inactive)
REMARK    1  A    between atoms: C3_3  and  C4_4 
REMARK       I    between atoms: C4_4  and  N1_6 
REMARK    2  A    between atoms: N1_6  and  C5_7 
REMARK    3  A    between atoms: C10_12  and  O2_13 
ROOT
HETATM    1  C1  UNL     1      21.386  -0.162  52.853  1.00  0.00     0.112 C 
HETATM    2  C2  UNL     1      22.129   0.913  52.192  1.00  0.00    -0.101 C 
HETATM    3  C3  UNL     1      22.740   1.791  51.665  1.00  0.00    -0.006 C 
ENDROOT
BRANCH   3   4
HETATM    4  C4  UNL     1      23.489   2.846  51.037  1.00  0.00     0.301 C 
HETATM    5  O1  UNL     1      23.732   3.957  51.583  1.00  0.00    -0.258 OA
HETATM    6  N1  UNL     1      24.032   2.742  49.736  1.00  0.00    -0.314 N 
HETATM    7  H4  UNL     1      23.898   1.862  49.174  1.00  0.00     0.170 HD
BRANCH   6   8
HETATM    8  C5  UNL     1      24.721   3.930  49.371  1.00  0.00     0.071 A 
HETATM    9  C6  UNL     1      24.219   5.094  48.829  1.00  0.00     0.066 A 
HETATM   10  C7  UNL     1      25.010   6.191  48.523  1.00  0.00     0.082 A 
HETATM   11  C8  UNL     1      26.362   6.039  48.804  1.00  0.00     0.087 A 
HETATM   12  N4  UNL     1      24.295   7.119  48.013  1.00  0.00    -0.284 NA
HETATM   13  C9  UNL     1      26.878   4.893  49.341  1.00  0.00     0.073 A 
HETATM   14  N2  UNL     1      26.957   7.096  48.522  1.00  0.00    -0.258 NA
HETATM   15  C10 UNL     1      26.087   3.796  49.646  1.00  0.00     0.097 A 
HETATM   16  C12 UNL     1      28.309   7.416  48.628  1.00  0.00     0.135 C 
HETATM   17  C13 UNL     1      29.471   7.777  48.084  1.00  0.00     0.040 C 
HETATM   18  C14 UNL     1      30.658   7.960  48.894  1.00  0.00     0.096 C 
HETATM   19  C15 UNL     1      29.716   8.039  46.615  1.00  0.00     0.052 C 
HETATM   20  N3  UNL     1      31.632   8.104  49.538  1.00  0.00    -0.192 NA
HETATM   21  C16 UNL     1      28.456   7.934  45.828  1.00  0.00     0.010 C 
HETATM   22  C17 UNL     1      27.423   8.991  46.127  1.00  0.00     0.034 C 
HETATM   23  C18 UNL     1      26.131   8.658  45.417  1.00  0.00    -0.086 C 
HETATM   24  C19 UNL     1      26.085   8.591  43.935  1.00  0.00     0.043 C 
HETATM   25  C20 UNL     1      25.022   8.422  46.105  1.00  0.00    -0.003 C 
HETATM   26  C21 UNL     1      24.715   8.407  47.562  1.00  0.00     0.177 C 
BRANCH  15  27
HETATM   27  O2  UNL     1      26.761   2.733  50.176  1.00  0.00    -0.354 OA
HETATM   28  C11 UNL     1      26.937   2.479  51.542  1.00  0.00     0.210 C 
ENDBRANCH  15  27
ENDBRANCH   6   8
ENDBRANCH   3   4
TORSDOF 3
ENDMDL
MODEL 9
REMARK VINA RESULT:      -7.3      3.728      7.372
REMARK  3 active torsions:
REMARK  status: ('A' for Active; 'I' for Inactive)
REMARK    1  A    between atoms: C3_3  and  C4_4 
REMARK       I    between atoms: C4_4  and  N1_6 
REMARK    2  A    between atoms: N1_6  and  C5_7 
REMARK    3  A    between atoms: C10_12  and  O2_13 
ROOT
HETATM    1  C1  UNL     1      20.105  11.792  48.957  1.00  0.00     0.112 C 
HETATM    2  C2  UNL     1      20.537  10.409  49.176  1.00  0.00    -0.101 C 
HETATM    3  C3  UNL     1      20.875   9.280  49.355  1.00  0.00    -0.006 C 
ENDROOT
BRANCH   3   4
HETATM    4  C4  UNL     1      21.273   7.914  49.561  1.00  0.00     0.301 C 
HETATM    5  O1  UNL     1      20.634   7.097  50.280  1.00  0.00    -0.258 OA
HETATM    6  N1  UNL     1      22.426   7.345  48.975  1.00  0.00    -0.314 N 
HETATM    7  H4  UNL     1      23.045   7.925  48.353  1.00  0.00     0.170 HD
BRANCH   6   8
HETATM    8  C5  UNL     1      22.574   5.982  49.351  1.00  0.00     0.071 A 
HETATM    9  C6  UNL     1      21.876   4.879  48.910  1.00  0.00     0.066 A 
HETATM   10  C7  UNL     1      22.129   3.591  49.360  1.00  0.00     0.082 A 
HETATM   11  C8  UNL     1      23.149   3.485  50.296  1.00  0.00     0.087 A 
HETATM   12  N4  UNL     1      21.323   2.768  48.808  1.00  0.00    -0.284 NA
HETATM   13  C9  UNL     1      23.853   4.568  50.745  1.00  0.00     0.073 A 
HETATM   14  N2  UNL     1      23.305   2.286  50.593  1.00  0.00    -0.258 NA
HETATM   15  C10 UNL     1      23.599   5.855  50.296  1.00  0.00     0.097 A 
HETATM   16  C12 UNL     1      24.199   1.694  51.484  1.00  0.00     0.135 C 
HETATM   17  C13 UNL     1      24.457   0.975  52.575  1.00  0.00     0.040 C 
HETATM   18  C14 UNL     1      25.817   0.694  52.988  1.00  0.00     0.096 C 
HETATM   19  C15 UNL     1      23.426   0.373  53.502  1.00  0.00     0.052 C 
HETATM   20  N3  UNL     1      26.916   0.466  53.341  1.00  0.00    -0.192 NA
HETATM   21  C16 UNL     1      22.044   0.600  52.996  1.00  0.00     0.010 C 
HETATM   22  C17 UNL     1      21.707  -0.110  51.709  1.00  0.00     0.034 C 
HETATM   23  C18 UNL     1      20.361   0.358  51.205  1.00  0.00    -0.086 C 
HETATM   24  C19 UNL     1      19.136   0.132  52.013  1.00  0.00     0.043 C 
HETATM   25  C20 UNL     1      20.254   0.974  50.035  1.00  0.00    -0.003 C 
HETATM   26  C21 UNL     1      21.246   1.353  48.993  1.00  0.00     0.177 C 
BRANCH  15  27
HETATM   27  O2  UNL     1      24.392   6.820  50.845  1.00  0.00    -0.354 OA
HETATM   28  C11 UNL     1      25.606   7.277  50.316  1.00  0.00     0.210 C 
ENDBRANCH  15  27
ENDBRANCH   6   8
ENDBRANCH   3   4
TORSDOF 3
ENDMDL
