MODEL 1
REMARK VINA RESULT:      -8.9      0.000      0.000
REMARK  5 active torsions:
REMARK  status: ('A' for Active; 'I' for Inactive)
REMARK    1  A    between atoms: C1_2  and  O2_3 
REMARK    2  A    between atoms: C1_2  and  C2_4 
REMARK    3  A    between atoms: C2_4  and  C3_5 
REMARK    4  A    between atoms: C3_5  and  C4_6 
REMARK    5  A    between atoms: C9_12  and  C10_13 
ROOT
HETATM    1  C4  UNL     1      24.621   2.520  51.143  1.00  0.00    -0.001 C 
HETATM    2  C5  UNL     1      23.609   1.764  51.534  1.00  0.00     0.009 C 
HETATM    3  N1  UNL     1      22.510   1.579  50.685  1.00  0.00    -0.393 N 
HETATM    4  C6  UNL     1      21.385   0.848  51.182  1.00  0.00     0.119 C 
HETATM    5  C7  UNL     1      21.928  -0.236  52.117  1.00  0.00     0.021 C 
HETATM    6  C8  UNL     1      22.511   0.511  53.297  1.00  0.00     0.016 C 
HETATM    7  C9  UNL     1      23.782   1.183  52.885  1.00  0.00     0.058 C 
HETATM    8  H7  UNL     1      22.431   1.929  49.709  1.00  0.00     0.159 HD
ENDROOT
BRANCH   7   9
HETATM    9  C10 UNL     1      24.925   0.244  52.875  1.00  0.00     0.002 C 
HETATM   10  C11 UNL     1      26.153   0.370  53.345  1.00  0.00     0.041 A 
HETATM   11  C12 UNL     1      26.699   1.533  54.024  1.00  0.00     0.256 A 
HETATM   12  C18 UNL     1      27.130  -0.703  53.222  1.00  0.00     0.006 A 
HETATM   13  O3  UNL     1      26.157   2.632  54.305  1.00  0.00    -0.267 OA
HETATM   14  N2  UNL     1      28.048   1.146  54.317  1.00  0.00    -0.322 N 
HETATM   15  C13 UNL     1      28.273  -0.174  53.834  1.00  0.00     0.046 A 
HETATM   16  H16 UNL     1      28.756   1.736  54.807  1.00  0.00     0.169 HD
HETATM   17  C14 UNL     1      29.419  -0.941  53.897  1.00  0.00     0.030 A 
HETATM   18  C15 UNL     1      29.390  -2.216  53.347  1.00  0.00     0.002 A 
HETATM   19  C16 UNL     1      28.285  -2.774  52.736  1.00  0.00     0.001 A 
HETATM   20  C17 UNL     1      27.137  -1.975  52.685  1.00  0.00     0.014 A 
ENDBRANCH   7   9
BRANCH   1  21
HETATM   21  C3  UNL     1      24.876   3.285  49.898  1.00  0.00     0.039 C 
BRANCH  21  22
HETATM   22  C2  UNL     1      26.292   3.080  49.396  1.00  0.00     0.113 C 
BRANCH  22  23
HETATM   23  C1  UNL     1      26.978   4.385  49.304  1.00  0.00     0.139 C 
HETATM   24  O1  UNL     1      27.977   4.699  48.616  1.00  0.00    -0.650 OA
BRANCH  23  25
HETATM   25  O2  UNL     1      26.478   5.438  50.070  1.00  0.00    -0.776 OA
HETATM   26  H1  UNL     1      25.790   6.092  49.710  1.00  0.00     0.167 HD
ENDBRANCH  23  25
ENDBRANCH  22  23
ENDBRANCH  21  22
ENDBRANCH   1  21
TORSDOF 5
ENDMDL
MODEL 2
REMARK VINA RESULT:      -8.1      1.253      1.605
REMARK  5 active torsions:
REMARK  status: ('A' for Active; 'I' for Inactive)
REMARK    1  A    between atoms: C1_2  and  O2_3 
REMARK    2  A    between atoms: C1_2  and  C2_4 
REMARK    3  A    between atoms: C2_4  and  C3_5 
REMARK    4  A    between atoms: C3_5  and  C4_6 
REMARK    5  A    between atoms: C9_12  and  C10_13 
ROOT
HETATM    1  C4  UNL     1      23.935   3.296  50.187  1.00  0.00    -0.001 C 
HETATM    2  C5  UNL     1      22.945   2.434  50.347  1.00  0.00     0.009 C 
HETATM    3  N1  UNL     1      22.111   2.124  49.263  1.00  0.00    -0.393 N 
HETATM    4  C6  UNL     1      20.984   1.275  49.496  1.00  0.00     0.119 C 
HETATM    5  C7  UNL     1      21.395   0.263  50.570  1.00  0.00     0.021 C 
HETATM    6  C8  UNL     1      21.590   1.076  51.831  1.00  0.00     0.016 C 
HETATM    7  C9  UNL     1      22.843   1.883  51.717  1.00  0.00     0.058 C 
HETATM    8  H7  UNL     1      22.236   2.458  48.287  1.00  0.00     0.159 HD
ENDROOT
BRANCH   7   9
HETATM    9  C10 UNL     1      24.047   1.077  52.013  1.00  0.00     0.002 C 
HETATM   10  C11 UNL     1      25.102   1.340  52.764  1.00  0.00     0.041 A 
HETATM   11  C12 UNL     1      25.339   2.560  53.518  1.00  0.00     0.256 A 
HETATM   12  C18 UNL     1      26.189   0.382  52.914  1.00  0.00     0.006 A 
HETATM   13  O3  UNL     1      24.630   3.592  53.626  1.00  0.00    -0.267 OA
HETATM   14  N2  UNL     1      26.608   2.325  54.142  1.00  0.00    -0.322 N 
HETATM   15  C13 UNL     1      27.084   1.038  53.769  1.00  0.00     0.046 A 
HETATM   16  H16 UNL     1      27.107   2.992  54.771  1.00  0.00     0.169 HD
HETATM   17  C14 UNL     1      28.255   0.403  54.132  1.00  0.00     0.030 A 
HETATM   18  C15 UNL     1      28.499  -0.870  53.631  1.00  0.00     0.002 A 
HETATM   19  C16 UNL     1      27.643  -1.549  52.788  1.00  0.00     0.001 A 
HETATM   20  C17 UNL     1      26.464  -0.883  52.435  1.00  0.00     0.014 A 
ENDBRANCH   7   9
BRANCH   1  21
HETATM   21  C3  UNL     1      24.402   4.078  49.017  1.00  0.00     0.039 C 
BRANCH  21  22
HETATM   22  C2  UNL     1      25.327   5.206  49.432  1.00  0.00     0.113 C 
BRANCH  22  23
HETATM   23  C1  UNL     1      26.731   4.795  49.230  1.00  0.00     0.139 C 
HETATM   24  O1  UNL     1      27.525   5.135  48.322  1.00  0.00    -0.650 OA
BRANCH  23  25
HETATM   25  O2  UNL     1      27.289   3.911  50.153  1.00  0.00    -0.776 OA
HETATM   26  H1  UNL     1      27.497   4.184  51.109  1.00  0.00     0.167 HD
ENDBRANCH  23  25
ENDBRANCH  22  23
ENDBRANCH  21  22
ENDBRANCH   1  21
TORSDOF 5
ENDMDL
MODEL 3
REMARK VINA RESULT:      -7.8      2.718      6.291
REMARK  5 active torsions:
REMARK  status: ('A' for Active; 'I' for Inactive)
REMARK    1  A    between atoms: C1_2  and  O2_3 
REMARK    2  A    between atoms: C1_2  and  C2_4 
REMARK    3  A    between atoms: C2_4  and  C3_5 
REMARK    4  A    between atoms: C3_5  and  C4_6 
REMARK    5  A    between atoms: C9_12  and  C10_13 
ROOT
HETATM    1  C4  UNL     1      25.582   1.958  52.614  1.00  0.00    -0.001 C 
HETATM    2  C5  UNL     1      24.343   1.674  52.252  1.00  0.00     0.009 C 
HETATM    3  N1  UNL     1      23.488   1.018  53.149  1.00  0.00    -0.393 N 
HETATM    4  C6  UNL     1      22.192   0.627  52.688  1.00  0.00     0.119 C 
HETATM    5  C7  UNL     1      21.725   1.695  51.695  1.00  0.00     0.021 C 
HETATM    6  C8  UNL     1      22.657   1.574  50.511  1.00  0.00     0.016 C 
HETATM    7  C9  UNL     1      24.005   2.109  50.878  1.00  0.00     0.058 C 
HETATM    8  H7  UNL     1      23.711   0.785  54.137  1.00  0.00     0.159 HD
ENDROOT
BRANCH   7   9
HETATM    9  C10 UNL     1      24.052   3.585  50.803  1.00  0.00     0.002 C 
HETATM   10  C11 UNL     1      24.957   4.398  50.288  1.00  0.00     0.041 A 
HETATM   11  C12 UNL     1      26.194   4.004  49.634  1.00  0.00     0.256 A 
HETATM   12  C18 UNL     1      24.793   5.844  50.328  1.00  0.00     0.006 A 
HETATM   13  O3  UNL     1      26.663   2.858  49.419  1.00  0.00    -0.267 OA
HETATM   14  N2  UNL     1      26.792   5.255  49.270  1.00  0.00    -0.322 N 
HETATM   15  C13 UNL     1      25.946   6.319  49.691  1.00  0.00     0.046 A 
HETATM   16  H16 UNL     1      27.703   5.370  48.775  1.00  0.00     0.169 HD
HETATM   17  C14 UNL     1      26.125   7.682  49.550  1.00  0.00     0.030 A 
HETATM   18  C15 UNL     1      25.145   8.530  50.050  1.00  0.00     0.002 A 
HETATM   19  C16 UNL     1      23.996   8.102  50.683  1.00  0.00     0.001 A 
HETATM   20  C17 UNL     1      23.841   6.717  50.813  1.00  0.00     0.014 A 
ENDBRANCH   7   9
BRANCH   1  21
HETATM   21  C3  UNL     1      26.339   1.716  53.866  1.00  0.00     0.039 C 
BRANCH  21  22
HETATM   22  C2  UNL     1      27.713   1.138  53.586  1.00  0.00     0.113 C 
BRANCH  22  23
HETATM   23  C1  UNL     1      28.746   2.154  53.869  1.00  0.00     0.139 C 
HETATM   24  O1  UNL     1      29.435   2.306  54.904  1.00  0.00    -0.650 OA
BRANCH  23  25
HETATM   25  O2  UNL     1      29.023   3.093  52.875  1.00  0.00    -0.776 OA
HETATM   26  H1  UNL     1      29.219   2.825  51.915  1.00  0.00     0.167 HD
ENDBRANCH  23  25
ENDBRANCH  22  23
ENDBRANCH  21  22
ENDBRANCH   1  21
TORSDOF 5
ENDMDL
MODEL 4
REMARK VINA RESULT:      -7.7      3.139      6.681
REMARK  5 active torsions:
REMARK  status: ('A' for Active; 'I' for Inactive)
REMARK    1  A    between atoms: C1_2  and  O2_3 
REMARK    2  A    between atoms: C1_2  and  C2_4 
REMARK    3  A    between atoms: C2_4  and  C3_5 
REMARK    4  A    between atoms: C3_5  and  C4_6 
REMARK    5  A    between atoms: C9_12  and  C10_13 
ROOT
HETATM    1  C4  UNL     1      24.858  -0.391  52.869  1.00  0.00    -0.001 C 
HETATM    2  C5  UNL     1      23.611  -0.408  53.311  1.00  0.00     0.009 C 
HETATM    3  N1  UNL     1      23.336  -0.890  54.598  1.00  0.00    -0.393 N 
HETATM    4  C6  UNL     1      21.969  -0.998  55.004  1.00  0.00     0.119 C 
HETATM    5  C7  UNL     1      21.211   0.161  54.350  1.00  0.00     0.021 C 
HETATM    6  C8  UNL     1      21.244  -0.128  52.866  1.00  0.00     0.016 C 
HETATM    7  C9  UNL     1      22.623   0.112  52.339  1.00  0.00     0.058 C 
HETATM    8  H7  UNL     1      24.045  -1.182  55.301  1.00  0.00     0.159 HD
ENDROOT
BRANCH   7   9
HETATM    9  C10 UNL     1      22.880   1.548  52.097  1.00  0.00     0.002 C 
HETATM   10  C11 UNL     1      22.643   2.304  51.040  1.00  0.00     0.041 A 
HETATM   11  C12 UNL     1      22.038   1.871  49.791  1.00  0.00     0.256 A 
HETATM   12  C18 UNL     1      22.984   3.720  51.023  1.00  0.00     0.006 A 
HETATM   13  O3  UNL     1      21.622   0.735  49.447  1.00  0.00    -0.267 OA
HETATM   14  N2  UNL     1      22.016   3.065  48.999  1.00  0.00    -0.322 N 
HETATM   15  C13 UNL     1      22.578   4.136  49.749  1.00  0.00     0.046 A 
HETATM   16  H16 UNL     1      21.647   3.141  48.026  1.00  0.00     0.169 HD
HETATM   17  C14 UNL     1      22.757   5.456  49.383  1.00  0.00     0.030 A 
HETATM   18  C15 UNL     1      23.337   6.322  50.302  1.00  0.00     0.002 A 
HETATM   19  C16 UNL     1      23.749   5.951  51.566  1.00  0.00     0.001 A 
HETATM   20  C17 UNL     1      23.557   4.608  51.910  1.00  0.00     0.014 A 
ENDBRANCH   7   9
BRANCH   1  21
HETATM   21  C3  UNL     1      26.142  -0.806  53.482  1.00  0.00     0.039 C 
BRANCH  21  22
HETATM   22  C2  UNL     1      26.885  -1.797  52.607  1.00  0.00     0.113 C 
BRANCH  22  23
HETATM   23  C1  UNL     1      28.177  -2.142  53.235  1.00  0.00     0.139 C 
HETATM   24  O1  UNL     1      29.019  -1.383  53.767  1.00  0.00    -0.650 OA
BRANCH  23  25
HETATM   25  O2  UNL     1      28.548  -3.487  53.260  1.00  0.00    -0.776 OA
HETATM   26  H1  UNL     1      29.225  -3.875  52.611  1.00  0.00     0.167 HD
ENDBRANCH  23  25
ENDBRANCH  22  23
ENDBRANCH  21  22
ENDBRANCH   1  21
TORSDOF 5
ENDMDL
MODEL 5
REMARK VINA RESULT:      -7.5      6.976      9.962
REMARK  5 active torsions:
REMARK  status: ('A' for Active; 'I' for Inactive)
REMARK    1  A    between atoms: C1_2  and  O2_3 
REMARK    2  A    between atoms: C1_2  and  C2_4 
REMARK    3  A    between atoms: C2_4  and  C3_5 
REMARK    4  A    between atoms: C3_5  and  C4_6 
REMARK    5  A    between atoms: C9_12  and  C10_13 
ROOT
HETATM    1  C4  UNL     1      28.683   6.297  47.894  1.00  0.00    -0.001 C 
HETATM    2  C5  UNL     1      29.373   7.400  48.129  1.00  0.00     0.009 C 
HETATM    3  N1  UNL     1      29.082   8.175  49.260  1.00  0.00    -0.393 N 
HETATM    4  C6  UNL     1      29.770   9.418  49.427  1.00  0.00     0.119 C 
HETATM    5  C7  UNL     1      31.182   9.231  48.865  1.00  0.00     0.021 C 
HETATM    6  C8  UNL     1      30.997   9.037  47.376  1.00  0.00     0.016 C 
HETATM    7  C9  UNL     1      30.414   7.684  47.116  1.00  0.00     0.058 C 
HETATM    8  H7  UNL     1      28.401   7.927  50.006  1.00  0.00     0.159 HD
ENDROOT
BRANCH   7   9
HETATM    9  C10 UNL     1      31.444   6.624  47.157  1.00  0.00     0.002 C 
HETATM   10  C11 UNL     1      32.271   6.183  46.226  1.00  0.00     0.041 A 
HETATM   11  C12 UNL     1      32.366   6.669  44.860  1.00  0.00     0.256 A 
HETATM   12  C18 UNL     1      33.218   5.109  46.494  1.00  0.00     0.006 A 
HETATM   13  O3  UNL     1      31.716   7.576  44.279  1.00  0.00    -0.267 OA
HETATM   14  N2  UNL     1      33.404   5.862  44.290  1.00  0.00    -0.322 N 
HETATM   15  C13 UNL     1      33.886   4.953  45.273  1.00  0.00     0.046 A 
HETATM   16  H16 UNL     1      33.752   5.926  43.308  1.00  0.00     0.169 HD
HETATM   17  C14 UNL     1      34.875   3.996  45.164  1.00  0.00     0.030 A 
HETATM   18  C15 UNL     1      35.170   3.222  46.280  1.00  0.00     0.002 A 
HETATM   19  C16 UNL     1      34.536   3.345  47.500  1.00  0.00     0.001 A 
HETATM   20  C17 UNL     1      33.537   4.322  47.582  1.00  0.00     0.014 A 
ENDBRANCH   7   9
BRANCH   1  21
HETATM   21  C3  UNL     1      27.572   5.638  48.621  1.00  0.00     0.039 C 
BRANCH  21  22
HETATM   22  C2  UNL     1      26.293   6.449  48.543  1.00  0.00     0.113 C 
BRANCH  22  23
HETATM   23  C1  UNL     1      25.826   6.771  49.906  1.00  0.00     0.139 C 
HETATM   24  O1  UNL     1      24.894   6.247  50.560  1.00  0.00    -0.650 OA
BRANCH  23  25
HETATM   25  O2  UNL     1      26.484   7.790  50.596  1.00  0.00    -0.776 OA
HETATM   26  H1  UNL     1      27.453   8.030  50.413  1.00  0.00     0.167 HD
ENDBRANCH  23  25
ENDBRANCH  22  23
ENDBRANCH  21  22
ENDBRANCH   1  21
TORSDOF 5
ENDMDL
MODEL 6
REMARK VINA RESULT:      -7.2      4.994      8.742
REMARK  5 active torsions:
REMARK  status: ('A' for Active; 'I' for Inactive)
REMARK    1  A    between atoms: C1_2  and  O2_3 
REMARK    2  A    between atoms: C1_2  and  C2_4 
REMARK    3  A    between atoms: C2_4  and  C3_5 
REMARK    4  A    between atoms: C3_5  and  C4_6 
REMARK    5  A    between atoms: C9_12  and  C10_13 
ROOT
HETATM    1  C4  UNL     1      30.518   8.344  48.901  1.00  0.00    -0.001 C 
HETATM    2  C5  UNL     1      29.961   8.505  47.713  1.00  0.00     0.009 C 
HETATM    3  N1  UNL     1      30.770   8.603  46.572  1.00  0.00    -0.393 N 
HETATM    4  C6  UNL     1      30.143   8.888  45.318  1.00  0.00     0.119 C 
HETATM    5  C7  UNL     1      28.774   8.203  45.333  1.00  0.00     0.021 C 
HETATM    6  C8  UNL     1      27.974   8.932  46.389  1.00  0.00     0.016 C 
HETATM    7  C9  UNL     1      28.482   8.562  47.746  1.00  0.00     0.058 C 
HETATM    8  H7  UNL     1      31.803   8.486  46.550  1.00  0.00     0.159 HD
ENDROOT
BRANCH   7   9
HETATM    9  C10 UNL     1      27.949   7.258  48.198  1.00  0.00     0.002 C 
HETATM   10  C11 UNL     1      26.880   6.962  48.916  1.00  0.00     0.041 A 
HETATM   11  C12 UNL     1      25.922   7.907  49.462  1.00  0.00     0.256 A 
HETATM   12  C18 UNL     1      26.543   5.584  49.247  1.00  0.00     0.006 A 
HETATM   13  O3  UNL     1      25.889   9.162  49.381  1.00  0.00    -0.267 OA
HETATM   14  N2  UNL     1      24.978   7.070  50.143  1.00  0.00    -0.322 N 
HETATM   15  C13 UNL     1      25.369   5.710  50.000  1.00  0.00     0.046 A 
HETATM   16  H16 UNL     1      24.136   7.403  50.663  1.00  0.00     0.169 HD
HETATM   17  C14 UNL     1      24.758   4.572  50.490  1.00  0.00     0.030 A 
HETATM   18  C15 UNL     1      25.339   3.340  50.212  1.00  0.00     0.002 A 
HETATM   19  C16 UNL     1      26.494   3.175  49.475  1.00  0.00     0.001 A 
HETATM   20  C17 UNL     1      27.092   4.344  48.992  1.00  0.00     0.014 A 
ENDBRANCH   7   9
BRANCH   1  21
HETATM   21  C3  UNL     1      31.931   8.235  49.337  1.00  0.00     0.039 C 
BRANCH  21  22
HETATM   22  C2  UNL     1      32.528   6.890  48.971  1.00  0.00     0.113 C 
BRANCH  22  23
HETATM   23  C1  UNL     1      31.610   5.810  49.387  1.00  0.00     0.139 C 
HETATM   24  O1  UNL     1      30.873   5.090  48.676  1.00  0.00    -0.650 OA
BRANCH  23  25
HETATM   25  O2  UNL     1      31.524   5.521  50.749  1.00  0.00    -0.776 OA
HETATM   26  H1  UNL     1      32.342   5.490  51.350  1.00  0.00     0.167 HD
ENDBRANCH  23  25
ENDBRANCH  22  23
ENDBRANCH  21  22
ENDBRANCH   1  21
TORSDOF 5
ENDMDL
MODEL 7
REMARK VINA RESULT:      -7.1      3.013      6.666
REMARK  5 active torsions:
REMARK  status: ('A' for Active; 'I' for Inactive)
REMARK    1  A    between atoms: C1_2  and  O2_3 
REMARK    2  A    between atoms: C1_2  and  C2_4 
REMARK    3  A    between atoms: C2_4  and  C3_5 
REMARK    4  A    between atoms: C3_5  and  C4_6 
REMARK    5  A    between atoms: C9_12  and  C10_13 
ROOT
HETATM    1  C4  UNL     1      24.395   0.540  52.793  1.00  0.00    -0.001 C 
HETATM    2  C5  UNL     1      23.161   0.205  53.129  1.00  0.00     0.009 C 
HETATM    3  N1  UNL     1      22.905  -0.320  54.403  1.00  0.00    -0.393 N 
HETATM    4  C6  UNL     1      21.581  -0.775  54.695  1.00  0.00     0.119 C 
HETATM    5  C7  UNL     1      20.612   0.142  53.944  1.00  0.00     0.021 C 
HETATM    6  C8  UNL     1      20.851  -0.141  52.477  1.00  0.00     0.016 C 
HETATM    7  C9  UNL     1      22.164   0.442  52.061  1.00  0.00     0.058 C 
HETATM    8  H7  UNL     1      23.599  -0.412  55.171  1.00  0.00     0.159 HD
ENDROOT
BRANCH   7   9
HETATM    9  C10 UNL     1      22.062   1.894  51.796  1.00  0.00     0.002 C 
HETATM   10  C11 UNL     1      21.788   2.554  50.685  1.00  0.00     0.041 A 
HETATM   11  C12 UNL     1      21.506   1.969  49.385  1.00  0.00     0.256 A 
HETATM   12  C18 UNL     1      21.741   4.009  50.654  1.00  0.00     0.006 A 
HETATM   13  O3  UNL     1      21.459   0.762  49.035  1.00  0.00    -0.267 OA
HETATM   14  N2  UNL     1      21.282   3.111  48.547  1.00  0.00    -0.322 N 
HETATM   15  C13 UNL     1      21.427   4.296  49.320  1.00  0.00     0.046 A 
HETATM   16  H16 UNL     1      21.050   3.081  47.530  1.00  0.00     0.169 HD
HETATM   17  C14 UNL     1      21.301   5.614  48.927  1.00  0.00     0.030 A 
HETATM   18  C15 UNL     1      21.492   6.608  49.879  1.00  0.00     0.002 A 
HETATM   19  C16 UNL     1      21.802   6.366  51.202  1.00  0.00     0.001 A 
HETATM   20  C17 UNL     1      21.924   5.023  51.573  1.00  0.00     0.014 A 
ENDBRANCH   7   9
BRANCH   1  21
HETATM   21  C3  UNL     1      25.684   0.478  53.525  1.00  0.00     0.039 C 
BRANCH  21  22
HETATM   22  C2  UNL     1      26.864   0.692  52.598  1.00  0.00     0.113 C 
BRANCH  22  23
HETATM   23  C1  UNL     1      27.472   2.011  52.865  1.00  0.00     0.139 C 
HETATM   24  O1  UNL     1      27.927   2.462  53.942  1.00  0.00    -0.650 OA
BRANCH  23  25
HETATM   25  O2  UNL     1      27.573   2.908  51.801  1.00  0.00    -0.776 OA
HETATM   26  H1  UNL     1      28.334   3.577  51.726  1.00  0.00     0.167 HD
ENDBRANCH  23  25
ENDBRANCH  22  23
ENDBRANCH  21  22
ENDBRANCH   1  21
TORSDOF 5
ENDMDL
MODEL 8
REMARK VINA RESULT:      -6.9      8.324     10.188
REMARK  5 active torsions:
REMARK  status: ('A' for Active; 'I' for Inactive)
REMARK    1  A    between atoms: C1_2  and  O2_3 
REMARK    2  A    between atoms: C1_2  and  C2_4 
REMARK    3  A    between atoms: C2_4  and  C3_5 
REMARK    4  A    between atoms: C3_5  and  C4_6 
REMARK    5  A    between atoms: C9_12  and  C10_13 
ROOT
HETATM    1  C4  UNL     1      30.970   9.790  48.104  1.00  0.00    -0.001 C 
HETATM    2  C5  UNL     1      29.875   9.088  47.869  1.00  0.00     0.009 C 
HETATM    3  N1  UNL     1      28.735   9.726  47.361  1.00  0.00    -0.393 N 
HETATM    4  C6  UNL     1      27.534   8.962  47.223  1.00  0.00     0.119 C 
HETATM    5  C7  UNL     1      27.948   7.536  46.849  1.00  0.00     0.021 C 
HETATM    6  C8  UNL     1      28.664   6.996  48.067  1.00  0.00     0.016 C 
HETATM    7  C9  UNL     1      30.004   7.649  48.190  1.00  0.00     0.058 C 
HETATM    8  H7  UNL     1      28.678  10.723  47.068  1.00  0.00     0.159 HD
ENDROOT
BRANCH   7   9
HETATM    9  C10 UNL     1      31.003   7.032  47.290  1.00  0.00     0.002 C 
HETATM   10  C11 UNL     1      31.883   6.070  47.504  1.00  0.00     0.041 A 
HETATM   11  C12 UNL     1      32.086   5.351  48.750  1.00  0.00     0.256 A 
HETATM   12  C18 UNL     1      32.784   5.614  46.454  1.00  0.00     0.006 A 
HETATM   13  O3  UNL     1      31.500   5.472  49.856  1.00  0.00    -0.267 OA
HETATM   14  N2  UNL     1      33.142   4.433  48.438  1.00  0.00    -0.322 N 
HETATM   15  C13 UNL     1      33.532   4.611  47.081  1.00  0.00     0.046 A 
HETATM   16  H16 UNL     1      33.561   3.743  49.099  1.00  0.00     0.169 HD
HETATM   17  C14 UNL     1      34.505   3.947  46.360  1.00  0.00     0.030 A 
HETATM   18  C15 UNL     1      34.702   4.304  45.032  1.00  0.00     0.002 A 
HETATM   19  C16 UNL     1      33.985   5.286  44.378  1.00  0.00     0.001 A 
HETATM   20  C17 UNL     1      33.006   5.943  45.132  1.00  0.00     0.014 A 
ENDBRANCH   7   9
BRANCH   1  21
HETATM   21  C3  UNL     1      31.292  11.228  47.937  1.00  0.00     0.039 C 
BRANCH  21  22
HETATM   22  C2  UNL     1      30.779  12.055  49.100  1.00  0.00     0.113 C 
BRANCH  22  23
HETATM   23  C1  UNL     1      29.471  12.645  48.750  1.00  0.00     0.139 C 
HETATM   24  O1  UNL     1      29.004  12.900  47.616  1.00  0.00    -0.650 OA
BRANCH  23  25
HETATM   25  O2  UNL     1      28.607  12.977  49.794  1.00  0.00    -0.776 OA
HETATM   26  H1  UNL     1      28.935  13.412  50.652  1.00  0.00     0.167 HD
ENDBRANCH  23  25
ENDBRANCH  22  23
ENDBRANCH  21  22
ENDBRANCH   1  21
TORSDOF 5
ENDMDL
MODEL 9
REMARK VINA RESULT:      -6.9      7.677     10.485
REMARK  5 active torsions:
REMARK  status: ('A' for Active; 'I' for Inactive)
REMARK    1  A    between atoms: C1_2  and  O2_3 
REMARK    2  A    between atoms: C1_2  and  C2_4 
REMARK    3  A    between atoms: C2_4  and  C3_5 
REMARK    4  A    between atoms: C3_5  and  C4_6 
REMARK    5  A    between atoms: C9_12  and  C10_13 
ROOT
HETATM    1  C4  UNL     1      32.050   4.775  47.184  1.00  0.00    -0.001 C 
HETATM    2  C5  UNL     1      32.142   5.851  46.421  1.00  0.00     0.009 C 
HETATM    3  N1  UNL     1      32.563   5.726  45.090  1.00  0.00    -0.393 N 
HETATM    4  C6  UNL     1      32.758   6.919  44.325  1.00  0.00     0.119 C 
HETATM    5  C7  UNL     1      31.710   7.931  44.793  1.00  0.00     0.021 C 
HETATM    6  C8  UNL     1      32.087   8.267  46.219  1.00  0.00     0.016 C 
HETATM    7  C9  UNL     1      31.768   7.108  47.108  1.00  0.00     0.058 C 
HETATM    8  H7  UNL     1      32.751   4.831  44.595  1.00  0.00     0.159 HD
ENDROOT
BRANCH   7   9
HETATM    9  C10 UNL     1      30.333   7.065  47.465  1.00  0.00     0.002 C 
HETATM   10  C11 UNL     1      29.635   7.779  48.331  1.00  0.00     0.041 A 
HETATM   11  C12 UNL     1      30.148   8.837  49.185  1.00  0.00     0.256 A 
HETATM   12  C18 UNL     1      28.208   7.562  48.521  1.00  0.00     0.006 A 
HETATM   13  O3  UNL     1      31.314   9.294  49.292  1.00  0.00    -0.267 OA
HETATM   14  N2  UNL     1      28.991   9.269  49.912  1.00  0.00    -0.322 N 
HETATM   15  C13 UNL     1      27.865   8.501  49.502  1.00  0.00     0.046 A 
HETATM   16  H16 UNL     1      28.973  10.026  50.631  1.00  0.00     0.169 HD
HETATM   17  C14 UNL     1      26.555   8.575  49.935  1.00  0.00     0.030 A 
HETATM   18  C15 UNL     1      25.626   7.708  49.375  1.00  0.00     0.002 A 
HETATM   19  C16 UNL     1      25.923   6.769  48.407  1.00  0.00     0.001 A 
HETATM   20  C17 UNL     1      27.257   6.716  47.987  1.00  0.00     0.014 A 
ENDBRANCH   7   9
BRANCH   1  21
HETATM   21  C3  UNL     1      32.317   3.340  46.927  1.00  0.00     0.039 C 
BRANCH  21  22
HETATM   22  C2  UNL     1      33.226   2.742  47.984  1.00  0.00     0.113 C 
BRANCH  22  23
HETATM   23  C1  UNL     1      34.591   3.284  47.828  1.00  0.00     0.139 C 
HETATM   24  O1  UNL     1      35.384   3.150  46.868  1.00  0.00    -0.650 OA
BRANCH  23  25
HETATM   25  O2  UNL     1      35.106   4.056  48.870  1.00  0.00    -0.776 OA
HETATM   26  H1  UNL     1      34.975   3.807  49.846  1.00  0.00     0.167 HD
ENDBRANCH  23  25
ENDBRANCH  22  23
ENDBRANCH  21  22
ENDBRANCH   1  21
TORSDOF 5
ENDMDL
