MODEL 1
REMARK VINA RESULT:      -7.1      0.000      0.000
REMARK  6 active torsions:
REMARK  status: ('A' for Active; 'I' for Inactive)
REMARK    1  A    between atoms: N1_2  and  C2_3 
REMARK    2  A    between atoms: C10_13  and  C11_14 
REMARK    3  A    between atoms: C11_14  and  C12_15 
REMARK    4  A    between atoms: C13_16  and  P1_17 
REMARK    5  A    between atoms: P1_17  and  O1_18 
REMARK    6  A    between atoms: C15_20  and  O2_21 
ROOT
HETATM    1  C11 UNL     1      23.058   2.415  52.414  1.00  0.00     0.080 C 
ENDROOT
BRANCH   1   2
HETATM    2  C10 UNL     1      22.464   2.557  51.108  1.00  0.00    -0.044 A 
HETATM    3  C9  UNL     1      22.254   1.312  50.454  1.00  0.00     0.008 A 
HETATM    4  C8  UNL     1      21.711   1.042  49.215  1.00  0.00     0.002 A 
HETATM    5  C7  UNL     1      21.296   2.118  48.466  1.00  0.00     0.013 A 
HETATM    6  C6  UNL     1      21.464   3.365  49.023  1.00  0.00    -0.010 A 
HETATM    7  C5  UNL     1      20.909   4.350  48.055  1.00  0.00     0.130 C 
HETATM    8  C19 UNL     1      22.017   3.546  50.267  1.00  0.00    -0.014 A 
HETATM    9  N3  UNL     1      20.284   5.506  48.176  1.00  0.00    -0.254 NA
HETATM   10  C4  UNL     1      19.920   6.216  49.385  1.00  0.00     0.226 C 
HETATM   11  N2  UNL     1      20.739   6.436  50.397  1.00  0.00    -0.280 NA
HETATM   12  C3  UNL     1      22.095   6.048  50.519  1.00  0.00     0.182 C 
HETATM   13  C2  UNL     1      22.383   4.680  51.119  1.00  0.00     0.161 C 
BRANCH  13  14
HETATM   14  N1  UNL     1      23.836   4.785  51.251  1.00  0.00    -0.301 NA
HETATM   15  C1  UNL     1      24.486   5.732  50.726  1.00  0.00     0.143 C 
ENDBRANCH  13  14
ENDBRANCH   1   2
BRANCH   1  16
HETATM   16  C12 UNL     1      24.141   1.480  52.703  1.00  0.00    -0.016 A 
HETATM   17  C13 UNL     1      24.018   0.274  53.303  1.00  0.00    -0.015 A 
HETATM   18  C14 UNL     1      24.961  -0.813  53.662  1.00  0.00     0.106 A 
HETATM   19  C15 UNL     1      26.351  -0.447  53.207  1.00  0.00     0.052 A 
HETATM   20  C17 UNL     1      26.642   0.681  52.599  1.00  0.00     0.064 A 
HETATM   21  C18 UNL     1      25.583   1.640  52.342  1.00  0.00     0.057 A 
HETATM   22  N4  UNL     1      25.946   2.701  51.710  1.00  0.00    -0.300 NA
HETATM   23  H21 UNL     1      26.909   2.896  51.421  1.00  0.00     0.187 HD
BRANCH  17  24
HETATM   24  P1  UNL     1      22.446  -0.407  53.870  1.00  0.00     0.039 P 
HETATM   25  H13 UNL     1      21.610  -0.921  52.833  1.00  0.00     0.092 HD
BRANCH  24  26
HETATM   26  O1  UNL     1      22.451  -1.241  55.337  1.00  0.00    -0.372 OA
HETATM   27  H14 UNL     1      21.516  -1.440  55.612  1.00  0.00     0.215 HD
ENDBRANCH  24  26
ENDBRANCH  17  24
BRANCH  19  28
HETATM   28  O2  UNL     1      27.359  -1.362  53.454  1.00  0.00    -0.360 OA
HETATM   29  C16 UNL     1      28.690  -0.871  53.445  1.00  0.00     0.209 C 
ENDBRANCH  19  28
ENDBRANCH   1  16
TORSDOF 6
ENDMDL
MODEL 2
REMARK VINA RESULT:      -7.1      1.550      2.838
REMARK  6 active torsions:
REMARK  status: ('A' for Active; 'I' for Inactive)
REMARK    1  A    between atoms: N1_2  and  C2_3 
REMARK    2  A    between atoms: C10_13  and  C11_14 
REMARK    3  A    between atoms: C11_14  and  C12_15 
REMARK    4  A    between atoms: C13_16  and  P1_17 
REMARK    5  A    between atoms: P1_17  and  O1_18 
REMARK    6  A    between atoms: C15_20  and  O2_21 
ROOT
HETATM    1  C11 UNL     1      23.230   1.033  51.720  1.00  0.00     0.080 C 
ENDROOT
BRANCH   1   2
HETATM    2  C10 UNL     1      22.842   2.388  51.416  1.00  0.00    -0.044 A 
HETATM    3  C9  UNL     1      23.113   3.295  52.476  1.00  0.00     0.008 A 
HETATM    4  C8  UNL     1      22.893   4.655  52.558  1.00  0.00     0.002 A 
HETATM    5  C7  UNL     1      22.324   5.263  51.463  1.00  0.00     0.013 A 
HETATM    6  C6  UNL     1      22.026   4.457  50.389  1.00  0.00    -0.010 A 
HETATM    7  C5  UNL     1      21.466   5.337  49.328  1.00  0.00     0.130 C 
HETATM    8  C19 UNL     1      22.278   3.106  50.392  1.00  0.00    -0.014 A 
HETATM    9  N3  UNL     1      21.517   5.334  48.009  1.00  0.00    -0.254 NA
HETATM   10  C4  UNL     1      22.189   4.398  47.131  1.00  0.00     0.226 C 
HETATM   11  N2  UNL     1      22.102   3.085  47.233  1.00  0.00    -0.280 NA
HETATM   12  C3  UNL     1      21.364   2.332  48.178  1.00  0.00     0.182 C 
HETATM   13  C2  UNL     1      22.054   1.977  49.486  1.00  0.00     0.161 C 
BRANCH  13  14
HETATM   14  N1  UNL     1      21.054   1.060  50.035  1.00  0.00    -0.301 NA
HETATM   15  C1  UNL     1      19.828   1.165  49.753  1.00  0.00     0.143 C 
ENDBRANCH  13  14
ENDBRANCH   1   2
BRANCH   1  16
HETATM   16  C12 UNL     1      24.393   0.696  52.535  1.00  0.00    -0.016 A 
HETATM   17  C13 UNL     1      24.395  -0.068  53.651  1.00  0.00    -0.015 A 
HETATM   18  C14 UNL     1      25.442  -0.539  54.591  1.00  0.00     0.106 A 
HETATM   19  C15 UNL     1      26.791  -0.046  54.133  1.00  0.00     0.052 A 
HETATM   20  C17 UNL     1      26.967   0.697  53.064  1.00  0.00     0.064 A 
HETATM   21  C18 UNL     1      25.814   1.075  52.267  1.00  0.00     0.057 A 
HETATM   22  N4  UNL     1      26.079   1.772  51.217  1.00  0.00    -0.300 NA
HETATM   23  H21 UNL     1      27.020   2.076  50.952  1.00  0.00     0.187 HD
BRANCH  17  24
HETATM   24  P1  UNL     1      22.913  -0.824  54.350  1.00  0.00     0.039 P 
HETATM   25  H13 UNL     1      21.996  -1.342  53.385  1.00  0.00     0.092 HD
BRANCH  24  26
HETATM   26  O1  UNL     1      23.094  -1.696  55.783  1.00  0.00    -0.372 OA
HETATM   27  H14 UNL     1      22.291  -2.264  55.933  1.00  0.00     0.215 HD
ENDBRANCH  24  26
ENDBRANCH  17  24
BRANCH  19  28
HETATM   28  O2  UNL     1      27.888  -0.407  54.894  1.00  0.00    -0.360 OA
HETATM   29  C16 UNL     1      29.150  -0.403  54.246  1.00  0.00     0.209 C 
ENDBRANCH  19  28
ENDBRANCH   1  16
TORSDOF 6
ENDMDL
MODEL 3
REMARK VINA RESULT:      -7.1      3.903      6.620
REMARK  6 active torsions:
REMARK  status: ('A' for Active; 'I' for Inactive)
REMARK    1  A    between atoms: N1_2  and  C2_3 
REMARK    2  A    between atoms: C10_13  and  C11_14 
REMARK    3  A    between atoms: C11_14  and  C12_15 
REMARK    4  A    between atoms: C13_16  and  P1_17 
REMARK    5  A    between atoms: P1_17  and  O1_18 
REMARK    6  A    between atoms: C15_20  and  O2_21 
ROOT
HETATM    1  C11 UNL     1      22.699   4.181  51.487  1.00  0.00     0.080 C 
ENDROOT
BRANCH   1   2
HETATM    2  C10 UNL     1      23.291   2.938  51.914  1.00  0.00    -0.044 A 
HETATM    3  C9  UNL     1      24.708   2.926  51.792  1.00  0.00     0.008 A 
HETATM    4  C8  UNL     1      25.616   1.934  52.101  1.00  0.00     0.002 A 
HETATM    5  C7  UNL     1      25.110   0.759  52.607  1.00  0.00     0.013 A 
HETATM    6  C6  UNL     1      23.745   0.683  52.757  1.00  0.00    -0.010 A 
HETATM    7  C5  UNL     1      23.447  -0.648  53.352  1.00  0.00     0.130 C 
HETATM    8  C19 UNL     1      22.910   1.722  52.422  1.00  0.00    -0.014 A 
HETATM    9  N3  UNL     1      22.537  -1.095  54.196  1.00  0.00    -0.254 NA
HETATM   10  C4  UNL     1      21.471  -0.363  54.850  1.00  0.00     0.226 C 
HETATM   11  N2  UNL     1      20.643   0.459  54.232  1.00  0.00    -0.280 NA
HETATM   12  C3  UNL     1      20.612   0.793  52.857  1.00  0.00     0.182 C 
HETATM   13  C2  UNL     1      21.466   1.965  52.399  1.00  0.00     0.161 C 
BRANCH  13  14
HETATM   14  N1  UNL     1      20.980   2.083  51.023  1.00  0.00    -0.301 NA
HETATM   15  C1  UNL     1      19.852   1.635  50.674  1.00  0.00     0.143 C 
ENDBRANCH  13  14
ENDBRANCH   1   2
BRANCH   1  16
HETATM   16  C12 UNL     1      23.408   5.171  50.682  1.00  0.00    -0.016 A 
HETATM   17  C13 UNL     1      23.418   5.246  49.331  1.00  0.00    -0.015 A 
HETATM   18  C14 UNL     1      24.038   6.161  48.341  1.00  0.00     0.106 A 
HETATM   19  C15 UNL     1      24.792   7.249  49.063  1.00  0.00     0.052 A 
HETATM   20  C17 UNL     1      24.874   7.330  50.371  1.00  0.00     0.064 A 
HETATM   21  C18 UNL     1      24.209   6.329  51.186  1.00  0.00     0.057 A 
HETATM   22  N4  UNL     1      24.307   6.502  52.457  1.00  0.00    -0.300 NA
HETATM   23  H21 UNL     1      24.832   7.266  52.893  1.00  0.00     0.187 HD
BRANCH  17  24
HETATM   24  P1  UNL     1      22.532   4.097  48.258  1.00  0.00     0.039 P 
HETATM   25  H13 UNL     1      22.373   4.541  46.910  1.00  0.00     0.092 HD
BRANCH  24  26
HETATM   26  O1  UNL     1      22.808   2.449  48.496  1.00  0.00    -0.372 OA
HETATM   27  H14 UNL     1      22.060   2.058  49.023  1.00  0.00     0.215 HD
ENDBRANCH  24  26
ENDBRANCH  17  24
BRANCH  19  28
HETATM   28  O2  UNL     1      25.425   8.201  48.285  1.00  0.00    -0.360 OA
HETATM   29  C16 UNL     1      26.432   7.742  47.398  1.00  0.00     0.209 C 
ENDBRANCH  19  28
ENDBRANCH   1  16
TORSDOF 6
ENDMDL
MODEL 4
REMARK VINA RESULT:      -6.9      3.237      7.307
REMARK  6 active torsions:
REMARK  status: ('A' for Active; 'I' for Inactive)
REMARK    1  A    between atoms: N1_2  and  C2_3 
REMARK    2  A    between atoms: C10_13  and  C11_14 
REMARK    3  A    between atoms: C11_14  and  C12_15 
REMARK    4  A    between atoms: C13_16  and  P1_17 
REMARK    5  A    between atoms: P1_17  and  O1_18 
REMARK    6  A    between atoms: C15_20  and  O2_21 
ROOT
HETATM    1  C11 UNL     1      22.641   2.198  52.319  1.00  0.00     0.080 C 
ENDROOT
BRANCH   1   2
HETATM    2  C10 UNL     1      24.034   1.876  52.129  1.00  0.00    -0.044 A 
HETATM    3  C9  UNL     1      24.653   2.660  51.118  1.00  0.00     0.008 A 
HETATM    4  C8  UNL     1      25.955   2.648  50.659  1.00  0.00     0.002 A 
HETATM    5  C7  UNL     1      26.817   1.752  51.247  1.00  0.00     0.013 A 
HETATM    6  C6  UNL     1      26.299   0.950  52.237  1.00  0.00    -0.010 A 
HETATM    7  C5  UNL     1      27.417   0.107  52.742  1.00  0.00     0.130 C 
HETATM    8  C19 UNL     1      24.986   1.026  52.634  1.00  0.00    -0.014 A 
HETATM    9  N3  UNL     1      27.734  -0.389  53.923  1.00  0.00    -0.254 NA
HETATM   10  C4  UNL     1      27.033  -0.248  55.182  1.00  0.00     0.226 C 
HETATM   11  N2  UNL     1      25.735  -0.434  55.338  1.00  0.00    -0.280 NA
HETATM   12  C3  UNL     1      24.783  -0.798  54.356  1.00  0.00     0.182 C 
HETATM   13  C2  UNL     1      24.113   0.324  53.577  1.00  0.00     0.161 C 
BRANCH  13  14
HETATM   14  N1  UNL     1      23.101  -0.459  52.867  1.00  0.00    -0.301 NA
HETATM   15  C1  UNL     1      22.323  -1.249  53.472  1.00  0.00     0.143 C 
ENDBRANCH  13  14
ENDBRANCH   1   2
BRANCH   1  16
HETATM   16  C12 UNL     1      21.939   3.208  51.533  1.00  0.00    -0.016 A 
HETATM   17  C13 UNL     1      21.132   2.978  50.472  1.00  0.00    -0.015 A 
HETATM   18  C14 UNL     1      20.325   3.836  49.570  1.00  0.00     0.106 A 
HETATM   19  C15 UNL     1      20.448   5.276  49.998  1.00  0.00     0.052 A 
HETATM   20  C17 UNL     1      21.181   5.671  51.014  1.00  0.00     0.064 A 
HETATM   21  C18 UNL     1      21.920   4.683  51.780  1.00  0.00     0.057 A 
HETATM   22  N4  UNL     1      22.583   5.148  52.781  1.00  0.00    -0.300 NA
HETATM   23  H21 UNL     1      22.628   6.141  53.027  1.00  0.00     0.187 HD
BRANCH  17  24
HETATM   24  P1  UNL     1      20.777   1.333  49.821  1.00  0.00     0.039 P 
HETATM   25  H13 UNL     1      19.436   0.888  50.022  1.00  0.00     0.092 HD
BRANCH  24  26
HETATM   26  O1  UNL     1      21.521   0.900  48.369  1.00  0.00    -0.372 OA
HETATM   27  H14 UNL     1      21.490  -0.088  48.259  1.00  0.00     0.215 HD
ENDBRANCH  24  26
ENDBRANCH  17  24
BRANCH  19  28
HETATM   28  O2  UNL     1      19.745   6.216  49.267  1.00  0.00    -0.360 OA
HETATM   29  C16 UNL     1      20.241   7.544  49.279  1.00  0.00     0.209 C 
ENDBRANCH  19  28
ENDBRANCH   1  16
TORSDOF 6
ENDMDL
MODEL 5
REMARK VINA RESULT:      -6.9      1.846      2.866
REMARK  6 active torsions:
REMARK  status: ('A' for Active; 'I' for Inactive)
REMARK    1  A    between atoms: N1_2  and  C2_3 
REMARK    2  A    between atoms: C10_13  and  C11_14 
REMARK    3  A    between atoms: C11_14  and  C12_15 
REMARK    4  A    between atoms: C13_16  and  P1_17 
REMARK    5  A    between atoms: P1_17  and  O1_18 
REMARK    6  A    between atoms: C15_20  and  O2_21 
ROOT
HETATM    1  C11 UNL     1      24.662   2.742  52.660  1.00  0.00     0.080 C 
ENDROOT
BRANCH   1   2
HETATM    2  C10 UNL     1      24.374   3.287  51.357  1.00  0.00    -0.044 A 
HETATM    3  C9  UNL     1      25.387   4.168  50.887  1.00  0.00     0.008 A 
HETATM    4  C8  UNL     1      25.471   4.870  49.702  1.00  0.00     0.002 A 
HETATM    5  C7  UNL     1      24.434   4.720  48.811  1.00  0.00     0.013 A 
HETATM    6  C6  UNL     1      23.408   3.885  49.187  1.00  0.00    -0.010 A 
HETATM    7  C5  UNL     1      22.439   3.853  48.057  1.00  0.00     0.130 C 
HETATM    8  C19 UNL     1      23.402   3.223  50.391  1.00  0.00    -0.014 A 
HETATM    9  N3  UNL     1      21.640   2.929  47.557  1.00  0.00    -0.254 NA
HETATM   10  C4  UNL     1      21.454   1.560  47.992  1.00  0.00     0.226 C 
HETATM   11  N2  UNL     1      21.260   1.196  49.247  1.00  0.00    -0.280 NA
HETATM   12  C3  UNL     1      21.189   2.024  50.392  1.00  0.00     0.182 C 
HETATM   13  C2  UNL     1      22.491   2.334  51.116  1.00  0.00     0.161 C 
BRANCH  13  14
HETATM   14  N1  UNL     1      21.946   3.000  52.299  1.00  0.00    -0.301 NA
HETATM   15  C1  UNL     1      20.752   3.407  52.344  1.00  0.00     0.143 C 
ENDBRANCH  13  14
ENDBRANCH   1   2
BRANCH   1  16
HETATM   16  C12 UNL     1      25.568   1.617  52.875  1.00  0.00    -0.016 A 
HETATM   17  C13 UNL     1      25.212   0.351  53.187  1.00  0.00    -0.015 A 
HETATM   18  C14 UNL     1      25.952  -0.914  53.421  1.00  0.00     0.106 A 
HETATM   19  C15 UNL     1      27.428  -0.679  53.225  1.00  0.00     0.052 A 
HETATM   20  C17 UNL     1      27.941   0.489  52.909  1.00  0.00     0.064 A 
HETATM   21  C18 UNL     1      27.056   1.627  52.733  1.00  0.00     0.057 A 
HETATM   22  N4  UNL     1      27.635   2.723  52.388  1.00  0.00    -0.300 NA
HETATM   23  H21 UNL     1      28.647   2.824  52.266  1.00  0.00     0.187 HD
BRANCH  17  24
HETATM   24  P1  UNL     1      23.502  -0.185  53.403  1.00  0.00     0.039 P 
HETATM   25  H13 UNL     1      22.840  -0.569  52.197  1.00  0.00     0.092 HD
BRANCH  24  26
HETATM   26  O1  UNL     1      23.140  -1.070  54.794  1.00  0.00    -0.372 OA
HETATM   27  H14 UNL     1      23.609  -1.947  54.763  1.00  0.00     0.215 HD
ENDBRANCH  24  26
ENDBRANCH  17  24
BRANCH  19  28
HETATM   28  O2  UNL     1      28.269  -1.763  53.394  1.00  0.00    -0.360 OA
HETATM   29  C16 UNL     1      29.655  -1.489  53.523  1.00  0.00     0.209 C 
ENDBRANCH  19  28
ENDBRANCH   1  16
TORSDOF 6
ENDMDL
MODEL 6
REMARK VINA RESULT:      -6.7      3.567      5.535
REMARK  6 active torsions:
REMARK  status: ('A' for Active; 'I' for Inactive)
REMARK    1  A    between atoms: N1_2  and  C2_3 
REMARK    2  A    between atoms: C10_13  and  C11_14 
REMARK    3  A    between atoms: C11_14  and  C12_15 
REMARK    4  A    between atoms: C13_16  and  P1_17 
REMARK    5  A    between atoms: P1_17  and  O1_18 
REMARK    6  A    between atoms: C15_20  and  O2_21 
ROOT
HETATM    1  C11 UNL     1      23.165   4.583  49.132  1.00  0.00     0.080 C 
ENDROOT
BRANCH   1   2
HETATM    2  C10 UNL     1      24.571   4.877  49.007  1.00  0.00    -0.044 A 
HETATM    3  C9  UNL     1      25.402   3.768  49.326  1.00  0.00     0.008 A 
HETATM    4  C8  UNL     1      26.777   3.660  49.320  1.00  0.00     0.002 A 
HETATM    5  C7  UNL     1      27.491   4.777  48.954  1.00  0.00     0.013 A 
HETATM    6  C6  UNL     1      26.765   5.900  48.630  1.00  0.00    -0.010 A 
HETATM    7  C5  UNL     1      27.742   6.950  48.234  1.00  0.00     0.130 C 
HETATM    8  C19 UNL     1      25.391   5.922  48.664  1.00  0.00    -0.014 A 
HETATM    9  N3  UNL     1      27.726   7.937  47.358  1.00  0.00    -0.254 NA
HETATM   10  C4  UNL     1      26.668   8.324  46.448  1.00  0.00     0.226 C 
HETATM   11  N2  UNL     1      25.403   8.475  46.796  1.00  0.00    -0.280 NA
HETATM   12  C3  UNL     1      24.826   8.303  48.077  1.00  0.00     0.182 C 
HETATM   13  C2  UNL     1      24.334   6.912  48.445  1.00  0.00     0.161 C 
BRANCH  13  14
HETATM   14  N1  UNL     1      23.651   7.232  49.699  1.00  0.00    -0.301 NA
HETATM   15  C1  UNL     1      24.092   8.109  50.493  1.00  0.00     0.143 C 
ENDBRANCH  13  14
ENDBRANCH   1   2
BRANCH   1  16
HETATM   16  C12 UNL     1      22.651   3.409  49.830  1.00  0.00    -0.016 A 
HETATM   17  C13 UNL     1      22.406   3.309  51.156  1.00  0.00    -0.015 A 
HETATM   18  C14 UNL     1      21.877   2.244  52.043  1.00  0.00     0.106 A 
HETATM   19  C15 UNL     1      21.524   1.031  51.220  1.00  0.00     0.052 A 
HETATM   20  C17 UNL     1      21.688   0.965  49.918  1.00  0.00     0.064 A 
HETATM   21  C18 UNL     1      22.237   2.110  49.215  1.00  0.00     0.057 A 
HETATM   22  N4  UNL     1      22.331   1.976  47.938  1.00  0.00    -0.300 NA
HETATM   23  H21 UNL     1      22.071   1.126  47.430  1.00  0.00     0.187 HD
BRANCH  17  24
HETATM   24  P1  UNL     1      22.685   4.652  52.330  1.00  0.00     0.039 P 
HETATM   25  H13 UNL     1      21.503   5.151  52.957  1.00  0.00     0.092 HD
BRANCH  24  26
HETATM   26  O1  UNL     1      24.082   4.575  53.273  1.00  0.00    -0.372 OA
HETATM   27  H14 UNL     1      23.937   3.952  54.035  1.00  0.00     0.215 HD
ENDBRANCH  24  26
ENDBRANCH  17  24
BRANCH  19  28
HETATM   28  O2  UNL     1      21.001  -0.058  51.892  1.00  0.00    -0.360 OA
HETATM   29  C16 UNL     1      19.859   0.172  52.702  1.00  0.00     0.209 C 
ENDBRANCH  19  28
ENDBRANCH   1  16
TORSDOF 6
ENDMDL
MODEL 7
REMARK VINA RESULT:      -6.7      6.384      8.805
REMARK  6 active torsions:
REMARK  status: ('A' for Active; 'I' for Inactive)
REMARK    1  A    between atoms: N1_2  and  C2_3 
REMARK    2  A    between atoms: C10_13  and  C11_14 
REMARK    3  A    between atoms: C11_14  and  C12_15 
REMARK    4  A    between atoms: C13_16  and  P1_17 
REMARK    5  A    between atoms: P1_17  and  O1_18 
REMARK    6  A    between atoms: C15_20  and  O2_21 
ROOT
HETATM    1  C11 UNL     1      26.348   8.126  48.349  1.00  0.00     0.080 C 
ENDROOT
BRANCH   1   2
HETATM    2  C10 UNL     1      26.269   6.741  48.740  1.00  0.00    -0.044 A 
HETATM    3  C9  UNL     1      27.457   6.014  48.453  1.00  0.00     0.008 A 
HETATM    4  C8  UNL     1      27.761   4.687  48.681  1.00  0.00     0.002 A 
HETATM    5  C7  UNL     1      26.791   3.916  49.276  1.00  0.00     0.013 A 
HETATM    6  C6  UNL     1      25.605   4.541  49.587  1.00  0.00    -0.010 A 
HETATM    7  C5  UNL     1      24.742   3.526  50.251  1.00  0.00     0.130 C 
HETATM    8  C19 UNL     1      25.383   5.871  49.323  1.00  0.00    -0.014 A 
HETATM    9  N3  UNL     1      23.835   3.575  51.209  1.00  0.00    -0.254 NA
HETATM   10  C4  UNL     1      23.375   4.724  51.962  1.00  0.00     0.226 C 
HETATM   11  N2  UNL     1      23.016   5.874  51.422  1.00  0.00    -0.280 NA
HETATM   12  C3  UNL     1      23.000   6.226  50.051  1.00  0.00     0.182 C 
HETATM   13  C2  UNL     1      24.273   6.816  49.462  1.00  0.00     0.161 C 
BRANCH  13  14
HETATM   14  N1  UNL     1      23.759   7.212  48.151  1.00  0.00    -0.301 NA
HETATM   15  C1  UNL     1      22.601   7.693  48.006  1.00  0.00     0.143 C 
ENDBRANCH  13  14
ENDBRANCH   1   2
BRANCH   1  16
HETATM   16  C12 UNL     1      27.591   8.891  48.356  1.00  0.00    -0.016 A 
HETATM   17  C13 UNL     1      28.336   9.218  47.276  1.00  0.00    -0.015 A 
HETATM   18  C14 UNL     1      29.587   9.987  47.065  1.00  0.00     0.106 A 
HETATM   19  C15 UNL     1      30.078  10.525  48.385  1.00  0.00     0.052 A 
HETATM   20  C17 UNL     1      29.467  10.310  49.529  1.00  0.00     0.064 A 
HETATM   21  C18 UNL     1      28.252   9.515  49.543  1.00  0.00     0.057 A 
HETATM   22  N4  UNL     1      27.696   9.384  50.697  1.00  0.00    -0.300 NA
HETATM   23  H21 UNL     1      28.075   9.776  51.564  1.00  0.00     0.187 HD
BRANCH  17  24
HETATM   24  P1  UNL     1      27.911   8.747  45.586  1.00  0.00     0.039 P 
HETATM   25  H13 UNL     1      26.914   9.564  44.972  1.00  0.00     0.092 HD
BRANCH  24  26
HETATM   26  O1  UNL     1      29.165   8.193  44.601  1.00  0.00    -0.372 OA
HETATM   27  H14 UNL     1      28.981   8.441  43.655  1.00  0.00     0.215 HD
ENDBRANCH  24  26
ENDBRANCH  17  24
BRANCH  19  28
HETATM   28  O2  UNL     1      31.236  11.281  48.369  1.00  0.00    -0.360 OA
HETATM   29  C16 UNL     1      31.912  11.396  47.127  1.00  0.00     0.209 C 
ENDBRANCH  19  28
ENDBRANCH   1  16
TORSDOF 6
ENDMDL
MODEL 8
REMARK VINA RESULT:      -6.6      6.151      8.621
REMARK  6 active torsions:
REMARK  status: ('A' for Active; 'I' for Inactive)
REMARK    1  A    between atoms: N1_2  and  C2_3 
REMARK    2  A    between atoms: C10_13  and  C11_14 
REMARK    3  A    between atoms: C11_14  and  C12_15 
REMARK    4  A    between atoms: C13_16  and  P1_17 
REMARK    5  A    between atoms: P1_17  and  O1_18 
REMARK    6  A    between atoms: C15_20  and  O2_21 
ROOT
HETATM    1  C11 UNL     1      25.716   7.993  48.896  1.00  0.00     0.080 C 
ENDROOT
BRANCH   1   2
HETATM    2  C10 UNL     1      25.870   6.584  49.160  1.00  0.00    -0.044 A 
HETATM    3  C9  UNL     1      27.077   6.048  48.632  1.00  0.00     0.008 A 
HETATM    4  C8  UNL     1      27.573   4.761  48.685  1.00  0.00     0.002 A 
HETATM    5  C7  UNL     1      26.811   3.824  49.341  1.00  0.00     0.013 A 
HETATM    6  C6  UNL     1      25.622   4.257  49.882  1.00  0.00    -0.010 A 
HETATM    7  C5  UNL     1      25.006   3.088  50.567  1.00  0.00     0.130 C 
HETATM    8  C19 UNL     1      25.201   5.561  49.782  1.00  0.00    -0.014 A 
HETATM    9  N3  UNL     1      24.263   2.942  51.648  1.00  0.00    -0.254 NA
HETATM   10  C4  UNL     1      23.792   3.957  52.567  1.00  0.00     0.226 C 
HETATM   11  N2  UNL     1      23.215   5.086  52.199  1.00  0.00    -0.280 NA
HETATM   12  C3  UNL     1      22.939   5.535  50.885  1.00  0.00     0.182 C 
HETATM   13  C2  UNL     1      24.020   6.334  50.174  1.00  0.00     0.161 C 
BRANCH  13  14
HETATM   14  N1  UNL     1      23.260   6.756  48.996  1.00  0.00    -0.301 NA
HETATM   15  C1  UNL     1      22.010   6.927  49.036  1.00  0.00     0.143 C 
ENDBRANCH  13  14
ENDBRANCH   1   2
BRANCH   1  16
HETATM   16  C12 UNL     1      26.837   8.879  48.597  1.00  0.00    -0.016 A 
HETATM   17  C13 UNL     1      27.218   9.303  47.371  1.00  0.00    -0.015 A 
HETATM   18  C14 UNL     1      28.285  10.199  46.861  1.00  0.00     0.106 A 
HETATM   19  C15 UNL     1      29.075  10.754  48.020  1.00  0.00     0.052 A 
HETATM   20  C17 UNL     1      28.830  10.453  49.275  1.00  0.00     0.064 A 
HETATM   21  C18 UNL     1      27.745   9.540  49.585  1.00  0.00     0.057 A 
HETATM   22  N4  UNL     1      27.548   9.328  50.840  1.00  0.00    -0.300 NA
HETATM   23  H21 UNL     1      28.117   9.736  51.587  1.00  0.00     0.187 HD
BRANCH  17  24
HETATM   24  P1  UNL     1      26.382   8.830  45.843  1.00  0.00     0.039 P 
HETATM   25  H13 UNL     1      26.709   7.525  45.364  1.00  0.00     0.092 HD
BRANCH  24  26
HETATM   26  O1  UNL     1      24.787   9.344  45.645  1.00  0.00    -0.372 OA
HETATM   27  H14 UNL     1      24.443   9.032  44.765  1.00  0.00     0.215 HD
ENDBRANCH  24  26
ENDBRANCH  17  24
BRANCH  19  28
HETATM   28  O2  UNL     1      30.109  11.623  47.722  1.00  0.00    -0.360 OA
HETATM   29  C16 UNL     1      30.886  12.095  48.811  1.00  0.00     0.209 C 
ENDBRANCH  19  28
ENDBRANCH   1  16
TORSDOF 6
ENDMDL
MODEL 9
REMARK VINA RESULT:      -6.5      4.343      6.744
REMARK  6 active torsions:
REMARK  status: ('A' for Active; 'I' for Inactive)
REMARK    1  A    between atoms: N1_2  and  C2_3 
REMARK    2  A    between atoms: C10_13  and  C11_14 
REMARK    3  A    between atoms: C11_14  and  C12_15 
REMARK    4  A    between atoms: C13_16  and  P1_17 
REMARK    5  A    between atoms: P1_17  and  O1_18 
REMARK    6  A    between atoms: C15_20  and  O2_21 
ROOT
HETATM    1  C11 UNL     1      24.990   4.674  48.960  1.00  0.00     0.080 C 
ENDROOT
BRANCH   1   2
HETATM    2  C10 UNL     1      24.995   3.621  49.944  1.00  0.00    -0.044 A 
HETATM    3  C9  UNL     1      26.290   3.354  50.467  1.00  0.00     0.008 A 
HETATM    4  C8  UNL     1      26.691   2.436  51.415  1.00  0.00     0.002 A 
HETATM    5  C7  UNL     1      25.716   1.637  51.964  1.00  0.00     0.013 A 
HETATM    6  C6  UNL     1      24.430   1.827  51.514  1.00  0.00    -0.010 A 
HETATM    7  C5  UNL     1      23.560   0.889  52.275  1.00  0.00     0.130 C 
HETATM    8  C19 UNL     1      24.116   2.766  50.561  1.00  0.00    -0.014 A 
HETATM    9  N3  UNL     1      22.320   0.943  52.722  1.00  0.00    -0.254 NA
HETATM   10  C4  UNL     1      21.358   2.019  52.597  1.00  0.00     0.226 C 
HETATM   11  N2  UNL     1      21.088   2.651  51.470  1.00  0.00    -0.280 NA
HETATM   12  C3  UNL     1      21.650   2.428  50.190  1.00  0.00     0.182 C 
HETATM   13  C2  UNL     1      22.917   3.192  49.835  1.00  0.00     0.161 C 
BRANCH  13  14
HETATM   14  N1  UNL     1      23.012   2.838  48.419  1.00  0.00    -0.301 NA
HETATM   15  C1  UNL     1      22.291   1.937  47.907  1.00  0.00     0.143 C 
ENDBRANCH  13  14
ENDBRANCH   1   2
BRANCH   1  16
HETATM   16  C12 UNL     1      25.534   6.005  49.209  1.00  0.00    -0.016 A 
HETATM   17  C13 UNL     1      24.914   7.016  49.860  1.00  0.00    -0.015 A 
HETATM   18  C14 UNL     1      25.287   8.402  50.232  1.00  0.00     0.106 A 
HETATM   19  C15 UNL     1      26.697   8.684  49.779  1.00  0.00     0.052 A 
HETATM   20  C17 UNL     1      27.444   7.810  49.143  1.00  0.00     0.064 A 
HETATM   21  C18 UNL     1      26.901   6.496  48.850  1.00  0.00     0.057 A 
HETATM   22  N4  UNL     1      27.710   5.688  48.258  1.00  0.00    -0.300 NA
HETATM   23  H21 UNL     1      28.663   5.934  47.976  1.00  0.00     0.187 HD
BRANCH  17  24
HETATM   24  P1  UNL     1      23.252   6.889  50.552  1.00  0.00     0.039 P 
HETATM   25  H13 UNL     1      22.988   7.782  51.635  1.00  0.00     0.092 HD
BRANCH  24  26
HETATM   26  O1  UNL     1      21.988   6.593  49.475  1.00  0.00    -0.372 OA
HETATM   27  H14 UNL     1      22.353   6.468  48.557  1.00  0.00     0.215 HD
ENDBRANCH  24  26
ENDBRANCH  17  24
BRANCH  19  28
HETATM   28  O2  UNL     1      27.212   9.937  50.058  1.00  0.00    -0.360 OA
HETATM   29  C16 UNL     1      27.935  10.581  49.021  1.00  0.00     0.209 C 
ENDBRANCH  19  28
ENDBRANCH   1  16
TORSDOF 6
ENDMDL
