MODEL 1
REMARK VINA RESULT:      -7.8      0.000      0.000
REMARK  6 active torsions:
REMARK  status: ('A' for Active; 'I' for Inactive)
REMARK    1  A    between atoms: C2_2  and  O1_3 
REMARK    2  A    between atoms: O1_3  and  C3_4 
REMARK    3  A    between atoms: C6_9  and  N3_10 
REMARK    4  A    between atoms: C15_22  and  C16_23 
REMARK    5  A    between atoms: C16_23  and  C17_24 
REMARK    6  A    between atoms: C17_24  and  N4_25 
ROOT
HETATM    1  C3  UNL     1      22.845   0.625  52.389  1.00  0.00     0.203 C 
HETATM    2  C4  UNL     1      22.494   1.462  51.213  1.00  0.00     0.081 A 
HETATM    3  N1  UNL     1      21.805   0.862  50.216  1.00  0.00    -0.243 NA
HETATM    4  C5  UNL     1      21.445   1.549  49.104  1.00  0.00     0.235 A 
HETATM    5  N2  UNL     1      21.757   2.864  48.941  1.00  0.00    -0.224 NA
HETATM    6  C6  UNL     1      22.450   3.492  49.931  1.00  0.00     0.139 A 
HETATM    7  C12 UNL     1      22.817   2.795  51.062  1.00  0.00     0.039 A 
HETATM    8  C13 UNL     1      23.536   3.706  51.944  1.00  0.00     0.041 C 
HETATM    9  C14 UNL     1      24.272   3.297  52.986  1.00  0.00     0.136 C 
HETATM   10  O2  UNL     1      24.520   2.015  53.458  1.00  0.00    -0.355 OA
HETATM   11  C15 UNL     1      24.318   0.830  52.711  1.00  0.00     0.164 C 
ENDROOT
BRANCH   6  12
HETATM   12  N3  UNL     1      22.721   4.861  49.643  1.00  0.00    -0.360 N 
HETATM   13  C7  UNL     1      22.175   6.120  50.179  1.00  0.00     0.154 C 
HETATM   14  C8  UNL     1      23.246   6.888  50.875  1.00  0.00     0.032 C 
HETATM   15  C9  UNL     1      24.456   6.626  50.396  1.00  0.00     0.111 C 
HETATM   16  F1  UNL     1      25.571   7.226  50.896  1.00  0.00    -0.209 F 
HETATM   17  C10 UNL     1      24.930   5.727  49.316  1.00  0.00     0.162 C 
HETATM   18 CL1  UNL     1      25.938   6.649  48.161  1.00  0.00    -0.116 Cl
HETATM   19  C11 UNL     1      23.736   5.109  48.616  1.00  0.00     0.152 C 
ENDBRANCH   6  12
BRANCH   1  20
HETATM   20  O1  UNL     1      22.058   0.879  53.486  1.00  0.00    -0.377 OA
BRANCH  20  21
HETATM   21  C2  UNL     1      21.067  -0.112  53.640  1.00  0.00     0.164 C 
HETATM   22  C1  UNL     1      21.492  -1.190  54.615  1.00  0.00     0.033 C 
ENDBRANCH  20  21
ENDBRANCH   1  20
BRANCH  11  23
HETATM   23  C16 UNL     1      24.931  -0.382  53.376  1.00  0.00     0.066 C 
BRANCH  23  24
HETATM   24  C17 UNL     1      26.224  -0.074  54.057  1.00  0.00     0.278 C 
BRANCH  24  25
HETATM   25  N4  UNL     1      27.279   0.106  53.083  1.00  0.00     0.113 N 
HETATM   26  C18 UNL     1      28.268  -0.952  53.157  1.00  0.00     0.301 C 
HETATM   27  C19 UNL     1      29.217  -0.376  54.219  1.00  0.00     0.200 C 
HETATM   28  O3  UNL     1      29.322   0.927  53.740  1.00  0.00    -0.361 OA
HETATM   29  C20 UNL     1      28.050   1.287  53.301  1.00  0.00     0.440 C 
ENDBRANCH  24  25
ENDBRANCH  23  24
ENDBRANCH  11  23
TORSDOF 6
ENDMDL
MODEL 2
REMARK VINA RESULT:      -7.2      3.439      7.389
REMARK  6 active torsions:
REMARK  status: ('A' for Active; 'I' for Inactive)
REMARK    1  A    between atoms: C2_2  and  O1_3 
REMARK    2  A    between atoms: O1_3  and  C3_4 
REMARK    3  A    between atoms: C6_9  and  N3_10 
REMARK    4  A    between atoms: C15_22  and  C16_23 
REMARK    5  A    between atoms: C16_23  and  C17_24 
REMARK    6  A    between atoms: C17_24  and  N4_25 
ROOT
HETATM    1  C3  UNL     1      22.668   2.726  50.095  1.00  0.00     0.203 C 
HETATM    2  C4  UNL     1      24.106   2.619  50.453  1.00  0.00     0.081 A 
HETATM    3  N1  UNL     1      24.988   3.260  49.653  1.00  0.00    -0.243 NA
HETATM    4  C5  UNL     1      26.320   3.214  49.903  1.00  0.00     0.235 A 
HETATM    5  N2  UNL     1      26.827   2.528  50.964  1.00  0.00    -0.224 NA
HETATM    6  C6  UNL     1      25.960   1.874  51.786  1.00  0.00     0.139 A 
HETATM    7  C12 UNL     1      24.606   1.920  51.533  1.00  0.00     0.039 A 
HETATM    8  C13 UNL     1      23.925   1.144  52.562  1.00  0.00     0.041 C 
HETATM    9  C14 UNL     1      22.649   0.746  52.464  1.00  0.00     0.136 C 
HETATM   10  O2  UNL     1      21.725   0.948  51.448  1.00  0.00    -0.355 OA
HETATM   11  C15 UNL     1      22.054   1.335  50.126  1.00  0.00     0.164 C 
ENDROOT
BRANCH   6  12
HETATM   12  N3  UNL     1      26.610   1.190  52.853  1.00  0.00    -0.360 N 
HETATM   13  C7  UNL     1      26.673  -0.232  53.235  1.00  0.00     0.154 C 
HETATM   14  C8  UNL     1      28.076  -0.728  53.132  1.00  0.00     0.032 C 
HETATM   15  C9  UNL     1      28.972   0.237  53.304  1.00  0.00     0.111 C 
HETATM   16  F1  UNL     1      30.310  -0.009  53.249  1.00  0.00    -0.209 F 
HETATM   17  C10 UNL     1      28.838   1.689  53.575  1.00  0.00     0.162 C 
HETATM   18 CL1  UNL     1      29.800   2.125  55.018  1.00  0.00    -0.116 Cl
HETATM   19  C11 UNL     1      27.375   2.029  53.778  1.00  0.00     0.152 C 
ENDBRANCH   6  12
BRANCH   1  20
HETATM   20  O1  UNL     1      21.974   3.593  50.903  1.00  0.00    -0.377 OA
BRANCH  20  21
HETATM   21  C2  UNL     1      21.748   4.823  50.251  1.00  0.00     0.164 C 
HETATM   22  C1  UNL     1      22.376   5.981  50.999  1.00  0.00     0.033 C 
ENDBRANCH  20  21
ENDBRANCH   1  20
BRANCH  11  23
HETATM   23  C16 UNL     1      20.881   1.207  49.181  1.00  0.00     0.066 C 
BRANCH  23  24
HETATM   24  C17 UNL     1      19.571   1.122  49.894  1.00  0.00     0.278 C 
BRANCH  24  25
HETATM   25  N4  UNL     1      18.910   2.409  49.893  1.00  0.00     0.113 N 
HETATM   26  C18 UNL     1      17.504   2.294  50.227  1.00  0.00     0.301 C 
HETATM   27  C19 UNL     1      16.904   2.039  48.837  1.00  0.00     0.200 C 
HETATM   28  O3  UNL     1      17.584   3.018  48.119  1.00  0.00    -0.361 OA
HETATM   29  C20 UNL     1      18.888   3.029  48.607  1.00  0.00     0.440 C 
ENDBRANCH  24  25
ENDBRANCH  23  24
ENDBRANCH  11  23
TORSDOF 6
ENDMDL
MODEL 3
REMARK VINA RESULT:      -7.2      4.150      7.461
REMARK  6 active torsions:
REMARK  status: ('A' for Active; 'I' for Inactive)
REMARK    1  A    between atoms: C2_2  and  O1_3 
REMARK    2  A    between atoms: O1_3  and  C3_4 
REMARK    3  A    between atoms: C6_9  and  N3_10 
REMARK    4  A    between atoms: C15_22  and  C16_23 
REMARK    5  A    between atoms: C16_23  and  C17_24 
REMARK    6  A    between atoms: C17_24  and  N4_25 
ROOT
HETATM    1  C3  UNL     1      24.024   5.250  49.450  1.00  0.00     0.203 C 
HETATM    2  C4  UNL     1      24.261   4.296  50.563  1.00  0.00     0.081 A 
HETATM    3  N1  UNL     1      23.261   4.138  51.460  1.00  0.00    -0.243 NA
HETATM    4  C5  UNL     1      23.391   3.290  52.510  1.00  0.00     0.235 A 
HETATM    5  N2  UNL     1      24.525   2.562  52.707  1.00  0.00    -0.224 NA
HETATM    6  C6  UNL     1      25.547   2.703  51.818  1.00  0.00     0.139 A 
HETATM    7  C12 UNL     1      25.416   3.565  50.751  1.00  0.00     0.039 A 
HETATM    8  C13 UNL     1      26.646   3.512  49.971  1.00  0.00     0.041 C 
HETATM    9  C14 UNL     1      26.970   4.420  49.040  1.00  0.00     0.136 C 
HETATM   10  O2  UNL     1      26.280   5.547  48.613  1.00  0.00    -0.355 OA
HETATM   11  C15 UNL     1      25.231   6.169  49.330  1.00  0.00     0.164 C 
ENDROOT
BRANCH   6  12
HETATM   12  N3  UNL     1      26.678   1.896  52.134  1.00  0.00    -0.360 N 
HETATM   13  C7  UNL     1      27.963   2.193  52.790  1.00  0.00     0.154 C 
HETATM   14  C8  UNL     1      28.074   1.435  54.069  1.00  0.00     0.032 C 
HETATM   15  C9  UNL     1      27.369   0.310  54.058  1.00  0.00     0.111 C 
HETATM   16  F1  UNL     1      27.336  -0.528  55.131  1.00  0.00    -0.209 F 
HETATM   17  C10 UNL     1      26.508  -0.320  53.027  1.00  0.00     0.162 C 
HETATM   18 CL1  UNL     1      27.032  -2.007  52.751  1.00  0.00    -0.116 Cl
HETATM   19  C11 UNL     1      26.586   0.487  51.746  1.00  0.00     0.152 C 
ENDBRANCH   6  12
BRANCH   1  20
HETATM   20  O1  UNL     1      23.754   4.629  48.255  1.00  0.00    -0.377 OA
BRANCH  20  21
HETATM   21  C2  UNL     1      22.384   4.313  48.145  1.00  0.00     0.164 C 
HETATM   22  C1  UNL     1      22.163   2.835  47.901  1.00  0.00     0.033 C 
ENDBRANCH  20  21
ENDBRANCH   1  20
BRANCH  11  23
HETATM   23  C16 UNL     1      24.865   7.521  48.760  1.00  0.00     0.066 C 
BRANCH  23  24
HETATM   24  C17 UNL     1      25.832   7.991  47.723  1.00  0.00     0.278 C 
BRANCH  24  25
HETATM   25  N4  UNL     1      26.280   9.335  48.020  1.00  0.00     0.113 N 
HETATM   26  C18 UNL     1      27.726   9.435  48.011  1.00  0.00     0.301 C 
HETATM   27  C19 UNL     1      28.044   9.060  49.466  1.00  0.00     0.200 C 
HETATM   28  O3  UNL     1      27.089   9.839  50.111  1.00  0.00    -0.361 OA
HETATM   29  C20 UNL     1      25.933   9.764  49.337  1.00  0.00     0.440 C 
ENDBRANCH  24  25
ENDBRANCH  23  24
ENDBRANCH  11  23
TORSDOF 6
ENDMDL
MODEL 4
REMARK VINA RESULT:      -7.1      2.107      2.503
REMARK  6 active torsions:
REMARK  status: ('A' for Active; 'I' for Inactive)
REMARK    1  A    between atoms: C2_2  and  O1_3 
REMARK    2  A    between atoms: O1_3  and  C3_4 
REMARK    3  A    between atoms: C6_9  and  N3_10 
REMARK    4  A    between atoms: C15_22  and  C16_23 
REMARK    5  A    between atoms: C16_23  and  C17_24 
REMARK    6  A    between atoms: C17_24  and  N4_25 
ROOT
HETATM    1  C3  UNL     1      22.627   0.686  52.139  1.00  0.00     0.203 C 
HETATM    2  C4  UNL     1      22.179   1.417  50.927  1.00  0.00     0.081 A 
HETATM    3  N1  UNL     1      21.529   0.700  49.982  1.00  0.00    -0.243 NA
HETATM    4  C5  UNL     1      21.086   1.285  48.842  1.00  0.00     0.235 A 
HETATM    5  N2  UNL     1      21.271   2.612  48.598  1.00  0.00    -0.224 NA
HETATM    6  C6  UNL     1      21.922   3.357  49.534  1.00  0.00     0.139 A 
HETATM    7  C12 UNL     1      22.373   2.763  50.693  1.00  0.00     0.039 A 
HETATM    8  C13 UNL     1      23.020   3.786  51.505  1.00  0.00     0.041 C 
HETATM    9  C14 UNL     1      23.811   3.507  52.551  1.00  0.00     0.136 C 
HETATM   10  O2  UNL     1      24.186   2.283  53.087  1.00  0.00    -0.355 OA
HETATM   11  C15 UNL     1      24.081   1.043  52.413  1.00  0.00     0.164 C 
ENDROOT
BRANCH   6  12
HETATM   12  N3  UNL     1      22.058   4.726  49.163  1.00  0.00    -0.360 N 
HETATM   13  C7  UNL     1      23.127   5.471  48.476  1.00  0.00     0.154 C 
HETATM   14  C8  UNL     1      22.628   6.002  47.176  1.00  0.00     0.032 C 
HETATM   15  C9  UNL     1      21.317   6.212  47.179  1.00  0.00     0.111 C 
HETATM   16  F1  UNL     1      20.664   6.695  46.086  1.00  0.00    -0.209 F 
HETATM   17  C10 UNL     1      20.277   6.019  48.219  1.00  0.00     0.162 C 
HETATM   18 CL1  UNL     1      19.352   7.534  48.436  1.00  0.00    -0.116 Cl
HETATM   19  C11 UNL     1      20.936   5.599  49.517  1.00  0.00     0.152 C 
ENDBRANCH   6  12
BRANCH   1  20
HETATM   20  O1  UNL     1      21.841   0.929  53.239  1.00  0.00    -0.377 OA
BRANCH  20  21
HETATM   21  C2  UNL     1      20.982  -0.158  53.499  1.00  0.00     0.164 C 
HETATM   22  C1  UNL     1      21.510  -1.041  54.610  1.00  0.00     0.033 C 
ENDBRANCH  20  21
ENDBRANCH   1  20
BRANCH  11  23
HETATM   23  C16 UNL     1      24.816  -0.067  53.130  1.00  0.00     0.066 C 
BRANCH  23  24
HETATM   24  C17 UNL     1      26.253  -0.158  52.733  1.00  0.00     0.278 C 
BRANCH  24  25
HETATM   25  N4  UNL     1      27.068   0.684  53.582  1.00  0.00     0.113 N 
HETATM   26  C18 UNL     1      28.459   0.677  53.174  1.00  0.00     0.301 C 
HETATM   27  C19 UNL     1      28.977  -0.536  53.961  1.00  0.00     0.200 C 
HETATM   28  O3  UNL     1      28.401  -0.261  55.197  1.00  0.00    -0.361 OA
HETATM   29  C20 UNL     1      27.124   0.231  54.935  1.00  0.00     0.440 C 
ENDBRANCH  24  25
ENDBRANCH  23  24
ENDBRANCH  11  23
TORSDOF 6
ENDMDL
MODEL 5
REMARK VINA RESULT:      -7.1      3.392      7.264
REMARK  6 active torsions:
REMARK  status: ('A' for Active; 'I' for Inactive)
REMARK    1  A    between atoms: C2_2  and  O1_3 
REMARK    2  A    between atoms: O1_3  and  C3_4 
REMARK    3  A    between atoms: C6_9  and  N3_10 
REMARK    4  A    between atoms: C15_22  and  C16_23 
REMARK    5  A    between atoms: C16_23  and  C17_24 
REMARK    6  A    between atoms: C17_24  and  N4_25 
ROOT
HETATM    1  C3  UNL     1      22.602   2.916  50.228  1.00  0.00     0.203 C 
HETATM    2  C4  UNL     1      24.044   2.718  50.521  1.00  0.00     0.081 A 
HETATM    3  N1  UNL     1      24.927   3.246  49.642  1.00  0.00    -0.243 NA
HETATM    4  C5  UNL     1      26.263   3.112  49.829  1.00  0.00     0.235 A 
HETATM    5  N2  UNL     1      26.775   2.446  50.900  1.00  0.00    -0.224 NA
HETATM    6  C6  UNL     1      25.907   1.904  51.800  1.00  0.00     0.139 A 
HETATM    7  C12 UNL     1      24.549   2.040  51.612  1.00  0.00     0.039 A 
HETATM    8  C13 UNL     1      23.868   1.375  52.716  1.00  0.00     0.041 C 
HETATM    9  C14 UNL     1      22.563   1.071  52.704  1.00  0.00     0.136 C 
HETATM   10  O2  UNL     1      21.604   1.290  51.725  1.00  0.00    -0.355 OA
HETATM   11  C15 UNL     1      21.888   1.579  50.369  1.00  0.00     0.164 C 
ENDROOT
BRANCH   6  12
HETATM   12  N3  UNL     1      26.561   1.230  52.871  1.00  0.00    -0.360 N 
HETATM   13  C7  UNL     1      26.605  -0.185  53.280  1.00  0.00     0.154 C 
HETATM   14  C8  UNL     1      27.996  -0.708  53.166  1.00  0.00     0.032 C 
HETATM   15  C9  UNL     1      28.912   0.243  53.306  1.00  0.00     0.111 C 
HETATM   16  F1  UNL     1      30.245  -0.029  53.235  1.00  0.00    -0.209 F 
HETATM   17  C10 UNL     1      28.809   1.702  53.549  1.00  0.00     0.162 C 
HETATM   18 CL1  UNL     1      29.800   2.149  54.969  1.00  0.00    -0.116 Cl
HETATM   19  C11 UNL     1      27.355   2.074  53.767  1.00  0.00     0.152 C 
ENDBRANCH   6  12
BRANCH   1  20
HETATM   20  O1  UNL     1      22.017   3.875  51.019  1.00  0.00    -0.377 OA
BRANCH  20  21
HETATM   21  C2  UNL     1      21.863   5.087  50.316  1.00  0.00     0.164 C 
HETATM   22  C1  UNL     1      20.406   5.398  50.038  1.00  0.00     0.033 C 
ENDBRANCH  20  21
ENDBRANCH   1  20
BRANCH  11  23
HETATM   23  C16 UNL     1      20.660   1.492  49.491  1.00  0.00     0.066 C 
BRANCH  23  24
HETATM   24  C17 UNL     1      19.397   1.784  50.234  1.00  0.00     0.278 C 
BRANCH  24  25
HETATM   25  N4  UNL     1      18.502   0.648  50.176  1.00  0.00     0.113 N 
HETATM   26  C18 UNL     1      17.131   1.054  49.938  1.00  0.00     0.301 C 
HETATM   27  C19 UNL     1      16.654   1.295  51.378  1.00  0.00     0.200 C 
HETATM   28  O3  UNL     1      17.164   0.147  51.976  1.00  0.00    -0.361 OA
HETATM   29  C20 UNL     1      18.419  -0.066  51.410  1.00  0.00     0.440 C 
ENDBRANCH  24  25
ENDBRANCH  23  24
ENDBRANCH  11  23
TORSDOF 6
ENDMDL
MODEL 6
REMARK VINA RESULT:      -7.0      3.479      4.900
REMARK  6 active torsions:
REMARK  status: ('A' for Active; 'I' for Inactive)
REMARK    1  A    between atoms: C2_2  and  O1_3 
REMARK    2  A    between atoms: O1_3  and  C3_4 
REMARK    3  A    between atoms: C6_9  and  N3_10 
REMARK    4  A    between atoms: C15_22  and  C16_23 
REMARK    5  A    between atoms: C16_23  and  C17_24 
REMARK    6  A    between atoms: C17_24  and  N4_25 
ROOT
HETATM    1  C3  UNL     1      24.479   3.363  51.581  1.00  0.00     0.203 C 
HETATM    2  C4  UNL     1      23.136   3.931  51.300  1.00  0.00     0.081 A 
HETATM    3  N1  UNL     1      23.045   5.278  51.214  1.00  0.00    -0.243 NA
HETATM    4  C5  UNL     1      21.858   5.883  50.964  1.00  0.00     0.235 A 
HETATM    5  N2  UNL     1      20.712   5.170  50.788  1.00  0.00    -0.224 NA
HETATM    6  C6  UNL     1      20.776   3.812  50.869  1.00  0.00     0.139 A 
HETATM    7  C12 UNL     1      21.982   3.195  51.123  1.00  0.00     0.039 A 
HETATM    8  C13 UNL     1      21.759   1.755  51.151  1.00  0.00     0.041 C 
HETATM    9  C14 UNL     1      22.645   0.880  51.647  1.00  0.00     0.136 C 
HETATM   10  O2  UNL     1      23.894   1.096  52.212  1.00  0.00    -0.355 OA
HETATM   11  C15 UNL     1      24.352   2.342  52.702  1.00  0.00     0.164 C 
ENDROOT
BRANCH   6  12
HETATM   12  N3  UNL     1      19.515   3.179  50.673  1.00  0.00    -0.360 N 
HETATM   13  C7  UNL     1      18.528   2.611  51.607  1.00  0.00     0.154 C 
HETATM   14  C8  UNL     1      17.251   3.377  51.533  1.00  0.00     0.032 C 
HETATM   15  C9  UNL     1      17.065   3.946  50.348  1.00  0.00     0.111 C 
HETATM   16  F1  UNL     1      15.959   4.692  50.075  1.00  0.00    -0.209 F 
HETATM   17  C10 UNL     1      17.879   3.960  49.108  1.00  0.00     0.162 C 
HETATM   18 CL1  UNL     1      16.875   3.439  47.722  1.00  0.00    -0.116 Cl
HETATM   19  C11 UNL     1      19.076   3.047  49.281  1.00  0.00     0.152 C 
ENDBRANCH   6  12
BRANCH   1  20
HETATM   20  O1  UNL     1      25.073   2.809  50.472  1.00  0.00    -0.377 OA
BRANCH  20  21
HETATM   21  C2  UNL     1      26.382   3.303  50.298  1.00  0.00     0.164 C 
HETATM   22  C1  UNL     1      26.434   4.415  49.271  1.00  0.00     0.033 C 
ENDBRANCH  20  21
ENDBRANCH   1  20
BRANCH  11  23
HETATM   23  C16 UNL     1      25.627   2.213  53.504  1.00  0.00     0.066 C 
BRANCH  23  24
HETATM   24  C17 UNL     1      26.334   0.920  53.260  1.00  0.00     0.278 C 
BRANCH  24  25
HETATM   25  N4  UNL     1      27.729   1.155  52.957  1.00  0.00     0.113 N 
HETATM   26  C18 UNL     1      28.577   0.093  53.461  1.00  0.00     0.301 C 
HETATM   27  C19 UNL     1      28.851   0.602  54.884  1.00  0.00     0.200 C 
HETATM   28  O3  UNL     1      29.145   1.930  54.592  1.00  0.00    -0.361 OA
HETATM   29  C20 UNL     1      28.255   2.319  53.594  1.00  0.00     0.440 C 
ENDBRANCH  24  25
ENDBRANCH  23  24
ENDBRANCH  11  23
TORSDOF 6
ENDMDL
MODEL 7
REMARK VINA RESULT:      -7.0      3.606      7.188
REMARK  6 active torsions:
REMARK  status: ('A' for Active; 'I' for Inactive)
REMARK    1  A    between atoms: C2_2  and  O1_3 
REMARK    2  A    between atoms: O1_3  and  C3_4 
REMARK    3  A    between atoms: C6_9  and  N3_10 
REMARK    4  A    between atoms: C15_22  and  C16_23 
REMARK    5  A    between atoms: C16_23  and  C17_24 
REMARK    6  A    between atoms: C17_24  and  N4_25 
ROOT
HETATM    1  C3  UNL     1      23.034   4.498  50.392  1.00  0.00     0.203 C 
HETATM    2  C4  UNL     1      24.423   3.977  50.465  1.00  0.00     0.081 A 
HETATM    3  N1  UNL     1      25.297   4.427  49.536  1.00  0.00    -0.243 NA
HETATM    4  C5  UNL     1      26.585   4.003  49.525  1.00  0.00     0.235 A 
HETATM    5  N2  UNL     1      27.055   3.114  50.442  1.00  0.00    -0.224 NA
HETATM    6  C6  UNL     1      26.195   2.645  51.388  1.00  0.00     0.139 A 
HETATM    7  C12 UNL     1      24.886   3.075  51.401  1.00  0.00     0.039 A 
HETATM    8  C13 UNL     1      24.204   2.421  52.511  1.00  0.00     0.041 C 
HETATM    9  C14 UNL     1      22.871   2.390  52.643  1.00  0.00     0.136 C 
HETATM   10  O2  UNL     1      21.879   2.924  51.831  1.00  0.00    -0.355 OA
HETATM   11  C15 UNL     1      22.069   3.326  50.487  1.00  0.00     0.164 C 
ENDROOT
BRANCH   6  12
HETATM   12  N3  UNL     1      26.802   1.718  52.285  1.00  0.00    -0.360 N 
HETATM   13  C7  UNL     1      27.244   1.829  53.686  1.00  0.00     0.154 C 
HETATM   14  C8  UNL     1      26.446   0.913  54.550  1.00  0.00     0.032 C 
HETATM   15  C9  UNL     1      25.988  -0.143  53.887  1.00  0.00     0.111 C 
HETATM   16  F1  UNL     1      25.236  -1.102  54.496  1.00  0.00    -0.209 F 
HETATM   17  C10 UNL     1      26.121  -0.570  52.473  1.00  0.00     0.162 C 
HETATM   18 CL1  UNL     1      26.740  -2.247  52.404  1.00  0.00    -0.116 Cl
HETATM   19  C11 UNL     1      27.052   0.379  51.746  1.00  0.00     0.152 C 
ENDBRANCH   6  12
BRANCH   1  20
HETATM   20  O1  UNL     1      22.761   5.443  51.351  1.00  0.00    -0.377 OA
BRANCH  20  21
HETATM   21  C2  UNL     1      22.804   6.744  50.808  1.00  0.00     0.164 C 
HETATM   22  C1  UNL     1      21.418   7.332  50.641  1.00  0.00     0.033 C 
ENDBRANCH  20  21
ENDBRANCH   1  20
BRANCH  11  23
HETATM   23  C16 UNL     1      20.762   3.604  49.779  1.00  0.00     0.066 C 
BRANCH  23  24
HETATM   24  C17 UNL     1      19.628   3.823  50.726  1.00  0.00     0.278 C 
BRANCH  24  25
HETATM   25  N4  UNL     1      18.499   2.993  50.364  1.00  0.00     0.113 N 
HETATM   26  C18 UNL     1      17.928   2.328  51.519  1.00  0.00     0.301 C 
HETATM   27  C19 UNL     1      18.787   1.055  51.565  1.00  0.00     0.200 C 
HETATM   28  O3  UNL     1      18.751   0.714  50.217  1.00  0.00    -0.361 OA
HETATM   29  C20 UNL     1      18.851   1.907  49.507  1.00  0.00     0.440 C 
ENDBRANCH  24  25
ENDBRANCH  23  24
ENDBRANCH  11  23
TORSDOF 6
ENDMDL
MODEL 8
REMARK VINA RESULT:      -6.9      2.258      2.742
REMARK  6 active torsions:
REMARK  status: ('A' for Active; 'I' for Inactive)
REMARK    1  A    between atoms: C2_2  and  O1_3 
REMARK    2  A    between atoms: O1_3  and  C3_4 
REMARK    3  A    between atoms: C6_9  and  N3_10 
REMARK    4  A    between atoms: C15_22  and  C16_23 
REMARK    5  A    between atoms: C16_23  and  C17_24 
REMARK    6  A    between atoms: C17_24  and  N4_25 
ROOT
HETATM    1  C3  UNL     1      23.273   1.831  51.273  1.00  0.00     0.203 C 
HETATM    2  C4  UNL     1      22.917   2.994  50.422  1.00  0.00     0.081 A 
HETATM    3  N1  UNL     1      22.560   2.733  49.143  1.00  0.00    -0.243 NA
HETATM    4  C5  UNL     1      22.222   3.735  48.294  1.00  0.00     0.235 A 
HETATM    5  N2  UNL     1      22.224   5.039  48.685  1.00  0.00    -0.224 NA
HETATM    6  C6  UNL     1      22.579   5.329  49.968  1.00  0.00     0.139 A 
HETATM    7  C12 UNL     1      22.923   4.312  50.832  1.00  0.00     0.039 A 
HETATM    8  C13 UNL     1      23.251   4.905  52.123  1.00  0.00     0.041 C 
HETATM    9  C14 UNL     1      23.892   4.244  53.097  1.00  0.00     0.136 C 
HETATM   10  O2  UNL     1      24.369   2.941  53.130  1.00  0.00    -0.355 OA
HETATM   11  C15 UNL     1      24.582   2.133  51.988  1.00  0.00     0.164 C 
ENDROOT
BRANCH   6  12
HETATM   12  N3  UNL     1      22.548   6.724  50.255  1.00  0.00    -0.360 N 
HETATM   13  C7  UNL     1      23.579   7.775  50.204  1.00  0.00     0.154 C 
HETATM   14  C8  UNL     1      23.220   8.796  49.178  1.00  0.00     0.032 C 
HETATM   15  C9  UNL     1      21.910   8.884  48.982  1.00  0.00     0.111 C 
HETATM   16  F1  UNL     1      21.375   9.758  48.085  1.00  0.00    -0.209 F 
HETATM   17  C10 UNL     1      20.759   8.167  49.584  1.00  0.00     0.162 C 
HETATM   18 CL1  UNL     1      19.575   9.350  50.215  1.00  0.00    -0.116 Cl
HETATM   19  C11 UNL     1      21.256   7.258  50.690  1.00  0.00     0.152 C 
ENDBRANCH   6  12
BRANCH   1  20
HETATM   20  O1  UNL     1      22.287   1.495  52.168  1.00  0.00    -0.377 OA
BRANCH  20  21
HETATM   21  C2  UNL     1      21.795   0.197  51.917  1.00  0.00     0.164 C 
HETATM   22  C1  UNL     1      21.498  -0.552  53.199  1.00  0.00     0.033 C 
ENDBRANCH  20  21
ENDBRANCH   1  20
BRANCH  11  23
HETATM   23  C16 UNL     1      25.361   0.877  52.308  1.00  0.00     0.066 C 
BRANCH  23  24
HETATM   24  C17 UNL     1      26.545   1.138  53.180  1.00  0.00     0.278 C 
BRANCH  24  25
HETATM   25  N4  UNL     1      26.822  -0.010  54.016  1.00  0.00     0.113 N 
HETATM   26  C18 UNL     1      28.051   0.152  54.766  1.00  0.00     0.301 C 
HETATM   27  C19 UNL     1      29.072  -0.396  53.758  1.00  0.00     0.200 C 
HETATM   28  O3  UNL     1      28.399  -1.549  53.366  1.00  0.00    -0.361 OA
HETATM   29  C20 UNL     1      27.053  -1.205  53.270  1.00  0.00     0.440 C 
ENDBRANCH  24  25
ENDBRANCH  23  24
ENDBRANCH  11  23
TORSDOF 6
ENDMDL
MODEL 9
REMARK VINA RESULT:      -6.9      4.867      7.789
REMARK  6 active torsions:
REMARK  status: ('A' for Active; 'I' for Inactive)
REMARK    1  A    between atoms: C2_2  and  O1_3 
REMARK    2  A    between atoms: O1_3  and  C3_4 
REMARK    3  A    between atoms: C6_9  and  N3_10 
REMARK    4  A    between atoms: C15_22  and  C16_23 
REMARK    5  A    between atoms: C16_23  and  C17_24 
REMARK    6  A    between atoms: C17_24  and  N4_25 
ROOT
HETATM    1  C3  UNL     1      26.272   7.833  48.571  1.00  0.00     0.203 C 
HETATM    2  C4  UNL     1      25.379   7.025  49.439  1.00  0.00     0.081 A 
HETATM    3  N1  UNL     1      24.358   7.674  50.045  1.00  0.00    -0.243 NA
HETATM    4  C5  UNL     1      23.495   7.016  50.857  1.00  0.00     0.235 A 
HETATM    5  N2  UNL     1      23.614   5.681  51.099  1.00  0.00    -0.224 NA
HETATM    6  C6  UNL     1      24.633   5.003  50.501  1.00  0.00     0.139 A 
HETATM    7  C12 UNL     1      25.511   5.671  49.675  1.00  0.00     0.039 A 
HETATM    8  C13 UNL     1      26.486   4.709  49.176  1.00  0.00     0.041 C 
HETATM    9  C14 UNL     1      27.635   5.062  48.584  1.00  0.00     0.136 C 
HETATM   10  O2  UNL     1      28.152   6.323  48.314  1.00  0.00    -0.355 OA
HETATM   11  C15 UNL     1      27.716   7.520  48.931  1.00  0.00     0.164 C 
ENDROOT
BRANCH   6  12
HETATM   12  N3  UNL     1      24.655   3.618  50.835  1.00  0.00    -0.360 N 
HETATM   13  C7  UNL     1      25.478   2.831  51.769  1.00  0.00     0.154 C 
HETATM   14  C8  UNL     1      24.623   2.253  52.844  1.00  0.00     0.032 C 
HETATM   15  C9  UNL     1      23.369   2.061  52.451  1.00  0.00     0.111 C 
HETATM   16  F1  UNL     1      22.427   1.540  53.285  1.00  0.00    -0.209 F 
HETATM   17  C10 UNL     1      22.676   2.311  51.164  1.00  0.00     0.162 C 
HETATM   18 CL1  UNL     1      21.853   0.819  50.621  1.00  0.00    -0.116 Cl
HETATM   19  C11 UNL     1      23.684   2.777  50.132  1.00  0.00     0.152 C 
ENDBRANCH   6  12
BRANCH   1  20
HETATM   20  O1  UNL     1      26.043   7.638  47.230  1.00  0.00    -0.377 OA
BRANCH  20  21
HETATM   21  C2  UNL     1      25.134   8.592  46.727  1.00  0.00     0.164 C 
HETATM   22  C1  UNL     1      23.918   7.939  46.103  1.00  0.00     0.033 C 
ENDBRANCH  20  21
ENDBRANCH   1  20
BRANCH  11  23
HETATM   23  C16 UNL     1      28.641   8.682  48.648  1.00  0.00     0.066 C 
BRANCH  23  24
HETATM   24  C17 UNL     1      29.617   8.391  47.556  1.00  0.00     0.278 C 
BRANCH  24  25
HETATM   25  N4  UNL     1      30.964   8.703  47.985  1.00  0.00     0.113 N 
HETATM   26  C18 UNL     1      31.892   7.637  47.663  1.00  0.00     0.301 C 
HETATM   27  C19 UNL     1      31.751   6.754  48.912  1.00  0.00     0.200 C 
HETATM   28  O3  UNL     1      31.814   7.742  49.891  1.00  0.00    -0.361 OA
HETATM   29  C20 UNL     1      31.088   8.825  49.402  1.00  0.00     0.440 C 
ENDBRANCH  24  25
ENDBRANCH  23  24
ENDBRANCH  11  23
TORSDOF 6
ENDMDL
