MODEL 1
REMARK VINA RESULT:      -7.4      0.000      0.000
REMARK  9 active torsions:
REMARK  status: ('A' for Active; 'I' for Inactive)
REMARK    1  A    between atoms: C2_2  and  C3_3 
REMARK    2  A    between atoms: C3_3  and  O1_4 
REMARK    3  A    between atoms: C3_3  and  C4_5 
REMARK    4  A    between atoms: C4_5  and  O2_6 
REMARK    5  A    between atoms: O2_6  and  C5_7 
REMARK    6  A    between atoms: N1_9  and  C7_10 
REMARK    7  A    between atoms: C9_12  and  C10_13 
REMARK    8  A    between atoms: C11_14  and  C12_16 
REMARK    9  A    between atoms: C17_23  and  O4_24 
ROOT
HETATM    1  C5  UNL     1      25.494   1.056  52.983  1.00  0.00     0.118 A 
HETATM    2  C6  UNL     1      25.288   1.875  51.956  1.00  0.00     0.136 A 
HETATM    3  N1  UNL     1      24.280   2.241  51.007  1.00  0.00    -0.334 N 
HETATM    4  C13 UNL     1      22.942   1.769  50.910  1.00  0.00     0.100 A 
HETATM    5  C14 UNL     1      22.088   0.943  51.467  1.00  0.00     0.072 A 
HETATM    6  C15 UNL     1      22.234   0.034  52.607  1.00  0.00     0.175 A 
HETATM    7  O3  UNL     1      21.165  -0.555  52.912  1.00  0.00    -0.288 OA
HETATM    8  C16 UNL     1      23.325  -0.376  53.502  1.00  0.00     0.094 A 
HETATM    9  C17 UNL     1      24.569   0.071  53.585  1.00  0.00     0.106 A 
ENDROOT
BRANCH   3  10
HETATM   10  C7  UNL     1      24.704   3.198  50.054  1.00  0.00     0.012 C 
HETATM   11  C8  UNL     1      23.706   3.517  48.988  1.00  0.00     0.068 C 
HETATM   12  C9  UNL     1      25.875   3.807  50.042  1.00  0.00     0.028 C 
BRANCH  12  13
HETATM   13  C10 UNL     1      26.290   4.782  49.060  1.00  0.00     0.041 C 
HETATM   14  C11 UNL     1      26.220   6.077  49.303  1.00  0.00     0.107 C 
HETATM   15  F1  UNL     1      25.759   6.556  50.479  1.00  0.00    -0.210 F 
BRANCH  14  16
HETATM   16  C12 UNL     1      26.646   7.070  48.290  1.00  0.00     0.184 C 
HETATM   17 CL1  UNL     1      28.306   6.775  47.736  1.00  0.00    -0.123 Cl
ENDBRANCH  14  16
ENDBRANCH  12  13
ENDBRANCH   3  10
BRANCH   1  18
HETATM   18  O2  UNL     1      26.714   1.099  53.591  1.00  0.00    -0.344 OA
BRANCH  18  19
HETATM   19  C4  UNL     1      27.690   2.083  53.527  1.00  0.00     0.207 C 
BRANCH  19  20
HETATM   20  C3  UNL     1      29.085   1.549  53.845  1.00  0.00     0.142 C 
BRANCH  20  21
HETATM   21  C2  UNL     1      28.938   0.175  54.472  1.00  0.00     0.029 C 
HETATM   22  C1  UNL     1      29.760  -0.838  53.724  1.00  0.00     0.007 C 
ENDBRANCH  20  21
BRANCH  20  23
HETATM   23  O1  UNL     1      29.705   2.356  54.804  1.00  0.00    -0.393 OA
HETATM   24  H7  UNL     1      30.690   2.319  54.724  1.00  0.00     0.210 HD
ENDBRANCH  20  23
ENDBRANCH  19  20
ENDBRANCH  18  19
ENDBRANCH   1  18
BRANCH   9  25
HETATM   25  O4  UNL     1      25.255  -0.614  54.586  1.00  0.00    -0.353 OA
HETATM   26  C18 UNL     1      24.473  -1.225  55.595  1.00  0.00     0.210 C 
ENDBRANCH   9  25
TORSDOF 9
ENDMDL
MODEL 2
REMARK VINA RESULT:      -7.4      1.835      2.286
REMARK  9 active torsions:
REMARK  status: ('A' for Active; 'I' for Inactive)
REMARK    1  A    between atoms: C2_2  and  C3_3 
REMARK    2  A    between atoms: C3_3  and  O1_4 
REMARK    3  A    between atoms: C3_3  and  C4_5 
REMARK    4  A    between atoms: C4_5  and  O2_6 
REMARK    5  A    between atoms: O2_6  and  C5_7 
REMARK    6  A    between atoms: N1_9  and  C7_10 
REMARK    7  A    between atoms: C9_12  and  C10_13 
REMARK    8  A    between atoms: C11_14  and  C12_16 
REMARK    9  A    between atoms: C17_23  and  O4_24 
ROOT
HETATM    1  C5  UNL     1      26.676   1.974  51.841  1.00  0.00     0.118 A 
HETATM    2  C6  UNL     1      26.546   2.975  50.974  1.00  0.00     0.136 A 
HETATM    3  N1  UNL     1      25.564   3.616  50.152  1.00  0.00    -0.334 N 
HETATM    4  C13 UNL     1      24.174   3.334  50.050  1.00  0.00     0.100 A 
HETATM    5  C14 UNL     1      23.238   2.536  50.508  1.00  0.00     0.072 A 
HETATM    6  C15 UNL     1      23.302   1.436  51.473  1.00  0.00     0.175 A 
HETATM    7  O3  UNL     1      22.176   0.939  51.734  1.00  0.00    -0.288 OA
HETATM    8  C16 UNL     1      24.359   0.750  52.230  1.00  0.00     0.094 A 
HETATM    9  C17 UNL     1      25.652   1.022  52.321  1.00  0.00     0.106 A 
ENDROOT
BRANCH   3  10
HETATM   10  C7  UNL     1      26.078   4.662  49.349  1.00  0.00     0.012 C 
HETATM   11  C8  UNL     1      25.068   5.665  48.891  1.00  0.00     0.068 C 
HETATM   12  C9  UNL     1      27.340   4.809  48.989  1.00  0.00     0.028 C 
BRANCH  12  13
HETATM   13  C10 UNL     1      27.845   5.884  48.168  1.00  0.00     0.041 C 
HETATM   14  C11 UNL     1      29.137   6.136  48.079  1.00  0.00     0.107 C 
HETATM   15  F1  UNL     1      30.051   5.402  48.750  1.00  0.00    -0.210 F 
BRANCH  14  16
HETATM   16  C12 UNL     1      29.647   7.240  47.235  1.00  0.00     0.184 C 
HETATM   17 CL1  UNL     1      28.342   8.037  46.334  1.00  0.00    -0.123 Cl
ENDBRANCH  14  16
ENDBRANCH  12  13
ENDBRANCH   3  10
BRANCH   1  18
HETATM   18  O2  UNL     1      27.911   1.765  52.382  1.00  0.00    -0.344 OA
BRANCH  18  19
HETATM   19  C4  UNL     1      28.488   2.348  53.500  1.00  0.00     0.207 C 
BRANCH  19  20
HETATM   20  C3  UNL     1      29.245   1.342  54.364  1.00  0.00     0.142 C 
BRANCH  20  21
HETATM   21  C2  UNL     1      29.952   0.363  53.445  1.00  0.00     0.029 C 
HETATM   22  C1  UNL     1      29.731  -1.051  53.910  1.00  0.00     0.007 C 
ENDBRANCH  20  21
BRANCH  20  23
HETATM   23  O1  UNL     1      28.349   0.588  55.127  1.00  0.00    -0.393 OA
HETATM   24  H7  UNL     1      28.749   0.316  55.990  1.00  0.00     0.210 HD
ENDBRANCH  20  23
ENDBRANCH  19  20
ENDBRANCH  18  19
ENDBRANCH   1  18
BRANCH   9  25
HETATM   25  O4  UNL     1      26.275   0.099  53.158  1.00  0.00    -0.353 OA
HETATM   26  C18 UNL     1      26.282  -1.250  52.730  1.00  0.00     0.210 C 
ENDBRANCH   9  25
TORSDOF 9
ENDMDL
MODEL 3
REMARK VINA RESULT:      -7.2      1.350      1.749
REMARK  9 active torsions:
REMARK  status: ('A' for Active; 'I' for Inactive)
REMARK    1  A    between atoms: C2_2  and  C3_3 
REMARK    2  A    between atoms: C3_3  and  O1_4 
REMARK    3  A    between atoms: C3_3  and  C4_5 
REMARK    4  A    between atoms: C4_5  and  O2_6 
REMARK    5  A    between atoms: O2_6  and  C5_7 
REMARK    6  A    between atoms: N1_9  and  C7_10 
REMARK    7  A    between atoms: C9_12  and  C10_13 
REMARK    8  A    between atoms: C11_14  and  C12_16 
REMARK    9  A    between atoms: C17_23  and  O4_24 
ROOT
HETATM    1  C5  UNL     1      24.423   0.753  52.957  1.00  0.00     0.118 A 
HETATM    2  C6  UNL     1      24.737   1.673  52.049  1.00  0.00     0.136 A 
HETATM    3  N1  UNL     1      24.202   2.322  50.890  1.00  0.00    -0.334 N 
HETATM    4  C13 UNL     1      22.917   2.165  50.301  1.00  0.00     0.100 A 
HETATM    5  C14 UNL     1      21.788   1.508  50.427  1.00  0.00     0.072 A 
HETATM    6  C15 UNL     1      21.365   0.506  51.409  1.00  0.00     0.175 A 
HETATM    7  O3  UNL     1      20.167   0.147  51.266  1.00  0.00    -0.288 OA
HETATM    8  C16 UNL     1      21.986  -0.200  52.538  1.00  0.00     0.094 A 
HETATM    9  C17 UNL     1      23.185  -0.045  53.081  1.00  0.00     0.106 A 
ENDROOT
BRANCH   3  10
HETATM   10  C7  UNL     1      25.095   3.231  50.273  1.00  0.00     0.012 C 
HETATM   11  C8  UNL     1      26.542   2.870  50.381  1.00  0.00     0.068 C 
HETATM   12  C9  UNL     1      24.752   4.333  49.633  1.00  0.00     0.028 C 
BRANCH  12  13
HETATM   13  C10 UNL     1      25.679   5.249  49.010  1.00  0.00     0.041 C 
HETATM   14  C11 UNL     1      25.992   6.402  49.571  1.00  0.00     0.107 C 
HETATM   15  F1  UNL     1      25.461   6.783  50.754  1.00  0.00    -0.210 F 
BRANCH  14  16
HETATM   16  C12 UNL     1      26.942   7.336  48.926  1.00  0.00     0.184 C 
HETATM   17 CL1  UNL     1      28.203   6.473  48.024  1.00  0.00    -0.123 Cl
ENDBRANCH  14  16
ENDBRANCH  12  13
ENDBRANCH   3  10
BRANCH   1  18
HETATM   18  O2  UNL     1      25.346   0.481  53.924  1.00  0.00    -0.344 OA
BRANCH  18  19
HETATM   19  C4  UNL     1      26.481   1.195  54.278  1.00  0.00     0.207 C 
BRANCH  19  20
HETATM   20  C3  UNL     1      27.659   0.290  54.630  1.00  0.00     0.142 C 
BRANCH  20  21
HETATM   21  C2  UNL     1      28.936   0.968  54.171  1.00  0.00     0.029 C 
HETATM   22  C1  UNL     1      28.641   2.344  53.638  1.00  0.00     0.007 C 
ENDBRANCH  20  21
BRANCH  20  23
HETATM   23  O1  UNL     1      27.575  -0.912  53.921  1.00  0.00    -0.393 OA
HETATM   24  H7  UNL     1      26.755  -0.949  53.368  1.00  0.00     0.210 HD
ENDBRANCH  20  23
ENDBRANCH  19  20
ENDBRANCH  18  19
ENDBRANCH   1  18
BRANCH   9  25
HETATM   25  O4  UNL     1      23.347  -0.938  54.138  1.00  0.00    -0.353 OA
HETATM   26  C18 UNL     1      22.190  -1.263  54.885  1.00  0.00     0.210 C 
ENDBRANCH   9  25
TORSDOF 9
ENDMDL
MODEL 4
REMARK VINA RESULT:      -7.2      3.787      6.254
REMARK  9 active torsions:
REMARK  status: ('A' for Active; 'I' for Inactive)
REMARK    1  A    between atoms: C2_2  and  C3_3 
REMARK    2  A    between atoms: C3_3  and  O1_4 
REMARK    3  A    between atoms: C3_3  and  C4_5 
REMARK    4  A    between atoms: C4_5  and  O2_6 
REMARK    5  A    between atoms: O2_6  and  C5_7 
REMARK    6  A    between atoms: N1_9  and  C7_10 
REMARK    7  A    between atoms: C9_12  and  C10_13 
REMARK    8  A    between atoms: C11_14  and  C12_16 
REMARK    9  A    between atoms: C17_23  and  O4_24 
ROOT
HETATM    1  C5  UNL     1      25.465   2.197  51.788  1.00  0.00     0.118 A 
HETATM    2  C6  UNL     1      24.214   1.766  51.656  1.00  0.00     0.136 A 
HETATM    3  N1  UNL     1      23.310   0.790  52.186  1.00  0.00    -0.334 N 
HETATM    4  C13 UNL     1      23.529  -0.138  53.240  1.00  0.00     0.100 A 
HETATM    5  C14 UNL     1      24.437  -0.546  54.097  1.00  0.00     0.072 A 
HETATM    6  C15 UNL     1      25.817  -0.105  54.315  1.00  0.00     0.175 A 
HETATM    7  O3  UNL     1      26.371  -0.675  55.290  1.00  0.00    -0.288 OA
HETATM    8  C16 UNL     1      26.738   0.848  53.680  1.00  0.00     0.094 A 
HETATM    9  C17 UNL     1      26.524   1.712  52.699  1.00  0.00     0.106 A 
ENDROOT
BRANCH   3  10
HETATM   10  C7  UNL     1      22.042   0.775  51.557  1.00  0.00     0.012 C 
HETATM   11  C8  UNL     1      22.026   1.284  50.151  1.00  0.00     0.068 C 
HETATM   12  C9  UNL     1      20.916   0.357  52.103  1.00  0.00     0.028 C 
BRANCH  12  13
HETATM   13  C10 UNL     1      19.631   0.349  51.444  1.00  0.00     0.041 C 
HETATM   14  C11 UNL     1      18.796   1.366  51.548  1.00  0.00     0.107 C 
HETATM   15  F1  UNL     1      19.101   2.463  52.275  1.00  0.00    -0.210 F 
BRANCH  14  16
HETATM   16  C12 UNL     1      17.480   1.350  50.870  1.00  0.00     0.184 C 
HETATM   17 CL1  UNL     1      17.246  -0.131  49.921  1.00  0.00    -0.123 Cl
ENDBRANCH  14  16
ENDBRANCH  12  13
ENDBRANCH   3  10
BRANCH   1  18
HETATM   18  O2  UNL     1      25.865   3.229  50.989  1.00  0.00    -0.344 OA
BRANCH  18  19
HETATM   19  C4  UNL     1      25.104   4.234  50.410  1.00  0.00     0.207 C 
BRANCH  19  20
HETATM   20  C3  UNL     1      25.918   5.118  49.468  1.00  0.00     0.142 C 
BRANCH  20  21
HETATM   21  C2  UNL     1      27.158   4.351  49.046  1.00  0.00     0.029 C 
HETATM   22  C1  UNL     1      28.176   5.282  48.446  1.00  0.00     0.007 C 
ENDBRANCH  20  21
BRANCH  20  23
HETATM   23  O1  UNL     1      26.369   6.257  50.142  1.00  0.00    -0.393 OA
HETATM   24  H7  UNL     1      25.913   7.072  49.820  1.00  0.00     0.210 HD
ENDBRANCH  20  23
ENDBRANCH  19  20
ENDBRANCH  18  19
ENDBRANCH   1  18
BRANCH   9  25
HETATM   25  O4  UNL     1      27.694   2.414  52.419  1.00  0.00    -0.353 OA
HETATM   26  C18 UNL     1      28.660   2.485  53.450  1.00  0.00     0.210 C 
ENDBRANCH   9  25
TORSDOF 9
ENDMDL
MODEL 5
REMARK VINA RESULT:      -7.2      3.506      5.785
REMARK  9 active torsions:
REMARK  status: ('A' for Active; 'I' for Inactive)
REMARK    1  A    between atoms: C2_2  and  C3_3 
REMARK    2  A    between atoms: C3_3  and  O1_4 
REMARK    3  A    between atoms: C3_3  and  C4_5 
REMARK    4  A    between atoms: C4_5  and  O2_6 
REMARK    5  A    between atoms: O2_6  and  C5_7 
REMARK    6  A    between atoms: N1_9  and  C7_10 
REMARK    7  A    between atoms: C9_12  and  C10_13 
REMARK    8  A    between atoms: C11_14  and  C12_16 
REMARK    9  A    between atoms: C17_23  and  O4_24 
ROOT
HETATM    1  C5  UNL     1      22.476   2.417  52.321  1.00  0.00     0.118 A 
HETATM    2  C6  UNL     1      23.417   1.550  52.685  1.00  0.00     0.136 A 
HETATM    3  N1  UNL     1      23.569   0.239  53.239  1.00  0.00    -0.334 N 
HETATM    4  C13 UNL     1      22.558  -0.704  53.574  1.00  0.00     0.100 A 
HETATM    5  C14 UNL     1      21.256  -0.874  53.585  1.00  0.00     0.072 A 
HETATM    6  C15 UNL     1      20.168   0.019  53.178  1.00  0.00     0.175 A 
HETATM    7  O3  UNL     1      19.033  -0.517  53.255  1.00  0.00    -0.288 OA
HETATM    8  C16 UNL     1      20.057   1.403  52.695  1.00  0.00     0.094 A 
HETATM    9  C17 UNL     1      21.006   2.273  52.384  1.00  0.00     0.106 A 
ENDROOT
BRANCH   3  10
HETATM   10  C7  UNL     1      24.914  -0.138  53.472  1.00  0.00     0.012 C 
HETATM   11  C8  UNL     1      25.151  -0.892  54.741  1.00  0.00     0.068 C 
HETATM   12  C9  UNL     1      25.935   0.120  52.676  1.00  0.00     0.028 C 
BRANCH  12  13
HETATM   13  C10 UNL     1      27.301  -0.273  52.931  1.00  0.00     0.041 C 
HETATM   14  C11 UNL     1      28.173   0.567  53.457  1.00  0.00     0.107 C 
HETATM   15  F1  UNL     1      27.833   1.833  53.782  1.00  0.00    -0.210 F 
BRANCH  14  16
HETATM   16  C12 UNL     1      29.572   0.157  53.715  1.00  0.00     0.184 C 
HETATM   17 CL1  UNL     1      29.795  -1.592  53.509  1.00  0.00    -0.123 Cl
ENDBRANCH  14  16
ENDBRANCH  12  13
ENDBRANCH   3  10
BRANCH   1  18
HETATM   18  O2  UNL     1      22.885   3.615  51.814  1.00  0.00    -0.344 OA
BRANCH  18  19
HETATM   19  C4  UNL     1      24.156   4.172  51.796  1.00  0.00     0.207 C 
BRANCH  19  20
HETATM   20  C3  UNL     1      24.607   4.563  50.390  1.00  0.00     0.142 C 
BRANCH  20  21
HETATM   21  C2  UNL     1      25.154   3.326  49.704  1.00  0.00     0.029 C 
HETATM   22  C1  UNL     1      26.418   2.864  50.376  1.00  0.00     0.007 C 
ENDBRANCH  20  21
BRANCH  20  23
HETATM   23  O1  UNL     1      25.664   5.476  50.459  1.00  0.00    -0.393 OA
HETATM   24  H7  UNL     1      25.378   6.381  50.182  1.00  0.00     0.210 HD
ENDBRANCH  20  23
ENDBRANCH  19  20
ENDBRANCH  18  19
ENDBRANCH   1  18
BRANCH   9  25
HETATM   25  O4  UNL     1      20.433   3.473  51.969  1.00  0.00    -0.353 OA
HETATM   26  C18 UNL     1      19.127   3.407  51.429  1.00  0.00     0.210 C 
ENDBRANCH   9  25
TORSDOF 9
ENDMDL
MODEL 6
REMARK VINA RESULT:      -7.0      2.964      5.454
REMARK  9 active torsions:
REMARK  status: ('A' for Active; 'I' for Inactive)
REMARK    1  A    between atoms: C2_2  and  C3_3 
REMARK    2  A    between atoms: C3_3  and  O1_4 
REMARK    3  A    between atoms: C3_3  and  C4_5 
REMARK    4  A    between atoms: C4_5  and  O2_6 
REMARK    5  A    between atoms: O2_6  and  C5_7 
REMARK    6  A    between atoms: N1_9  and  C7_10 
REMARK    7  A    between atoms: C9_12  and  C10_13 
REMARK    8  A    between atoms: C11_14  and  C12_16 
REMARK    9  A    between atoms: C17_23  and  O4_24 
ROOT
HETATM    1  C5  UNL     1      26.013   2.248  51.694  1.00  0.00     0.118 A 
HETATM    2  C6  UNL     1      24.756   1.905  51.429  1.00  0.00     0.136 A 
HETATM    3  N1  UNL     1      23.724   1.020  51.881  1.00  0.00    -0.334 N 
HETATM    4  C13 UNL     1      23.747   0.122  52.983  1.00  0.00     0.100 A 
HETATM    5  C14 UNL     1      24.516  -0.315  53.953  1.00  0.00     0.072 A 
HETATM    6  C15 UNL     1      25.892   0.033  54.318  1.00  0.00     0.175 A 
HETATM    7  O3  UNL     1      26.284  -0.536  55.370  1.00  0.00    -0.288 OA
HETATM    8  C16 UNL     1      26.951   0.888  53.765  1.00  0.00     0.094 A 
HETATM    9  C17 UNL     1      26.919   1.724  52.738  1.00  0.00     0.106 A 
ENDROOT
BRANCH   3  10
HETATM   10  C7  UNL     1      22.540   1.072  51.107  1.00  0.00     0.012 C 
HETATM   11  C8  UNL     1      21.353   0.397  51.717  1.00  0.00     0.068 C 
HETATM   12  C9  UNL     1      22.414   1.653  49.928  1.00  0.00     0.028 C 
BRANCH  12  13
HETATM   13  C10 UNL     1      21.196   1.694  49.153  1.00  0.00     0.041 C 
HETATM   14  C11 UNL     1      20.665   2.838  48.764  1.00  0.00     0.107 C 
HETATM   15  F1  UNL     1      21.232   4.025  49.070  1.00  0.00    -0.210 F 
BRANCH  14  16
HETATM   16  C12 UNL     1      19.415   2.872  47.970  1.00  0.00     0.184 C 
HETATM   17 CL1  UNL     1      19.698   3.463  46.321  1.00  0.00    -0.123 Cl
ENDBRANCH  14  16
ENDBRANCH  12  13
ENDBRANCH   3  10
BRANCH   1  18
HETATM   18  O2  UNL     1      26.581   3.214  50.915  1.00  0.00    -0.344 OA
BRANCH  18  19
HETATM   19  C4  UNL     1      26.537   3.366  49.537  1.00  0.00     0.207 C 
BRANCH  19  20
HETATM   20  C3  UNL     1      26.302   4.814  49.112  1.00  0.00     0.142 C 
BRANCH  20  21
HETATM   21  C2  UNL     1      27.588   5.348  48.509  1.00  0.00     0.029 C 
HETATM   22  C1  UNL     1      27.558   6.851  48.447  1.00  0.00     0.007 C 
ENDBRANCH  20  21
BRANCH  20  23
HETATM   23  O1  UNL     1      26.033   5.608  50.231  1.00  0.00    -0.393 OA
HETATM   24  H7  UNL     1      25.072   5.839  50.287  1.00  0.00     0.210 HD
ENDBRANCH  20  23
ENDBRANCH  19  20
ENDBRANCH  18  19
ENDBRANCH   1  18
BRANCH   9  25
HETATM   25  O4  UNL     1      28.164   2.327  52.576  1.00  0.00    -0.353 OA
HETATM   26  C18 UNL     1      28.982   2.427  53.727  1.00  0.00     0.210 C 
ENDBRANCH   9  25
TORSDOF 9
ENDMDL
MODEL 7
REMARK VINA RESULT:      -6.9      1.931      2.388
REMARK  9 active torsions:
REMARK  status: ('A' for Active; 'I' for Inactive)
REMARK    1  A    between atoms: C2_2  and  C3_3 
REMARK    2  A    between atoms: C3_3  and  O1_4 
REMARK    3  A    between atoms: C3_3  and  C4_5 
REMARK    4  A    between atoms: C4_5  and  O2_6 
REMARK    5  A    between atoms: O2_6  and  C5_7 
REMARK    6  A    between atoms: N1_9  and  C7_10 
REMARK    7  A    between atoms: C9_12  and  C10_13 
REMARK    8  A    between atoms: C11_14  and  C12_16 
REMARK    9  A    between atoms: C17_23  and  O4_24 
ROOT
HETATM    1  C5  UNL     1      24.537   1.875  52.260  1.00  0.00     0.118 A 
HETATM    2  C6  UNL     1      24.715   3.049  51.661  1.00  0.00     0.136 A 
HETATM    3  N1  UNL     1      23.976   4.176  51.177  1.00  0.00    -0.334 N 
HETATM    4  C13 UNL     1      22.578   4.421  51.262  1.00  0.00     0.100 A 
HETATM    5  C14 UNL     1      21.455   3.899  51.697  1.00  0.00     0.072 A 
HETATM    6  C15 UNL     1      21.187   2.632  52.382  1.00  0.00     0.175 A 
HETATM    7  O3  UNL     1      19.984   2.498  52.725  1.00  0.00    -0.288 OA
HETATM    8  C16 UNL     1      21.973   1.456  52.781  1.00  0.00     0.094 A 
HETATM    9  C17 UNL     1      23.277   1.238  52.700  1.00  0.00     0.106 A 
ENDROOT
BRANCH   3  10
HETATM   10  C7  UNL     1      24.772   5.156  50.536  1.00  0.00     0.012 C 
HETATM   11  C8  UNL     1      24.555   6.558  51.009  1.00  0.00     0.068 C 
HETATM   12  C9  UNL     1      25.658   4.927  49.585  1.00  0.00     0.028 C 
BRANCH  12  13
HETATM   13  C10 UNL     1      26.460   5.941  48.942  1.00  0.00     0.041 C 
HETATM   14  C11 UNL     1      27.631   5.656  48.402  1.00  0.00     0.107 C 
HETATM   15  F1  UNL     1      28.136   4.403  48.425  1.00  0.00    -0.210 F 
BRANCH  14  16
HETATM   16  C12 UNL     1      28.448   6.702  47.746  1.00  0.00     0.184 C 
HETATM   17 CL1  UNL     1      27.451   8.054  47.174  1.00  0.00    -0.123 Cl
ENDBRANCH  14  16
ENDBRANCH  12  13
ENDBRANCH   3  10
BRANCH   1  18
HETATM   18  O2  UNL     1      25.647   1.125  52.521  1.00  0.00    -0.344 OA
BRANCH  18  19
HETATM   19  C4  UNL     1      26.736   1.423  53.326  1.00  0.00     0.207 C 
BRANCH  19  20
HETATM   20  C3  UNL     1      26.885   0.453  54.496  1.00  0.00     0.142 C 
BRANCH  20  21
HETATM   21  C2  UNL     1      28.364   0.183  54.705  1.00  0.00     0.029 C 
HETATM   22  C1  UNL     1      28.927  -0.602  53.552  1.00  0.00     0.007 C 
ENDBRANCH  20  21
BRANCH  20  23
HETATM   23  O1  UNL     1      26.302  -0.779  54.180  1.00  0.00    -0.393 OA
HETATM   24  H7  UNL     1      26.603  -1.105  53.296  1.00  0.00     0.210 HD
ENDBRANCH  20  23
ENDBRANCH  19  20
ENDBRANCH  18  19
ENDBRANCH   1  18
BRANCH   9  25
HETATM   25  O4  UNL     1      23.581  -0.026  53.201  1.00  0.00    -0.353 OA
HETATM   26  C18 UNL     1      22.530  -0.734  53.831  1.00  0.00     0.210 C 
ENDBRANCH   9  25
TORSDOF 9
ENDMDL
MODEL 8
REMARK VINA RESULT:      -6.9      4.539      7.754
REMARK  9 active torsions:
REMARK  status: ('A' for Active; 'I' for Inactive)
REMARK    1  A    between atoms: C2_2  and  C3_3 
REMARK    2  A    between atoms: C3_3  and  O1_4 
REMARK    3  A    between atoms: C3_3  and  C4_5 
REMARK    4  A    between atoms: C4_5  and  O2_6 
REMARK    5  A    between atoms: O2_6  and  C5_7 
REMARK    6  A    between atoms: N1_9  and  C7_10 
REMARK    7  A    between atoms: C9_12  and  C10_13 
REMARK    8  A    between atoms: C11_14  and  C12_16 
REMARK    9  A    between atoms: C17_23  and  O4_24 
ROOT
HETATM    1  C5  UNL     1      24.061   2.349  51.769  1.00  0.00     0.118 A 
HETATM    2  C6  UNL     1      23.307   1.458  52.406  1.00  0.00     0.136 A 
HETATM    3  N1  UNL     1      23.410   0.226  53.129  1.00  0.00    -0.334 N 
HETATM    4  C13 UNL     1      24.581  -0.503  53.474  1.00  0.00     0.100 A 
HETATM    5  C14 UNL     1      25.888  -0.490  53.354  1.00  0.00     0.072 A 
HETATM    6  C15 UNL     1      26.782   0.465  52.693  1.00  0.00     0.175 A 
HETATM    7  O3  UNL     1      28.000   0.194  52.851  1.00  0.00    -0.288 OA
HETATM    8  C16 UNL     1      26.621   1.678  51.879  1.00  0.00     0.094 A 
HETATM    9  C17 UNL     1      25.525   2.351  51.565  1.00  0.00     0.106 A 
ENDROOT
BRANCH   3  10
HETATM   10  C7  UNL     1      22.165  -0.309  53.539  1.00  0.00     0.012 C 
HETATM   11  C8  UNL     1      22.238  -1.306  54.651  1.00  0.00     0.068 C 
HETATM   12  C9  UNL     1      20.988   0.000  53.028  1.00  0.00     0.028 C 
BRANCH  12  13
HETATM   13  C10 UNL     1      19.727  -0.557  53.460  1.00  0.00     0.041 C 
HETATM   14  C11 UNL     1      18.719  -0.714  52.623  1.00  0.00     0.107 C 
HETATM   15  F1  UNL     1      18.815  -0.361  51.322  1.00  0.00    -0.210 F 
BRANCH  14  16
HETATM   16  C12 UNL     1      17.430  -1.285  53.074  1.00  0.00     0.184 C 
HETATM   17 CL1  UNL     1      17.633  -2.907  53.764  1.00  0.00    -0.123 Cl
ENDBRANCH  14  16
ENDBRANCH  12  13
ENDBRANCH   3  10
BRANCH   1  18
HETATM   18  O2  UNL     1      23.432   3.424  51.212  1.00  0.00    -0.344 OA
BRANCH  18  19
HETATM   19  C4  UNL     1      22.139   3.524  50.718  1.00  0.00     0.207 C 
BRANCH  19  20
HETATM   20  C3  UNL     1      22.089   3.484  49.192  1.00  0.00     0.142 C 
BRANCH  20  21
HETATM   21  C2  UNL     1      22.262   2.044  48.747  1.00  0.00     0.029 C 
HETATM   22  C1  UNL     1      21.029   1.242  49.063  1.00  0.00     0.007 C 
ENDBRANCH  20  21
BRANCH  20  23
HETATM   23  O1  UNL     1      23.167   4.195  48.654  1.00  0.00    -0.393 OA
HETATM   24  H7  UNL     1      23.983   3.638  48.616  1.00  0.00     0.210 HD
ENDBRANCH  20  23
ENDBRANCH  19  20
ENDBRANCH  18  19
ENDBRANCH   1  18
BRANCH   9  25
HETATM   25  O4  UNL     1      25.852   3.445  50.766  1.00  0.00    -0.353 OA
HETATM   26  C18 UNL     1      26.565   3.178  49.574  1.00  0.00     0.210 C 
ENDBRANCH   9  25
TORSDOF 9
ENDMDL
MODEL 9
REMARK VINA RESULT:      -6.9      3.897      6.422
REMARK  9 active torsions:
REMARK  status: ('A' for Active; 'I' for Inactive)
REMARK    1  A    between atoms: C2_2  and  C3_3 
REMARK    2  A    between atoms: C3_3  and  O1_4 
REMARK    3  A    between atoms: C3_3  and  C4_5 
REMARK    4  A    between atoms: C4_5  and  O2_6 
REMARK    5  A    between atoms: O2_6  and  C5_7 
REMARK    6  A    between atoms: N1_9  and  C7_10 
REMARK    7  A    between atoms: C9_12  and  C10_13 
REMARK    8  A    between atoms: C11_14  and  C12_16 
REMARK    9  A    between atoms: C17_23  and  O4_24 
ROOT
HETATM    1  C5  UNL     1      23.618   3.862  50.970  1.00  0.00     0.118 A 
HETATM    2  C6  UNL     1      24.417   2.897  51.415  1.00  0.00     0.136 A 
HETATM    3  N1  UNL     1      24.381   1.678  52.166  1.00  0.00    -0.334 N 
HETATM    4  C13 UNL     1      23.251   1.006  52.709  1.00  0.00     0.100 A 
HETATM    5  C14 UNL     1      21.946   1.090  52.824  1.00  0.00     0.072 A 
HETATM    6  C15 UNL     1      21.004   2.103  52.341  1.00  0.00     0.175 A 
HETATM    7  O3  UNL     1      19.802   1.811  52.571  1.00  0.00    -0.288 OA
HETATM    8  C16 UNL     1      21.099   3.395  51.647  1.00  0.00     0.094 A 
HETATM    9  C17 UNL     1      22.157   4.011  51.142  1.00  0.00     0.106 A 
ENDROOT
BRANCH   3  10
HETATM   10  C7  UNL     1      25.652   1.091  52.377  1.00  0.00     0.012 C 
HETATM   11  C8  UNL     1      26.809   1.879  51.851  1.00  0.00     0.068 C 
HETATM   12  C9  UNL     1      25.879  -0.059  52.984  1.00  0.00     0.028 C 
BRANCH  12  13
HETATM   13  C10 UNL     1      27.184  -0.641  53.190  1.00  0.00     0.041 C 
HETATM   14  C11 UNL     1      27.482  -1.845  52.737  1.00  0.00     0.107 C 
HETATM   15  F1  UNL     1      26.582  -2.591  52.061  1.00  0.00    -0.210 F 
BRANCH  14  16
HETATM   16  C12 UNL     1      28.822  -2.435  52.954  1.00  0.00     0.184 C 
HETATM   17 CL1  UNL     1      29.943  -1.272  53.687  1.00  0.00    -0.123 Cl
ENDBRANCH  14  16
ENDBRANCH  12  13
ENDBRANCH   3  10
BRANCH   1  18
HETATM   18  O2  UNL     1      24.188   4.871  50.251  1.00  0.00    -0.344 OA
BRANCH  18  19
HETATM   19  C4  UNL     1      25.468   4.956  49.721  1.00  0.00     0.207 C 
BRANCH  19  20
HETATM   20  C3  UNL     1      25.869   6.389  49.381  1.00  0.00     0.142 C 
BRANCH  20  21
HETATM   21  C2  UNL     1      27.117   6.343  48.519  1.00  0.00     0.029 C 
HETATM   22  C1  UNL     1      27.752   4.980  48.582  1.00  0.00     0.007 C 
ENDBRANCH  20  21
BRANCH  20  23
HETATM   23  O1  UNL     1      26.220   7.082  50.544  1.00  0.00    -0.393 OA
HETATM   24  H7  UNL     1      25.442   7.553  50.933  1.00  0.00     0.210 HD
ENDBRANCH  20  23
ENDBRANCH  19  20
ENDBRANCH  18  19
ENDBRANCH   1  18
BRANCH   9  25
HETATM   25  O4  UNL     1      21.774   5.223  50.571  1.00  0.00    -0.353 OA
HETATM   26  C18 UNL     1      20.411   5.361  50.217  1.00  0.00     0.210 C 
ENDBRANCH   9  25
TORSDOF 9
ENDMDL
