MODEL 1
REMARK VINA RESULT:      -8.7      0.000      0.000
REMARK  9 active torsions:
REMARK  status: ('A' for Active; 'I' for Inactive)
REMARK    1  A    between atoms: C4_5  and  C5_6 
REMARK    2  A    between atoms: C5_6  and  C6_7 
REMARK    3  A    between atoms: C6_7  and  N1_8 
REMARK    4  A    between atoms: N1_8  and  C7_9 
REMARK    5  A    between atoms: N1_8  and  C14_17 
REMARK    6  A    between atoms: C7_9  and  C8_10 
REMARK    7  A    between atoms: C11_13  and  O2_14 
REMARK    8  A    between atoms: C14_17  and  N2_19 
REMARK    9  A    between atoms: N2_19  and  C15_20 
ROOT
HETATM    1  N1  UNL     1      25.807   2.333  51.991  1.00  0.00    -0.353 N 
ENDROOT
BRANCH   1   2
HETATM    2  C6  UNL     1      26.839   2.681  51.034  1.00  0.00     0.132 C 
BRANCH   2   3
HETATM    3  C5  UNL     1      26.164   3.092  49.765  1.00  0.00     0.085 C 
BRANCH   3   4
HETATM    4  C4  UNL     1      26.578   4.454  49.325  1.00  0.00     0.054 A 
HETATM    5  O1  UNL     1      25.956   5.555  49.568  1.00  0.00    -0.327 OA
HETATM    6  C3  UNL     1      26.533   6.613  49.064  1.00  0.00     0.148 A 
HETATM    7  C2  UNL     1      27.690   6.189  48.393  1.00  0.00    -0.037 A 
HETATM    8  C1  UNL     1      28.729   6.973  47.631  1.00  0.00     0.050 C 
HETATM    9  C21 UNL     1      27.677   4.823  48.584  1.00  0.00     0.041 A 
ENDBRANCH   3   4
ENDBRANCH   2   3
ENDBRANCH   1   2
BRANCH   1  10
HETATM   10  C7  UNL     1      26.549   1.813  53.125  1.00  0.00     0.163 C 
BRANCH  10  11
HETATM   11  C8  UNL     1      26.970   0.423  53.011  1.00  0.00    -0.040 A 
HETATM   12  C9  UNL     1      26.347  -0.678  52.515  1.00  0.00     0.011 A 
HETATM   13  C10 UNL     1      26.873  -1.946  52.473  1.00  0.00     0.037 A 
HETATM   14  C11 UNL     1      28.164  -2.150  52.979  1.00  0.00     0.065 A 
HETATM   15  C12 UNL     1      28.862  -1.082  53.500  1.00  0.00     0.037 A 
HETATM   16  C13 UNL     1      28.252   0.150  53.499  1.00  0.00     0.011 A 
BRANCH  14  17
HETATM   17  O2  UNL     1      28.687  -3.428  52.935  1.00  0.00    -0.361 OA
HETATM   18  H13 UNL     1      28.789  -3.975  53.800  1.00  0.00     0.217 HD
ENDBRANCH  14  17
ENDBRANCH  10  11
ENDBRANCH   1  10
BRANCH   1  19
HETATM   19  C14 UNL     1      24.369   2.351  52.106  1.00  0.00     0.174 C 
HETATM   20  S1  UNL     1      23.719   3.773  52.600  1.00  0.00    -0.041 SA
BRANCH  19  21
HETATM   21  N2  UNL     1      23.297   1.424  51.923  1.00  0.00    -0.333 N 
HETATM   22  H16 UNL     1      22.940   1.284  50.957  1.00  0.00     0.168 HD
BRANCH  21  23
HETATM   23  C15 UNL     1      22.587   0.622  52.883  1.00  0.00     0.034 A 
HETATM   24  C16 UNL     1      23.331  -0.224  53.665  1.00  0.00     0.029 A 
HETATM   25  C17 UNL     1      22.699  -1.012  54.596  1.00  0.00     0.002 A 
HETATM   26  C18 UNL     1      21.320  -0.902  54.688  1.00  0.00     0.000 A 
HETATM   27  C19 UNL     1      20.542  -0.065  53.917  1.00  0.00     0.002 A 
HETATM   28  C20 UNL     1      21.224   0.714  52.989  1.00  0.00     0.029 A 
ENDBRANCH  21  23
ENDBRANCH  19  21
ENDBRANCH   1  19
TORSDOF 9
ENDMDL
MODEL 2
REMARK VINA RESULT:      -8.2      2.188      6.761
REMARK  9 active torsions:
REMARK  status: ('A' for Active; 'I' for Inactive)
REMARK    1  A    between atoms: C4_5  and  C5_6 
REMARK    2  A    between atoms: C5_6  and  C6_7 
REMARK    3  A    between atoms: C6_7  and  N1_8 
REMARK    4  A    between atoms: N1_8  and  C7_9 
REMARK    5  A    between atoms: N1_8  and  C14_17 
REMARK    6  A    between atoms: C7_9  and  C8_10 
REMARK    7  A    between atoms: C11_13  and  O2_14 
REMARK    8  A    between atoms: C14_17  and  N2_19 
REMARK    9  A    between atoms: N2_19  and  C15_20 
ROOT
HETATM    1  N1  UNL     1      24.649   2.779  52.172  1.00  0.00    -0.353 N 
ENDROOT
BRANCH   1   2
HETATM    2  C6  UNL     1      25.516   2.493  53.298  1.00  0.00     0.132 C 
BRANCH   2   3
HETATM    3  C5  UNL     1      26.915   2.395  52.782  1.00  0.00     0.085 C 
BRANCH   3   4
HETATM    4  C4  UNL     1      27.640   1.222  53.345  1.00  0.00     0.054 A 
HETATM    5  O1  UNL     1      28.114   1.119  54.539  1.00  0.00    -0.327 OA
HETATM    6  C3  UNL     1      28.708  -0.019  54.778  1.00  0.00     0.148 A 
HETATM    7  C2  UNL     1      28.635  -0.793  53.608  1.00  0.00    -0.037 A 
HETATM    8  C1  UNL     1      29.152  -2.178  53.312  1.00  0.00     0.050 C 
HETATM    9  C21 UNL     1      27.954   0.029  52.735  1.00  0.00     0.041 A 
ENDBRANCH   3   4
ENDBRANCH   2   3
ENDBRANCH   1   2
BRANCH   1  10
HETATM   10  C7  UNL     1      24.267   1.465  51.688  1.00  0.00     0.163 C 
BRANCH  10  11
HETATM   11  C8  UNL     1      23.259   0.776  52.484  1.00  0.00    -0.040 A 
HETATM   12  C9  UNL     1      21.932   1.004  52.665  1.00  0.00     0.011 A 
HETATM   13  C10 UNL     1      21.091   0.261  53.458  1.00  0.00     0.037 A 
HETATM   14  C11 UNL     1      21.624  -0.832  54.154  1.00  0.00     0.065 A 
HETATM   15  C12 UNL     1      22.963  -1.129  54.022  1.00  0.00     0.037 A 
HETATM   16  C13 UNL     1      23.724  -0.328  53.204  1.00  0.00     0.011 A 
BRANCH  14  17
HETATM   17  O2  UNL     1      20.775  -1.575  54.950  1.00  0.00    -0.361 OA
HETATM   18  H13 UNL     1      19.763  -1.383  54.948  1.00  0.00     0.217 HD
ENDBRANCH  14  17
ENDBRANCH  10  11
ENDBRANCH   1  10
BRANCH   1  19
HETATM   19  C14 UNL     1      24.119   3.916  51.459  1.00  0.00     0.174 C 
HETATM   20  S1  UNL     1      22.994   4.793  52.266  1.00  0.00    -0.041 SA
BRANCH  19  21
HETATM   21  N2  UNL     1      24.290   4.509  50.170  1.00  0.00    -0.333 N 
HETATM   22  H16 UNL     1      23.453   4.587  49.560  1.00  0.00     0.168 HD
BRANCH  21  23
HETATM   23  C15 UNL     1      25.470   5.032  49.536  1.00  0.00     0.034 A 
HETATM   24  C16 UNL     1      25.458   6.358  49.187  1.00  0.00     0.029 A 
HETATM   25  C17 UNL     1      26.562   6.904  48.577  1.00  0.00     0.002 A 
HETATM   26  C18 UNL     1      27.640   6.063  48.346  1.00  0.00     0.000 A 
HETATM   27  C19 UNL     1      27.685   4.727  48.682  1.00  0.00     0.002 A 
HETATM   28  C20 UNL     1      26.547   4.217  49.298  1.00  0.00     0.029 A 
ENDBRANCH  21  23
ENDBRANCH  19  21
ENDBRANCH   1  19
TORSDOF 9
ENDMDL
MODEL 3
REMARK VINA RESULT:      -8.1      1.314      2.172
REMARK  9 active torsions:
REMARK  status: ('A' for Active; 'I' for Inactive)
REMARK    1  A    between atoms: C4_5  and  C5_6 
REMARK    2  A    between atoms: C5_6  and  C6_7 
REMARK    3  A    between atoms: C6_7  and  N1_8 
REMARK    4  A    between atoms: N1_8  and  C7_9 
REMARK    5  A    between atoms: N1_8  and  C14_17 
REMARK    6  A    between atoms: C7_9  and  C8_10 
REMARK    7  A    between atoms: C11_13  and  O2_14 
REMARK    8  A    between atoms: C14_17  and  N2_19 
REMARK    9  A    between atoms: N2_19  and  C15_20 
ROOT
HETATM    1  N1  UNL     1      25.140   3.075  50.825  1.00  0.00    -0.353 N 
ENDROOT
BRANCH   1   2
HETATM    2  C6  UNL     1      25.622   4.218  50.075  1.00  0.00     0.132 C 
BRANCH   2   3
HETATM    3  C5  UNL     1      26.823   3.781  49.300  1.00  0.00     0.085 C 
BRANCH   3   4
HETATM    4  C4  UNL     1      27.567   4.933  48.720  1.00  0.00     0.054 A 
HETATM    5  O1  UNL     1      28.813   4.952  48.396  1.00  0.00    -0.327 OA
HETATM    6  C3  UNL     1      29.218   6.093  47.907  1.00  0.00     0.148 A 
HETATM    7  C2  UNL     1      28.118   6.966  47.894  1.00  0.00    -0.037 A 
HETATM    8  C1  UNL     1      28.007   8.400  47.442  1.00  0.00     0.050 C 
HETATM    9  C21 UNL     1      27.102   6.193  48.414  1.00  0.00     0.041 A 
ENDBRANCH   3   4
ENDBRANCH   2   3
ENDBRANCH   1   2
BRANCH   1  10
HETATM   10  C7  UNL     1      26.156   2.062  50.604  1.00  0.00     0.163 C 
BRANCH  10  11
HETATM   11  C8  UNL     1      26.817   1.568  51.805  1.00  0.00    -0.040 A 
HETATM   12  C9  UNL     1      27.523   2.200  52.779  1.00  0.00     0.011 A 
HETATM   13  C10 UNL     1      28.099   1.597  53.871  1.00  0.00     0.037 A 
HETATM   14  C11 UNL     1      27.964   0.210  54.016  1.00  0.00     0.065 A 
HETATM   15  C12 UNL     1      27.261  -0.503  53.069  1.00  0.00     0.037 A 
HETATM   16  C13 UNL     1      26.719   0.188  52.011  1.00  0.00     0.011 A 
BRANCH  14  17
HETATM   17  O2  UNL     1      28.547  -0.391  55.114  1.00  0.00    -0.361 OA
HETATM   18  H13 UNL     1      28.011  -0.506  55.986  1.00  0.00     0.217 HD
ENDBRANCH  14  17
ENDBRANCH  10  11
ENDBRANCH   1  10
BRANCH   1  19
HETATM   19  C14 UNL     1      24.018   2.702  51.652  1.00  0.00     0.174 C 
HETATM   20  S1  UNL     1      23.730   3.682  52.935  1.00  0.00    -0.041 SA
BRANCH  19  21
HETATM   21  N2  UNL     1      23.050   1.651  51.682  1.00  0.00    -0.333 N 
HETATM   22  H16 UNL     1      22.552   1.429  50.798  1.00  0.00     0.168 HD
BRANCH  21  23
HETATM   23  C15 UNL     1      22.617   0.815  52.771  1.00  0.00     0.034 A 
HETATM   24  C16 UNL     1      21.316   0.946  53.180  1.00  0.00     0.029 A 
HETATM   25  C17 UNL     1      20.854   0.172  54.217  1.00  0.00     0.002 A 
HETATM   26  C18 UNL     1      21.752  -0.711  54.797  1.00  0.00     0.000 A 
HETATM   27  C19 UNL     1      23.067  -0.867  54.412  1.00  0.00     0.002 A 
HETATM   28  C20 UNL     1      23.490  -0.064  53.359  1.00  0.00     0.029 A 
ENDBRANCH  21  23
ENDBRANCH  19  21
ENDBRANCH   1  19
TORSDOF 9
ENDMDL
MODEL 4
REMARK VINA RESULT:      -8.0      2.202      6.829
REMARK  9 active torsions:
REMARK  status: ('A' for Active; 'I' for Inactive)
REMARK    1  A    between atoms: C4_5  and  C5_6 
REMARK    2  A    between atoms: C5_6  and  C6_7 
REMARK    3  A    between atoms: C6_7  and  N1_8 
REMARK    4  A    between atoms: N1_8  and  C7_9 
REMARK    5  A    between atoms: N1_8  and  C14_17 
REMARK    6  A    between atoms: C7_9  and  C8_10 
REMARK    7  A    between atoms: C11_13  and  O2_14 
REMARK    8  A    between atoms: C14_17  and  N2_19 
REMARK    9  A    between atoms: N2_19  and  C15_20 
ROOT
HETATM    1  N1  UNL     1      23.127   2.855  50.961  1.00  0.00    -0.353 N 
ENDROOT
BRANCH   1   2
HETATM    2  C6  UNL     1      21.785   2.351  50.752  1.00  0.00     0.132 C 
BRANCH   2   3
HETATM    3  C5  UNL     1      21.834   0.862  50.872  1.00  0.00     0.085 C 
BRANCH   3   4
HETATM    4  C4  UNL     1      21.799   0.411  52.291  1.00  0.00     0.054 A 
HETATM    5  O1  UNL     1      20.882   0.682  53.154  1.00  0.00    -0.327 OA
HETATM    6  C3  UNL     1      21.094   0.163  54.334  1.00  0.00     0.148 A 
HETATM    7  C2  UNL     1      22.302  -0.549  54.276  1.00  0.00    -0.037 A 
HETATM    8  C1  UNL     1      23.030  -1.337  55.336  1.00  0.00     0.050 C 
HETATM    9  C21 UNL     1      22.709  -0.365  52.972  1.00  0.00     0.041 A 
ENDBRANCH   3   4
ENDBRANCH   2   3
ENDBRANCH   1   2
BRANCH   1  10
HETATM   10  C7  UNL     1      23.738   2.769  49.647  1.00  0.00     0.163 C 
BRANCH  10  11
HETATM   11  C8  UNL     1      24.886   3.642  49.434  1.00  0.00    -0.040 A 
HETATM   12  C9  UNL     1      26.222   3.397  49.410  1.00  0.00     0.011 A 
HETATM   13  C10 UNL     1      27.204   4.332  49.194  1.00  0.00     0.037 A 
HETATM   14  C11 UNL     1      26.823   5.663  48.979  1.00  0.00     0.065 A 
HETATM   15  C12 UNL     1      25.485   5.993  48.987  1.00  0.00     0.037 A 
HETATM   16  C13 UNL     1      24.575   4.987  49.211  1.00  0.00     0.011 A 
BRANCH  14  17
HETATM   17  O2  UNL     1      27.815   6.600  48.764  1.00  0.00    -0.361 OA
HETATM   18  H13 UNL     1      28.664   6.343  48.241  1.00  0.00     0.217 HD
ENDBRANCH  14  17
ENDBRANCH  10  11
ENDBRANCH   1  10
BRANCH   1  19
HETATM   19  C14 UNL     1      23.951   3.366  52.030  1.00  0.00     0.174 C 
HETATM   20  S1  UNL     1      23.413   4.743  52.739  1.00  0.00    -0.041 SA
BRANCH  19  21
HETATM   21  N2  UNL     1      25.181   3.004  52.662  1.00  0.00    -0.333 N 
HETATM   22  H16 UNL     1      25.812   3.771  52.965  1.00  0.00     0.168 HD
BRANCH  21  23
HETATM   23  C15 UNL     1      25.728   1.706  52.956  1.00  0.00     0.034 A 
HETATM   24  C16 UNL     1      26.034   0.900  51.891  1.00  0.00     0.029 A 
HETATM   25  C17 UNL     1      26.558  -0.350  52.120  1.00  0.00     0.002 A 
HETATM   26  C18 UNL     1      26.748  -0.725  53.441  1.00  0.00     0.000 A 
HETATM   27  C19 UNL     1      26.450   0.060  54.535  1.00  0.00     0.002 A 
HETATM   28  C20 UNL     1      25.923   1.315  54.256  1.00  0.00     0.029 A 
ENDBRANCH  21  23
ENDBRANCH  19  21
ENDBRANCH   1  19
TORSDOF 9
ENDMDL
MODEL 5
REMARK VINA RESULT:      -8.0      2.034      4.393
REMARK  9 active torsions:
REMARK  status: ('A' for Active; 'I' for Inactive)
REMARK    1  A    between atoms: C4_5  and  C5_6 
REMARK    2  A    between atoms: C5_6  and  C6_7 
REMARK    3  A    between atoms: C6_7  and  N1_8 
REMARK    4  A    between atoms: N1_8  and  C7_9 
REMARK    5  A    between atoms: N1_8  and  C14_17 
REMARK    6  A    between atoms: C7_9  and  C8_10 
REMARK    7  A    between atoms: C11_13  and  O2_14 
REMARK    8  A    between atoms: C14_17  and  N2_19 
REMARK    9  A    between atoms: N2_19  and  C15_20 
ROOT
HETATM    1  N1  UNL     1      23.165   2.950  51.170  1.00  0.00    -0.353 N 
ENDROOT
BRANCH   1   2
HETATM    2  C6  UNL     1      23.259   2.912  49.724  1.00  0.00     0.132 C 
BRANCH   2   3
HETATM    3  C5  UNL     1      23.515   4.305  49.247  1.00  0.00     0.085 C 
BRANCH   3   4
HETATM    4  C4  UNL     1      24.970   4.589  49.099  1.00  0.00     0.054 A 
HETATM    5  O1  UNL     1      25.934   3.770  49.339  1.00  0.00    -0.327 OA
HETATM    6  C3  UNL     1      27.121   4.272  49.129  1.00  0.00     0.148 A 
HETATM    7  C2  UNL     1      26.954   5.596  48.692  1.00  0.00    -0.037 A 
HETATM    8  C1  UNL     1      27.971   6.641  48.310  1.00  0.00     0.050 C 
HETATM    9  C21 UNL     1      25.584   5.750  48.689  1.00  0.00     0.041 A 
ENDBRANCH   3   4
ENDBRANCH   2   3
ENDBRANCH   1   2
BRANCH   1  10
HETATM   10  C7  UNL     1      21.891   2.316  51.452  1.00  0.00     0.163 C 
BRANCH  10  11
HETATM   11  C8  UNL     1      21.951   1.161  52.339  1.00  0.00    -0.040 A 
HETATM   12  C9  UNL     1      22.712   0.035  52.313  1.00  0.00     0.011 A 
HETATM   13  C10 UNL     1      22.661  -0.988  53.229  1.00  0.00     0.037 A 
HETATM   14  C11 UNL     1      21.752  -0.887  54.291  1.00  0.00     0.065 A 
HETATM   15  C12 UNL     1      20.944   0.225  54.387  1.00  0.00     0.037 A 
HETATM   16  C13 UNL     1      21.069   1.197  53.422  1.00  0.00     0.011 A 
BRANCH  14  17
HETATM   17  O2  UNL     1      21.704  -1.919  55.208  1.00  0.00    -0.361 OA
HETATM   18  H13 UNL     1      22.572  -2.277  55.630  1.00  0.00     0.217 HD
ENDBRANCH  14  17
ENDBRANCH  10  11
ENDBRANCH   1  10
BRANCH   1  19
HETATM   19  C14 UNL     1      23.925   3.417  52.305  1.00  0.00     0.174 C 
HETATM   20  S1  UNL     1      23.388   4.805  52.992  1.00  0.00    -0.041 SA
BRANCH  19  21
HETATM   21  N2  UNL     1      25.090   3.001  53.021  1.00  0.00    -0.333 N 
HETATM   22  H16 UNL     1      25.571   3.707  53.611  1.00  0.00     0.168 HD
BRANCH  21  23
HETATM   23  C15 UNL     1      25.749   1.723  53.063  1.00  0.00     0.034 A 
HETATM   24  C16 UNL     1      25.975   1.176  54.299  1.00  0.00     0.029 A 
HETATM   25  C17 UNL     1      26.603  -0.043  54.392  1.00  0.00     0.002 A 
HETATM   26  C18 UNL     1      26.977  -0.655  53.206  1.00  0.00     0.000 A 
HETATM   27  C19 UNL     1      26.768  -0.133  51.947  1.00  0.00     0.002 A 
HETATM   28  C20 UNL     1      26.129   1.101  51.901  1.00  0.00     0.029 A 
ENDBRANCH  21  23
ENDBRANCH  19  21
ENDBRANCH   1  19
TORSDOF 9
ENDMDL
MODEL 6
REMARK VINA RESULT:      -7.9      1.519      5.977
REMARK  9 active torsions:
REMARK  status: ('A' for Active; 'I' for Inactive)
REMARK    1  A    between atoms: C4_5  and  C5_6 
REMARK    2  A    between atoms: C5_6  and  C6_7 
REMARK    3  A    between atoms: C6_7  and  N1_8 
REMARK    4  A    between atoms: N1_8  and  C7_9 
REMARK    5  A    between atoms: N1_8  and  C14_17 
REMARK    6  A    between atoms: C7_9  and  C8_10 
REMARK    7  A    between atoms: C11_13  and  O2_14 
REMARK    8  A    between atoms: C14_17  and  N2_19 
REMARK    9  A    between atoms: N2_19  and  C15_20 
ROOT
HETATM    1  N1  UNL     1      24.974   2.942  51.231  1.00  0.00    -0.353 N 
ENDROOT
BRANCH   1   2
HETATM    2  C6  UNL     1      26.291   2.613  51.738  1.00  0.00     0.132 C 
BRANCH   2   3
HETATM    3  C5  UNL     1      26.133   2.145  53.149  1.00  0.00     0.085 C 
BRANCH   3   4
HETATM    4  C4  UNL     1      27.198   1.181  53.543  1.00  0.00     0.054 A 
HETATM    5  O1  UNL     1      27.995   1.295  54.549  1.00  0.00    -0.327 OA
HETATM    6  C3  UNL     1      28.841   0.308  54.670  1.00  0.00     0.148 A 
HETATM    7  C2  UNL     1      28.599  -0.593  53.621  1.00  0.00    -0.037 A 
HETATM    8  C1  UNL     1      29.272  -1.896  53.268  1.00  0.00     0.050 C 
HETATM    9  C21 UNL     1      27.557  -0.002  52.938  1.00  0.00     0.041 A 
ENDBRANCH   3   4
ENDBRANCH   2   3
ENDBRANCH   1   2
BRANCH   1  10
HETATM   10  C7  UNL     1      25.184   3.113  49.806  1.00  0.00     0.163 C 
BRANCH  10  11
HETATM   11  C8  UNL     1      25.834   4.358  49.415  1.00  0.00    -0.040 A 
HETATM   12  C9  UNL     1      25.397   5.644  49.400  1.00  0.00     0.011 A 
HETATM   13  C10 UNL     1      26.130   6.735  49.000  1.00  0.00     0.037 A 
HETATM   14  C11 UNL     1      27.446   6.531  48.562  1.00  0.00     0.065 A 
HETATM   15  C12 UNL     1      27.962   5.253  48.548  1.00  0.00     0.037 A 
HETATM   16  C13 UNL     1      27.152   4.225  48.968  1.00  0.00     0.011 A 
BRANCH  14  17
HETATM   17  O2  UNL     1      28.177   7.630  48.160  1.00  0.00    -0.361 OA
HETATM   18  H13 UNL     1      29.009   7.922  48.692  1.00  0.00     0.217 HD
ENDBRANCH  14  17
ENDBRANCH  10  11
ENDBRANCH   1  10
BRANCH   1  19
HETATM   19  C14 UNL     1      23.630   3.138  51.719  1.00  0.00     0.174 C 
HETATM   20  S1  UNL     1      23.310   4.627  52.326  1.00  0.00    -0.041 SA
BRANCH  19  21
HETATM   21  N2  UNL     1      22.444   2.351  51.851  1.00  0.00    -0.333 N 
HETATM   22  H16 UNL     1      21.652   2.563  51.213  1.00  0.00     0.168 HD
BRANCH  21  23
HETATM   23  C15 UNL     1      22.136   1.277  52.757  1.00  0.00     0.034 A 
HETATM   24  C16 UNL     1      23.108   0.332  52.961  1.00  0.00     0.029 A 
HETATM   25  C17 UNL     1      22.861  -0.714  53.816  1.00  0.00     0.002 A 
HETATM   26  C18 UNL     1      21.620  -0.751  54.432  1.00  0.00     0.000 A 
HETATM   27  C19 UNL     1      20.620   0.181  54.249  1.00  0.00     0.002 A 
HETATM   28  C20 UNL     1      20.914   1.222  53.375  1.00  0.00     0.029 A 
ENDBRANCH  21  23
ENDBRANCH  19  21
ENDBRANCH   1  19
TORSDOF 9
ENDMDL
MODEL 7
REMARK VINA RESULT:      -7.8      1.517      2.094
REMARK  9 active torsions:
REMARK  status: ('A' for Active; 'I' for Inactive)
REMARK    1  A    between atoms: C4_5  and  C5_6 
REMARK    2  A    between atoms: C5_6  and  C6_7 
REMARK    3  A    between atoms: C6_7  and  N1_8 
REMARK    4  A    between atoms: N1_8  and  C7_9 
REMARK    5  A    between atoms: N1_8  and  C14_17 
REMARK    6  A    between atoms: C7_9  and  C8_10 
REMARK    7  A    between atoms: C11_13  and  O2_14 
REMARK    8  A    between atoms: C14_17  and  N2_19 
REMARK    9  A    between atoms: N2_19  and  C15_20 
ROOT
HETATM    1  N1  UNL     1      23.676   3.296  51.709  1.00  0.00    -0.353 N 
ENDROOT
BRANCH   1   2
HETATM    2  C6  UNL     1      24.240   4.396  50.952  1.00  0.00     0.132 C 
BRANCH   2   3
HETATM    3  C5  UNL     1      24.880   3.826  49.727  1.00  0.00     0.085 C 
BRANCH   3   4
HETATM    4  C4  UNL     1      25.952   4.711  49.191  1.00  0.00     0.054 A 
HETATM    5  O1  UNL     1      25.814   5.936  48.818  1.00  0.00    -0.327 OA
HETATM    6  C3  UNL     1      26.916   6.486  48.384  1.00  0.00     0.148 A 
HETATM    7  C2  UNL     1      27.935   5.524  48.468  1.00  0.00    -0.037 A 
HETATM    8  C1  UNL     1      29.396   5.605  48.103  1.00  0.00     0.050 C 
HETATM    9  C21 UNL     1      27.282   4.424  48.981  1.00  0.00     0.041 A 
ENDBRANCH   3   4
ENDBRANCH   2   3
ENDBRANCH   1   2
BRANCH   1  10
HETATM   10  C7  UNL     1      24.562   3.173  52.852  1.00  0.00     0.163 C 
BRANCH  10  11
HETATM   11  C8  UNL     1      25.397   1.978  52.868  1.00  0.00    -0.040 A 
HETATM   12  C9  UNL     1      25.739   1.095  51.894  1.00  0.00     0.011 A 
HETATM   13  C10 UNL     1      26.547  -0.004  52.056  1.00  0.00     0.037 A 
HETATM   14  C11 UNL     1      27.076  -0.262  53.327  1.00  0.00     0.065 A 
HETATM   15  C12 UNL     1      26.775   0.589  54.370  1.00  0.00     0.037 A 
HETATM   16  C13 UNL     1      25.958   1.663  54.110  1.00  0.00     0.011 A 
BRANCH  14  17
HETATM   17  O2  UNL     1      27.887  -1.369  53.485  1.00  0.00    -0.361 OA
HETATM   18  H13 UNL     1      28.868  -1.255  53.775  1.00  0.00     0.217 HD
ENDBRANCH  14  17
ENDBRANCH  10  11
ENDBRANCH   1  10
BRANCH   1  19
HETATM   19  C14 UNL     1      22.576   2.365  51.634  1.00  0.00     0.174 C 
HETATM   20  S1  UNL     1      22.331   1.679  50.165  1.00  0.00    -0.041 SA
BRANCH  19  21
HETATM   21  N2  UNL     1      21.572   1.865  52.520  1.00  0.00    -0.333 N 
HETATM   22  H16 UNL     1      20.770   2.487  52.740  1.00  0.00     0.168 HD
BRANCH  21  23
HETATM   23  C15 UNL     1      21.478   0.601  53.200  1.00  0.00     0.034 A 
HETATM   24  C16 UNL     1      20.255  -0.018  53.203  1.00  0.00     0.029 A 
HETATM   25  C17 UNL     1      20.113  -1.227  53.841  1.00  0.00     0.002 A 
HETATM   26  C18 UNL     1      21.237  -1.755  54.455  1.00  0.00     0.000 A 
HETATM   27  C19 UNL     1      22.481  -1.159  54.473  1.00  0.00     0.002 A 
HETATM   28  C20 UNL     1      22.578   0.062  53.815  1.00  0.00     0.029 A 
ENDBRANCH  21  23
ENDBRANCH  19  21
ENDBRANCH   1  19
TORSDOF 9
ENDMDL
MODEL 8
REMARK VINA RESULT:      -7.8      2.798      5.351
REMARK  9 active torsions:
REMARK  status: ('A' for Active; 'I' for Inactive)
REMARK    1  A    between atoms: C4_5  and  C5_6 
REMARK    2  A    between atoms: C5_6  and  C6_7 
REMARK    3  A    between atoms: C6_7  and  N1_8 
REMARK    4  A    between atoms: N1_8  and  C7_9 
REMARK    5  A    between atoms: N1_8  and  C14_17 
REMARK    6  A    between atoms: C7_9  and  C8_10 
REMARK    7  A    between atoms: C11_13  and  O2_14 
REMARK    8  A    between atoms: C14_17  and  N2_19 
REMARK    9  A    between atoms: N2_19  and  C15_20 
ROOT
HETATM    1  N1  UNL     1      24.295   3.023  51.766  1.00  0.00    -0.353 N 
ENDROOT
BRANCH   1   2
HETATM    2  C6  UNL     1      23.385   3.787  52.597  1.00  0.00     0.132 C 
BRANCH   2   3
HETATM    3  C5  UNL     1      22.343   4.381  51.705  1.00  0.00     0.085 C 
BRANCH   3   4
HETATM    4  C4  UNL     1      22.738   5.726  51.200  1.00  0.00     0.054 A 
HETATM    5  O1  UNL     1      23.827   6.355  51.478  1.00  0.00    -0.327 OA
HETATM    6  C3  UNL     1      23.926   7.523  50.902  1.00  0.00     0.148 A 
HETATM    7  C2  UNL     1      22.766   7.722  50.137  1.00  0.00    -0.037 A 
HETATM    8  C1  UNL     1      22.345   8.884  49.273  1.00  0.00     0.050 C 
HETATM    9  C21 UNL     1      22.048   6.565  50.355  1.00  0.00     0.041 A 
ENDBRANCH   3   4
ENDBRANCH   2   3
ENDBRANCH   1   2
BRANCH   1  10
HETATM   10  C7  UNL     1      23.476   1.932  51.270  1.00  0.00     0.163 C 
BRANCH  10  11
HETATM   11  C8  UNL     1      23.027   0.980  52.278  1.00  0.00    -0.040 A 
HETATM   12  C9  UNL     1      23.697   0.287  53.236  1.00  0.00     0.011 A 
HETATM   13  C10 UNL     1      23.135  -0.590  54.131  1.00  0.00     0.037 A 
HETATM   14  C11 UNL     1      21.752  -0.809  54.073  1.00  0.00     0.065 A 
HETATM   15  C12 UNL     1      21.002  -0.143  53.128  1.00  0.00     0.037 A 
HETATM   16  C13 UNL     1      21.654   0.716  52.276  1.00  0.00     0.011 A 
BRANCH  14  17
HETATM   17  O2  UNL     1      21.193  -1.694  54.974  1.00  0.00    -0.361 OA
HETATM   18  H13 UNL     1      21.434  -2.693  54.936  1.00  0.00     0.217 HD
ENDBRANCH  14  17
ENDBRANCH  10  11
ENDBRANCH   1  10
BRANCH   1  19
HETATM   19  C14 UNL     1      25.674   3.046  51.344  1.00  0.00     0.174 C 
HETATM   20  S1  UNL     1      25.920   3.315  49.746  1.00  0.00    -0.041 SA
BRANCH  19  21
HETATM   21  N2  UNL     1      26.954   2.868  51.956  1.00  0.00    -0.333 N 
HETATM   22  H16 UNL     1      27.616   3.668  51.931  1.00  0.00     0.168 HD
BRANCH  21  23
HETATM   23  C15 UNL     1      27.516   1.723  52.621  1.00  0.00     0.034 A 
HETATM   24  C16 UNL     1      27.008   0.494  52.288  1.00  0.00     0.029 A 
HETATM   25  C17 UNL     1      27.511  -0.631  52.896  1.00  0.00     0.002 A 
HETATM   26  C18 UNL     1      28.520  -0.448  53.830  1.00  0.00     0.000 A 
HETATM   27  C19 UNL     1      29.052   0.771  54.189  1.00  0.00     0.002 A 
HETATM   28  C20 UNL     1      28.514   1.881  53.548  1.00  0.00     0.029 A 
ENDBRANCH  21  23
ENDBRANCH  19  21
ENDBRANCH   1  19
TORSDOF 9
ENDMDL
MODEL 9
REMARK VINA RESULT:      -7.5      2.903      5.314
REMARK  9 active torsions:
REMARK  status: ('A' for Active; 'I' for Inactive)
REMARK    1  A    between atoms: C4_5  and  C5_6 
REMARK    2  A    between atoms: C5_6  and  C6_7 
REMARK    3  A    between atoms: C6_7  and  N1_8 
REMARK    4  A    between atoms: N1_8  and  C7_9 
REMARK    5  A    between atoms: N1_8  and  C14_17 
REMARK    6  A    between atoms: C7_9  and  C8_10 
REMARK    7  A    between atoms: C11_13  and  O2_14 
REMARK    8  A    between atoms: C14_17  and  N2_19 
REMARK    9  A    between atoms: N2_19  and  C15_20 
ROOT
HETATM    1  N1  UNL     1      24.094   2.478  51.199  1.00  0.00    -0.353 N 
ENDROOT
BRANCH   1   2
HETATM    2  C6  UNL     1      23.128   2.109  50.183  1.00  0.00     0.132 C 
BRANCH   2   3
HETATM    3  C5  UNL     1      22.111   3.202  50.103  1.00  0.00     0.085 C 
BRANCH   3   4
HETATM    4  C4  UNL     1      22.448   4.206  49.057  1.00  0.00     0.054 A 
HETATM    5  O1  UNL     1      23.320   5.149  49.158  1.00  0.00    -0.327 OA
HETATM    6  C3  UNL     1      23.421   5.896  48.091  1.00  0.00     0.148 A 
HETATM    7  C2  UNL     1      22.508   5.409  47.142  1.00  0.00    -0.037 A 
HETATM    8  C1  UNL     1      22.196   5.883  45.744  1.00  0.00     0.050 C 
HETATM    9  C21 UNL     1      21.920   4.346  47.794  1.00  0.00     0.041 A 
ENDBRANCH   3   4
ENDBRANCH   2   3
ENDBRANCH   1   2
BRANCH   1  10
HETATM   10  C7  UNL     1      23.288   2.664  52.392  1.00  0.00     0.163 C 
BRANCH  10  11
HETATM   11  C8  UNL     1      22.835   1.438  53.036  1.00  0.00    -0.040 A 
HETATM   12  C9  UNL     1      23.493   0.308  53.404  1.00  0.00     0.011 A 
HETATM   13  C10 UNL     1      22.929  -0.787  54.012  1.00  0.00     0.037 A 
HETATM   14  C11 UNL     1      21.555  -0.763  54.287  1.00  0.00     0.065 A 
HETATM   15  C12 UNL     1      20.816   0.349  53.945  1.00  0.00     0.037 A 
HETATM   16  C13 UNL     1      21.470   1.396  53.340  1.00  0.00     0.011 A 
BRANCH  14  17
HETATM   17  O2  UNL     1      20.992  -1.867  54.898  1.00  0.00    -0.361 OA
HETATM   18  H13 UNL     1      21.586  -2.656  55.187  1.00  0.00     0.217 HD
ENDBRANCH  14  17
ENDBRANCH  10  11
ENDBRANCH   1  10
BRANCH   1  19
HETATM   19  C14 UNL     1      25.514   2.700  51.331  1.00  0.00     0.174 C 
HETATM   20  S1  UNL     1      26.276   3.214  49.974  1.00  0.00    -0.041 SA
BRANCH  19  21
HETATM   21  N2  UNL     1      26.498   2.568  52.359  1.00  0.00    -0.333 N 
HETATM   22  H16 UNL     1      26.721   3.411  52.924  1.00  0.00     0.168 HD
BRANCH  21  23
HETATM   23  C15 UNL     1      27.276   1.428  52.761  1.00  0.00     0.034 A 
HETATM   24  C16 UNL     1      28.421   1.672  53.475  1.00  0.00     0.029 A 
HETATM   25  C17 UNL     1      29.200   0.615  53.881  1.00  0.00     0.002 A 
HETATM   26  C18 UNL     1      28.772  -0.657  53.536  1.00  0.00     0.000 A 
HETATM   27  C19 UNL     1      27.628  -0.938  52.819  1.00  0.00     0.002 A 
HETATM   28  C20 UNL     1      26.871   0.161  52.430  1.00  0.00     0.029 A 
ENDBRANCH  21  23
ENDBRANCH  19  21
ENDBRANCH   1  19
TORSDOF 9
ENDMDL
