MODEL 1
REMARK VINA RESULT:      -7.5      0.000      0.000
REMARK  10 active torsions:
REMARK  status: ('A' for Active; 'I' for Inactive)
REMARK    1  A    between atoms: C2_2  and  C3_3 
REMARK    2  A    between atoms: C3_3  and  C4_4 
REMARK    3  A    between atoms: C4_4  and  N1_5 
REMARK    4  A    between atoms: N1_5  and  C5_6 
REMARK    5  A    between atoms: N1_5  and  C13_16 
REMARK    6  A    between atoms: C5_6  and  C6_7 
REMARK    7  A    between atoms: C6_7  and  N2_8 
REMARK    8  A    between atoms: N2_8  and  C7_9 
REMARK    9  A    between atoms: C13_16  and  C14_17 
REMARK   10  A    between atoms: C21_24  and  O2_25 
ROOT
HETATM    1  N1  UNL     1      24.909   2.551  50.938  1.00  0.00     0.094 N 
ENDROOT
BRANCH   1   2
HETATM    2  C4  UNL     1      25.460   3.747  50.296  1.00  0.00     0.273 C 
BRANCH   2   3
HETATM    3  C3  UNL     1      26.597   3.473  49.361  1.00  0.00     0.030 C 
BRANCH   3   4
HETATM    4  C2  UNL     1      27.214   4.802  48.893  1.00  0.00    -0.003 C 
HETATM    5  C1  UNL     1      26.182   5.900  48.843  1.00  0.00     0.005 C 
ENDBRANCH   3   4
ENDBRANCH   2   3
ENDBRANCH   1   2
BRANCH   1   6
HETATM    6  C5  UNL     1      23.460   2.840  50.955  1.00  0.00     0.292 C 
BRANCH   6   7
HETATM    7  C6  UNL     1      22.598   1.641  50.964  1.00  0.00     0.152 C 
BRANCH   7   8
HETATM    8  N2  UNL     1      21.829   1.685  52.220  1.00  0.00    -0.369 N 
HETATM    9  H14 UNL     1      21.330   2.525  52.609  1.00  0.00     0.161 HD
BRANCH   8  10
HETATM   10  C7  UNL     1      21.720   0.522  53.018  1.00  0.00     0.145 A 
HETATM   11  C8  UNL     1      20.652  -0.260  53.208  1.00  0.00    -0.029 A 
HETATM   12  C9  UNL     1      19.283  -0.097  52.612  1.00  0.00     0.048 C 
HETATM   13  C10 UNL     1      20.587  -1.454  54.045  1.00  0.00     0.067 A 
HETATM   14  C11 UNL     1      21.927  -1.673  54.669  1.00  0.00     0.002 A 
HETATM   15  C12 UNL     1      22.995  -0.905  54.488  1.00  0.00     0.140 A 
HETATM   16  O1  UNL     1      22.908   0.203  53.661  1.00  0.00    -0.306 OA
ENDBRANCH   8  10
ENDBRANCH   7   8
ENDBRANCH   6   7
ENDBRANCH   1   6
BRANCH   1  17
HETATM   17  C13 UNL     1      25.258   2.452  52.342  1.00  0.00     0.314 C 
BRANCH  17  18
HETATM   18  C14 UNL     1      26.215   1.418  52.721  1.00  0.00     0.004 A 
HETATM   19  C15 UNL     1      26.078   0.090  52.285  1.00  0.00     0.018 A 
HETATM   20  C16 UNL     1      26.984  -0.918  52.603  1.00  0.00    -0.061 A 
HETATM   21  C17 UNL     1      26.724  -2.301  52.086  1.00  0.00     0.048 C 
HETATM   22  C18 UNL     1      28.068  -0.585  53.389  1.00  0.00     0.016 A 
HETATM   23  C19 UNL     1      28.237   0.719  53.839  1.00  0.00    -0.028 A 
HETATM   24  C20 UNL     1      29.445   0.970  54.676  1.00  0.00     0.051 C 
HETATM   25  C21 UNL     1      27.323   1.702  53.509  1.00  0.00     0.079 A 
BRANCH  25  26
HETATM   26  O2  UNL     1      27.535   3.006  53.986  1.00  0.00    -0.360 OA
HETATM   27  H32 UNL     1      26.905   3.707  53.562  1.00  0.00     0.217 HD
ENDBRANCH  25  26
ENDBRANCH  17  18
ENDBRANCH   1  17
TORSDOF 10
ENDMDL
MODEL 2
REMARK VINA RESULT:      -7.5      1.972      7.029
REMARK  10 active torsions:
REMARK  status: ('A' for Active; 'I' for Inactive)
REMARK    1  A    between atoms: C2_2  and  C3_3 
REMARK    2  A    between atoms: C3_3  and  C4_4 
REMARK    3  A    between atoms: C4_4  and  N1_5 
REMARK    4  A    between atoms: N1_5  and  C5_6 
REMARK    5  A    between atoms: N1_5  and  C13_16 
REMARK    6  A    between atoms: C5_6  and  C6_7 
REMARK    7  A    between atoms: C6_7  and  N2_8 
REMARK    8  A    between atoms: N2_8  and  C7_9 
REMARK    9  A    between atoms: C13_16  and  C14_17 
REMARK   10  A    between atoms: C21_24  and  O2_25 
ROOT
HETATM    1  N1  UNL     1      26.083   0.494  52.035  1.00  0.00     0.094 N 
ENDROOT
BRANCH   1   2
HETATM    2  C4  UNL     1      26.892  -0.389  52.879  1.00  0.00     0.273 C 
BRANCH   2   3
HETATM    3  C3  UNL     1      27.100   0.115  54.273  1.00  0.00     0.030 C 
BRANCH   3   4
HETATM    4  C2  UNL     1      28.606   0.192  54.577  1.00  0.00    -0.003 C 
HETATM    5  C1  UNL     1      29.376  -0.850  53.805  1.00  0.00     0.005 C 
ENDBRANCH   3   4
ENDBRANCH   2   3
ENDBRANCH   1   2
BRANCH   1   6
HETATM    6  C5  UNL     1      27.045   1.556  51.673  1.00  0.00     0.292 C 
BRANCH   6   7
HETATM    7  C6  UNL     1      26.427   2.859  51.356  1.00  0.00     0.152 C 
BRANCH   7   8
HETATM    8  N2  UNL     1      26.451   2.992  49.890  1.00  0.00    -0.369 N 
HETATM    9  H14 UNL     1      26.304   2.214  49.197  1.00  0.00     0.161 HD
BRANCH   8  10
HETATM   10  C7  UNL     1      26.693   4.256  49.303  1.00  0.00     0.145 A 
HETATM   11  C8  UNL     1      25.826   5.248  49.076  1.00  0.00    -0.029 A 
HETATM   12  C9  UNL     1      24.357   5.268  49.393  1.00  0.00     0.048 C 
HETATM   13  C10 UNL     1      26.122   6.540  48.464  1.00  0.00     0.067 A 
HETATM   14  C11 UNL     1      27.577   6.584  48.125  1.00  0.00     0.002 A 
HETATM   15  C12 UNL     1      28.448   5.607  48.345  1.00  0.00     0.140 A 
HETATM   16  O1  UNL     1      28.021   4.430  48.937  1.00  0.00    -0.306 OA
ENDBRANCH   8  10
ENDBRANCH   7   8
ENDBRANCH   6   7
ENDBRANCH   1   6
BRANCH   1  17
HETATM   17  C13 UNL     1      25.055   1.198  52.776  1.00  0.00     0.314 C 
BRANCH  17  18
HETATM   18  C14 UNL     1      23.680   0.740  52.610  1.00  0.00     0.004 A 
HETATM   19  C15 UNL     1      23.068  -0.112  53.544  1.00  0.00     0.018 A 
HETATM   20  C16 UNL     1      21.751  -0.550  53.433  1.00  0.00    -0.061 A 
HETATM   21  C17 UNL     1      21.212  -1.468  54.489  1.00  0.00     0.048 C 
HETATM   22  C18 UNL     1      21.018  -0.119  52.346  1.00  0.00     0.016 A 
HETATM   23  C19 UNL     1      21.590   0.724  51.402  1.00  0.00    -0.028 A 
HETATM   24  C20 UNL     1      20.707   1.133  50.272  1.00  0.00     0.051 C 
HETATM   25  C21 UNL     1      22.900   1.145  51.534  1.00  0.00     0.079 A 
BRANCH  25  26
HETATM   26  O2  UNL     1      23.436   1.999  50.555  1.00  0.00    -0.360 OA
HETATM   27  H32 UNL     1      23.813   2.881  50.940  1.00  0.00     0.217 HD
ENDBRANCH  25  26
ENDBRANCH  17  18
ENDBRANCH   1  17
TORSDOF 10
ENDMDL
MODEL 3
REMARK VINA RESULT:      -7.4      1.940      5.794
REMARK  10 active torsions:
REMARK  status: ('A' for Active; 'I' for Inactive)
REMARK    1  A    between atoms: C2_2  and  C3_3 
REMARK    2  A    between atoms: C3_3  and  C4_4 
REMARK    3  A    between atoms: C4_4  and  N1_5 
REMARK    4  A    between atoms: N1_5  and  C5_6 
REMARK    5  A    between atoms: N1_5  and  C13_16 
REMARK    6  A    between atoms: C5_6  and  C6_7 
REMARK    7  A    between atoms: C6_7  and  N2_8 
REMARK    8  A    between atoms: N2_8  and  C7_9 
REMARK    9  A    between atoms: C13_16  and  C14_17 
REMARK   10  A    between atoms: C21_24  and  O2_25 
ROOT
HETATM    1  N1  UNL     1      26.163   0.876  52.054  1.00  0.00     0.094 N 
ENDROOT
BRANCH   1   2
HETATM    2  C4  UNL     1      27.279   0.119  52.625  1.00  0.00     0.273 C 
BRANCH   2   3
HETATM    3  C3  UNL     1      27.400   0.231  54.113  1.00  0.00     0.030 C 
BRANCH   3   4
HETATM    4  C2  UNL     1      28.871   0.062  54.528  1.00  0.00    -0.003 C 
HETATM    5  C1  UNL     1      29.641  -0.740  53.509  1.00  0.00     0.005 C 
ENDBRANCH   3   4
ENDBRANCH   2   3
ENDBRANCH   1   2
BRANCH   1   6
HETATM    6  C5  UNL     1      26.790   2.176  51.736  1.00  0.00     0.292 C 
BRANCH   6   7
HETATM    7  C6  UNL     1      26.326   2.788  50.475  1.00  0.00     0.152 C 
BRANCH   7   8
HETATM    8  N2  UNL     1      25.833   4.133  50.816  1.00  0.00    -0.369 N 
HETATM    9  H14 UNL     1      26.426   4.992  50.950  1.00  0.00     0.161 HD
BRANCH   8  10
HETATM   10  C7  UNL     1      24.447   4.349  50.995  1.00  0.00     0.145 A 
HETATM   11  C8  UNL     1      23.495   4.463  50.063  1.00  0.00    -0.029 A 
HETATM   12  C9  UNL     1      23.663   4.386  48.572  1.00  0.00     0.048 C 
HETATM   13  C10 UNL     1      22.071   4.687  50.296  1.00  0.00     0.067 A 
HETATM   14  C11 UNL     1      21.838   4.772  51.770  1.00  0.00     0.002 A 
HETATM   15  C12 UNL     1      22.773   4.661  52.705  1.00  0.00     0.140 A 
HETATM   16  O1  UNL     1      24.090   4.448  52.333  1.00  0.00    -0.306 OA
ENDBRANCH   8  10
ENDBRANCH   7   8
ENDBRANCH   6   7
ENDBRANCH   1   6
BRANCH   1  17
HETATM   17  C13 UNL     1      25.148   1.213  53.034  1.00  0.00     0.314 C 
BRANCH  17  18
HETATM   18  C14 UNL     1      23.800   0.706  52.801  1.00  0.00     0.004 A 
HETATM   19  C15 UNL     1      23.035   1.121  51.700  1.00  0.00     0.018 A 
HETATM   20  C16 UNL     1      21.757   0.641  51.430  1.00  0.00    -0.061 A 
HETATM   21  C17 UNL     1      21.034   1.169  50.228  1.00  0.00     0.048 C 
HETATM   22  C18 UNL     1      21.223  -0.292  52.296  1.00  0.00     0.016 A 
HETATM   23  C19 UNL     1      21.951  -0.727  53.397  1.00  0.00    -0.028 A 
HETATM   24  C20 UNL     1      21.282  -1.740  54.262  1.00  0.00     0.051 C 
HETATM   25  C21 UNL     1      23.218  -0.235  53.643  1.00  0.00     0.079 A 
BRANCH  25  26
HETATM   26  O2  UNL     1      23.917  -0.705  54.767  1.00  0.00    -0.360 OA
HETATM   27  H32 UNL     1      23.481  -1.531  55.208  1.00  0.00     0.217 HD
ENDBRANCH  25  26
ENDBRANCH  17  18
ENDBRANCH   1  17
TORSDOF 10
ENDMDL
MODEL 4
REMARK VINA RESULT:      -7.4      2.252      6.142
REMARK  10 active torsions:
REMARK  status: ('A' for Active; 'I' for Inactive)
REMARK    1  A    between atoms: C2_2  and  C3_3 
REMARK    2  A    between atoms: C3_3  and  C4_4 
REMARK    3  A    between atoms: C4_4  and  N1_5 
REMARK    4  A    between atoms: N1_5  and  C5_6 
REMARK    5  A    between atoms: N1_5  and  C13_16 
REMARK    6  A    between atoms: C5_6  and  C6_7 
REMARK    7  A    between atoms: C6_7  and  N2_8 
REMARK    8  A    between atoms: N2_8  and  C7_9 
REMARK    9  A    between atoms: C13_16  and  C14_17 
REMARK   10  A    between atoms: C21_24  and  O2_25 
ROOT
HETATM    1  N1  UNL     1      23.548   2.532  51.378  1.00  0.00     0.094 N 
ENDROOT
BRANCH   1   2
HETATM    2  C4  UNL     1      22.148   2.247  51.055  1.00  0.00     0.273 C 
BRANCH   2   3
HETATM    3  C3  UNL     1      21.959   1.166  50.037  1.00  0.00     0.030 C 
BRANCH   3   4
HETATM    4  C2  UNL     1      21.428   1.773  48.729  1.00  0.00    -0.003 C 
HETATM    5  C1  UNL     1      22.549   2.320  47.881  1.00  0.00     0.005 C 
ENDBRANCH   3   4
ENDBRANCH   2   3
ENDBRANCH   1   2
BRANCH   1   6
HETATM    6  C5  UNL     1      23.676   1.989  52.746  1.00  0.00     0.292 C 
BRANCH   6   7
HETATM    7  C6  UNL     1      24.366   0.686  52.825  1.00  0.00     0.152 C 
BRANCH   7   8
HETATM    8  N2  UNL     1      25.581   0.803  52.001  1.00  0.00    -0.369 N 
HETATM    9  H14 UNL     1      25.613   1.038  50.976  1.00  0.00     0.161 HD
BRANCH   8  10
HETATM   10  C7  UNL     1      26.850   0.586  52.587  1.00  0.00     0.145 A 
HETATM   11  C8  UNL     1      27.470  -0.574  52.828  1.00  0.00    -0.029 A 
HETATM   12  C9  UNL     1      26.964  -1.957  52.531  1.00  0.00     0.048 C 
HETATM   13  C10 UNL     1      28.784  -0.749  53.438  1.00  0.00     0.067 A 
HETATM   14  C11 UNL     1      29.344   0.599  53.758  1.00  0.00     0.002 A 
HETATM   15  C12 UNL     1      28.741   1.758  53.524  1.00  0.00     0.140 A 
HETATM   16  O1  UNL     1      27.487   1.770  52.936  1.00  0.00    -0.306 OA
ENDBRANCH   8  10
ENDBRANCH   7   8
ENDBRANCH   6   7
ENDBRANCH   1   6
BRANCH   1  17
HETATM   17  C13 UNL     1      23.813   3.949  51.543  1.00  0.00     0.314 C 
BRANCH  17  18
HETATM   18  C14 UNL     1      24.415   4.651  50.414  1.00  0.00     0.004 A 
HETATM   19  C15 UNL     1      23.673   5.536  49.615  1.00  0.00     0.018 A 
HETATM   20  C16 UNL     1      24.218   6.243  48.547  1.00  0.00    -0.061 A 
HETATM   21  C17 UNL     1      23.321   7.151  47.761  1.00  0.00     0.048 C 
HETATM   22  C18 UNL     1      25.556   6.057  48.266  1.00  0.00     0.016 A 
HETATM   23  C19 UNL     1      26.322   5.189  49.036  1.00  0.00    -0.028 A 
HETATM   24  C20 UNL     1      27.757   5.069  48.650  1.00  0.00     0.051 C 
HETATM   25  C21 UNL     1      25.757   4.499  50.091  1.00  0.00     0.079 A 
BRANCH  25  26
HETATM   26  O2  UNL     1      26.570   3.633  50.842  1.00  0.00    -0.360 OA
HETATM   27  H32 UNL     1      26.516   2.647  50.535  1.00  0.00     0.217 HD
ENDBRANCH  25  26
ENDBRANCH  17  18
ENDBRANCH   1  17
TORSDOF 10
ENDMDL
MODEL 5
REMARK VINA RESULT:      -7.4      1.492      5.879
REMARK  10 active torsions:
REMARK  status: ('A' for Active; 'I' for Inactive)
REMARK    1  A    between atoms: C2_2  and  C3_3 
REMARK    2  A    between atoms: C3_3  and  C4_4 
REMARK    3  A    between atoms: C4_4  and  N1_5 
REMARK    4  A    between atoms: N1_5  and  C5_6 
REMARK    5  A    between atoms: N1_5  and  C13_16 
REMARK    6  A    between atoms: C5_6  and  C6_7 
REMARK    7  A    between atoms: C6_7  and  N2_8 
REMARK    8  A    between atoms: N2_8  and  C7_9 
REMARK    9  A    between atoms: C13_16  and  C14_17 
REMARK   10  A    between atoms: C21_24  and  O2_25 
ROOT
HETATM    1  N1  UNL     1      23.714   2.661  51.679  1.00  0.00     0.094 N 
ENDROOT
BRANCH   1   2
HETATM    2  C4  UNL     1      23.903   3.736  50.702  1.00  0.00     0.273 C 
BRANCH   2   3
HETATM    3  C3  UNL     1      25.013   3.492  49.727  1.00  0.00     0.030 C 
BRANCH   3   4
HETATM    4  C2  UNL     1      25.854   4.770  49.570  1.00  0.00    -0.003 C 
HETATM    5  C1  UNL     1      27.192   4.474  48.942  1.00  0.00     0.005 C 
ENDBRANCH   3   4
ENDBRANCH   2   3
ENDBRANCH   1   2
BRANCH   1   6
HETATM    6  C5  UNL     1      25.104   2.290  52.015  1.00  0.00     0.292 C 
BRANCH   6   7
HETATM    7  C6  UNL     1      25.419   2.344  53.457  1.00  0.00     0.152 C 
BRANCH   7   8
HETATM    8  N2  UNL     1      25.705   0.962  53.877  1.00  0.00    -0.369 N 
HETATM    9  H14 UNL     1      25.001   0.267  54.237  1.00  0.00     0.161 HD
BRANCH   8  10
HETATM   10  C7  UNL     1      27.030   0.468  53.816  1.00  0.00     0.145 A 
HETATM   11  C8  UNL     1      27.474  -0.656  53.245  1.00  0.00    -0.029 A 
HETATM   12  C9  UNL     1      26.666  -1.690  52.514  1.00  0.00     0.048 C 
HETATM   13  C10 UNL     1      28.856  -1.125  53.208  1.00  0.00     0.067 A 
HETATM   14  C11 UNL     1      29.716  -0.134  53.922  1.00  0.00     0.002 A 
HETATM   15  C12 UNL     1      29.288   0.986  54.493  1.00  0.00     0.140 A 
HETATM   16  O1  UNL     1      27.940   1.304  54.449  1.00  0.00    -0.306 OA
ENDBRANCH   8  10
ENDBRANCH   7   8
ENDBRANCH   6   7
ENDBRANCH   1   6
BRANCH   1  17
HETATM   17  C13 UNL     1      23.167   1.453  51.091  1.00  0.00     0.314 C 
BRANCH  17  18
HETATM   18  C14 UNL     1      22.156   0.735  51.859  1.00  0.00     0.004 A 
HETATM   19  C15 UNL     1      22.486   0.001  53.009  1.00  0.00     0.018 A 
HETATM   20  C16 UNL     1      21.547  -0.676  53.783  1.00  0.00    -0.061 A 
HETATM   21  C17 UNL     1      22.024  -1.434  54.984  1.00  0.00     0.048 C 
HETATM   22  C18 UNL     1      20.225  -0.615  53.390  1.00  0.00     0.016 A 
HETATM   23  C19 UNL     1      19.860   0.102  52.257  1.00  0.00    -0.028 A 
HETATM   24  C20 UNL     1      18.406   0.106  51.927  1.00  0.00     0.051 C 
HETATM   25  C21 UNL     1      20.812   0.764  51.506  1.00  0.00     0.079 A 
BRANCH  25  26
HETATM   26  O2  UNL     1      20.397   1.478  50.369  1.00  0.00    -0.360 OA
HETATM   27  H32 UNL     1      20.853   1.164  49.496  1.00  0.00     0.217 HD
ENDBRANCH  25  26
ENDBRANCH  17  18
ENDBRANCH   1  17
TORSDOF 10
ENDMDL
MODEL 6
REMARK VINA RESULT:      -7.4      1.949      6.589
REMARK  10 active torsions:
REMARK  status: ('A' for Active; 'I' for Inactive)
REMARK    1  A    between atoms: C2_2  and  C3_3 
REMARK    2  A    between atoms: C3_3  and  C4_4 
REMARK    3  A    between atoms: C4_4  and  N1_5 
REMARK    4  A    between atoms: N1_5  and  C5_6 
REMARK    5  A    between atoms: N1_5  and  C13_16 
REMARK    6  A    between atoms: C5_6  and  C6_7 
REMARK    7  A    between atoms: C6_7  and  N2_8 
REMARK    8  A    between atoms: N2_8  and  C7_9 
REMARK    9  A    between atoms: C13_16  and  C14_17 
REMARK   10  A    between atoms: C21_24  and  O2_25 
ROOT
HETATM    1  N1  UNL     1      23.313  -0.025  52.792  1.00  0.00     0.094 N 
ENDROOT
BRANCH   1   2
HETATM    2  C4  UNL     1      22.108  -0.853  52.884  1.00  0.00     0.273 C 
BRANCH   2   3
HETATM    3  C3  UNL     1      21.193  -0.483  54.010  1.00  0.00     0.030 C 
BRANCH   3   4
HETATM    4  C2  UNL     1      19.746  -0.406  53.498  1.00  0.00    -0.003 C 
HETATM    5  C1  UNL     1      19.693   0.077  52.070  1.00  0.00     0.005 C 
ENDBRANCH   3   4
ENDBRANCH   2   3
ENDBRANCH   1   2
BRANCH   1   6
HETATM    6  C5  UNL     1      23.879  -0.134  54.153  1.00  0.00     0.292 C 
BRANCH   6   7
HETATM    7  C6  UNL     1      25.224  -0.741  54.209  1.00  0.00     0.152 C 
BRANCH   7   8
HETATM    8  N2  UNL     1      26.159   0.256  53.663  1.00  0.00    -0.369 N 
HETATM    9  H14 UNL     1      25.903   1.211  53.302  1.00  0.00     0.161 HD
BRANCH   8  10
HETATM   10  C7  UNL     1      27.540  -0.043  53.587  1.00  0.00     0.145 A 
HETATM   11  C8  UNL     1      28.577   0.801  53.610  1.00  0.00    -0.029 A 
HETATM   12  C9  UNL     1      28.533   2.298  53.725  1.00  0.00     0.048 C 
HETATM   13  C10 UNL     1      29.990   0.445  53.529  1.00  0.00     0.067 A 
HETATM   14  C11 UNL     1      30.101  -1.041  53.414  1.00  0.00     0.002 A 
HETATM   15  C12 UNL     1      29.081  -1.890  53.390  1.00  0.00     0.140 A 
HETATM   16  O1  UNL     1      27.786  -1.405  53.477  1.00  0.00    -0.306 OA
ENDBRANCH   8  10
ENDBRANCH   7   8
ENDBRANCH   6   7
ENDBRANCH   1   6
BRANCH   1  17
HETATM   17  C13 UNL     1      23.018   1.389  52.654  1.00  0.00     0.314 C 
BRANCH  17  18
HETATM   18  C14 UNL     1      23.360   2.021  51.384  1.00  0.00     0.004 A 
HETATM   19  C15 UNL     1      22.527   1.914  50.259  1.00  0.00     0.018 A 
HETATM   20  C16 UNL     1      22.806   2.523  49.039  1.00  0.00    -0.061 A 
HETATM   21  C17 UNL     1      21.844   2.327  47.906  1.00  0.00     0.048 C 
HETATM   22  C18 UNL     1      23.964   3.268  48.941  1.00  0.00     0.016 A 
HETATM   23  C19 UNL     1      24.812   3.397  50.033  1.00  0.00    -0.028 A 
HETATM   24  C20 UNL     1      26.031   4.229  49.819  1.00  0.00     0.051 C 
HETATM   25  C21 UNL     1      24.513   2.782  51.234  1.00  0.00     0.079 A 
BRANCH  25  26
HETATM   26  O2  UNL     1      25.400   2.940  52.312  1.00  0.00    -0.360 OA
HETATM   27  H32 UNL     1      24.981   2.708  53.228  1.00  0.00     0.217 HD
ENDBRANCH  25  26
ENDBRANCH  17  18
ENDBRANCH   1  17
TORSDOF 10
ENDMDL
MODEL 7
REMARK VINA RESULT:      -7.4      2.006      6.813
REMARK  10 active torsions:
REMARK  status: ('A' for Active; 'I' for Inactive)
REMARK    1  A    between atoms: C2_2  and  C3_3 
REMARK    2  A    between atoms: C3_3  and  C4_4 
REMARK    3  A    between atoms: C4_4  and  N1_5 
REMARK    4  A    between atoms: N1_5  and  C5_6 
REMARK    5  A    between atoms: N1_5  and  C13_16 
REMARK    6  A    between atoms: C5_6  and  C6_7 
REMARK    7  A    between atoms: C6_7  and  N2_8 
REMARK    8  A    between atoms: N2_8  and  C7_9 
REMARK    9  A    between atoms: C13_16  and  C14_17 
REMARK   10  A    between atoms: C21_24  and  O2_25 
ROOT
HETATM    1  N1  UNL     1      25.855   0.856  51.810  1.00  0.00     0.094 N 
ENDROOT
BRANCH   1   2
HETATM    2  C4  UNL     1      26.804  -0.249  51.972  1.00  0.00     0.273 C 
BRANCH   2   3
HETATM    3  C3  UNL     1      27.205  -0.510  53.390  1.00  0.00     0.030 C 
BRANCH   3   4
HETATM    4  C2  UNL     1      28.702  -0.207  53.569  1.00  0.00    -0.003 C 
HETATM    5  C1  UNL     1      29.534  -1.460  53.467  1.00  0.00     0.005 C 
ENDBRANCH   3   4
ENDBRANCH   2   3
ENDBRANCH   1   2
BRANCH   1   6
HETATM    6  C5  UNL     1      26.747   2.003  51.542  1.00  0.00     0.292 C 
BRANCH   6   7
HETATM    7  C6  UNL     1      26.385   2.793  50.348  1.00  0.00     0.152 C 
BRANCH   7   8
HETATM    8  N2  UNL     1      26.083   4.155  50.820  1.00  0.00    -0.369 N 
HETATM    9  H14 UNL     1      26.274   4.531  51.784  1.00  0.00     0.161 HD
BRANCH   8  10
HETATM   10  C7  UNL     1      25.479   5.085  49.942  1.00  0.00     0.145 A 
HETATM   11  C8  UNL     1      26.043   5.782  48.950  1.00  0.00    -0.029 A 
HETATM   12  C9  UNL     1      27.480   5.750  48.515  1.00  0.00     0.048 C 
HETATM   13  C10 UNL     1      25.376   6.735  48.068  1.00  0.00     0.067 A 
HETATM   14  C11 UNL     1      23.934   6.811  48.452  1.00  0.00     0.002 A 
HETATM   15  C12 UNL     1      23.361   6.125  49.433  1.00  0.00     0.140 A 
HETATM   16  O1  UNL     1      24.124   5.253  50.193  1.00  0.00    -0.306 OA
ENDBRANCH   8  10
ENDBRANCH   7   8
ENDBRANCH   6   7
ENDBRANCH   1   6
BRANCH   1  17
HETATM   17  C13 UNL     1      25.191   1.216  53.048  1.00  0.00     0.314 C 
BRANCH  17  18
HETATM   18  C14 UNL     1      23.746   1.023  53.111  1.00  0.00     0.004 A 
HETATM   19  C15 UNL     1      23.180  -0.151  53.635  1.00  0.00     0.018 A 
HETATM   20  C16 UNL     1      21.808  -0.361  53.735  1.00  0.00    -0.061 A 
HETATM   21  C17 UNL     1      21.324  -1.661  54.303  1.00  0.00     0.048 C 
HETATM   22  C18 UNL     1      20.969   0.642  53.293  1.00  0.00     0.016 A 
HETATM   23  C19 UNL     1      21.492   1.817  52.769  1.00  0.00    -0.028 A 
HETATM   24  C20 UNL     1      20.497   2.836  52.328  1.00  0.00     0.051 C 
HETATM   25  C21 UNL     1      22.859   2.001  52.680  1.00  0.00     0.079 A 
BRANCH  25  26
HETATM   26  O2  UNL     1      23.343   3.207  52.144  1.00  0.00    -0.360 OA
HETATM   27  H32 UNL     1      23.314   3.239  51.111  1.00  0.00     0.217 HD
ENDBRANCH  25  26
ENDBRANCH  17  18
ENDBRANCH   1  17
TORSDOF 10
ENDMDL
MODEL 8
REMARK VINA RESULT:      -7.3      1.639      5.811
REMARK  10 active torsions:
REMARK  status: ('A' for Active; 'I' for Inactive)
REMARK    1  A    between atoms: C2_2  and  C3_3 
REMARK    2  A    between atoms: C3_3  and  C4_4 
REMARK    3  A    between atoms: C4_4  and  N1_5 
REMARK    4  A    between atoms: N1_5  and  C5_6 
REMARK    5  A    between atoms: N1_5  and  C13_16 
REMARK    6  A    between atoms: C5_6  and  C6_7 
REMARK    7  A    between atoms: C6_7  and  N2_8 
REMARK    8  A    between atoms: N2_8  and  C7_9 
REMARK    9  A    between atoms: C13_16  and  C14_17 
REMARK   10  A    between atoms: C21_24  and  O2_25 
ROOT
HETATM    1  N1  UNL     1      24.564   2.511  52.216  1.00  0.00     0.094 N 
ENDROOT
BRANCH   1   2
HETATM    2  C4  UNL     1      24.769   3.663  51.335  1.00  0.00     0.273 C 
BRANCH   2   3
HETATM    3  C3  UNL     1      24.917   3.311  49.887  1.00  0.00     0.030 C 
BRANCH   3   4
HETATM    4  C2  UNL     1      26.243   3.875  49.350  1.00  0.00    -0.003 C 
HETATM    5  C1  UNL     1      26.209   5.381  49.272  1.00  0.00     0.005 C 
ENDBRANCH   3   4
ENDBRANCH   2   3
ENDBRANCH   1   2
BRANCH   1   6
HETATM    6  C5  UNL     1      25.947   2.071  52.490  1.00  0.00     0.292 C 
BRANCH   6   7
HETATM    7  C6  UNL     1      26.314   2.061  53.920  1.00  0.00     0.152 C 
BRANCH   7   8
HETATM    8  N2  UNL     1      26.280   0.654  54.354  1.00  0.00    -0.369 N 
HETATM    9  H14 UNL     1      25.558   0.219  54.984  1.00  0.00     0.161 HD
BRANCH   8  10
HETATM   10  C7  UNL     1      27.286  -0.240  53.918  1.00  0.00     0.145 A 
HETATM   11  C8  UNL     1      28.613  -0.087  53.962  1.00  0.00    -0.029 A 
HETATM   12  C9  UNL     1      29.378   1.091  54.495  1.00  0.00     0.048 C 
HETATM   13  C10 UNL     1      29.615  -1.041  53.497  1.00  0.00     0.067 A 
HETATM   14  C11 UNL     1      28.913  -2.242  52.952  1.00  0.00     0.002 A 
HETATM   15  C12 UNL     1      27.597  -2.408  52.903  1.00  0.00     0.140 A 
HETATM   16  O1  UNL     1      26.764  -1.411  53.384  1.00  0.00    -0.306 OA
ENDBRANCH   8  10
ENDBRANCH   7   8
ENDBRANCH   6   7
ENDBRANCH   1   6
BRANCH   1  17
HETATM   17  C13 UNL     1      23.970   1.377  51.534  1.00  0.00     0.314 C 
BRANCH  17  18
HETATM   18  C14 UNL     1      22.708   0.867  52.061  1.00  0.00     0.004 A 
HETATM   19  C15 UNL     1      21.470   1.356  51.616  1.00  0.00     0.018 A 
HETATM   20  C16 UNL     1      20.247   0.878  52.076  1.00  0.00    -0.061 A 
HETATM   21  C17 UNL     1      18.991   1.488  51.531  1.00  0.00     0.048 C 
HETATM   22  C18 UNL     1      20.263  -0.130  53.019  1.00  0.00     0.016 A 
HETATM   23  C19 UNL     1      21.469  -0.639  53.484  1.00  0.00    -0.028 A 
HETATM   24  C20 UNL     1      21.371  -1.729  54.496  1.00  0.00     0.051 C 
HETATM   25  C21 UNL     1      22.671  -0.146  53.011  1.00  0.00     0.079 A 
BRANCH  25  26
HETATM   26  O2  UNL     1      23.866  -0.692  53.509  1.00  0.00    -0.360 OA
HETATM   27  H32 UNL     1      24.413  -0.031  54.084  1.00  0.00     0.217 HD
ENDBRANCH  25  26
ENDBRANCH  17  18
ENDBRANCH   1  17
TORSDOF 10
ENDMDL
MODEL 9
REMARK VINA RESULT:      -7.3      1.723      5.610
REMARK  10 active torsions:
REMARK  status: ('A' for Active; 'I' for Inactive)
REMARK    1  A    between atoms: C2_2  and  C3_3 
REMARK    2  A    between atoms: C3_3  and  C4_4 
REMARK    3  A    between atoms: C4_4  and  N1_5 
REMARK    4  A    between atoms: N1_5  and  C5_6 
REMARK    5  A    between atoms: N1_5  and  C13_16 
REMARK    6  A    between atoms: C5_6  and  C6_7 
REMARK    7  A    between atoms: C6_7  and  N2_8 
REMARK    8  A    between atoms: N2_8  and  C7_9 
REMARK    9  A    between atoms: C13_16  and  C14_17 
REMARK   10  A    between atoms: C21_24  and  O2_25 
ROOT
HETATM    1  N1  UNL     1      24.314   0.980  53.060  1.00  0.00     0.094 N 
ENDROOT
BRANCH   1   2
HETATM    2  C4  UNL     1      23.577  -0.144  53.643  1.00  0.00     0.273 C 
BRANCH   2   3
HETATM    3  C3  UNL     1      22.361  -0.548  52.868  1.00  0.00     0.030 C 
BRANCH   3   4
HETATM    4  C2  UNL     1      21.278  -1.059  53.834  1.00  0.00    -0.003 C 
HETATM    5  C1  UNL     1      19.939  -0.431  53.541  1.00  0.00     0.005 C 
ENDBRANCH   3   4
ENDBRANCH   2   3
ENDBRANCH   1   2
BRANCH   1   6
HETATM    6  C5  UNL     1      23.308   1.592  52.168  1.00  0.00     0.292 C 
BRANCH   6   7
HETATM    7  C6  UNL     1      23.093   3.036  52.389  1.00  0.00     0.152 C 
BRANCH   7   8
HETATM    8  N2  UNL     1      24.399   3.690  52.200  1.00  0.00    -0.369 N 
HETATM    9  H14 UNL     1      25.231   3.603  52.838  1.00  0.00     0.161 HD
BRANCH   8  10
HETATM   10  C7  UNL     1      24.610   4.526  51.079  1.00  0.00     0.145 A 
HETATM   11  C8  UNL     1      25.496   4.381  50.088  1.00  0.00    -0.029 A 
HETATM   12  C9  UNL     1      26.501   3.278  49.915  1.00  0.00     0.048 C 
HETATM   13  C10 UNL     1      25.678   5.274  48.947  1.00  0.00     0.067 A 
HETATM   14  C11 UNL     1      24.701   6.398  49.060  1.00  0.00     0.002 A 
HETATM   15  C12 UNL     1      23.817   6.554  50.038  1.00  0.00     0.140 A 
HETATM   16  O1  UNL     1      23.758   5.622  51.061  1.00  0.00    -0.306 OA
ENDBRANCH   8  10
ENDBRANCH   7   8
ENDBRANCH   6   7
ENDBRANCH   1   6
BRANCH   1  17
HETATM   17  C13 UNL     1      25.366   0.557  52.155  1.00  0.00     0.314 C 
BRANCH  17  18
HETATM   18  C14 UNL     1      26.685   0.313  52.732  1.00  0.00     0.004 A 
HETATM   19  C15 UNL     1      27.266  -0.965  52.731  1.00  0.00     0.018 A 
HETATM   20  C16 UNL     1      28.530  -1.231  53.248  1.00  0.00    -0.061 A 
HETATM   21  C17 UNL     1      29.039  -2.641  53.200  1.00  0.00     0.048 C 
HETATM   22  C18 UNL     1      29.241  -0.178  53.787  1.00  0.00     0.016 A 
HETATM   23  C19 UNL     1      28.699   1.101  53.804  1.00  0.00    -0.028 A 
HETATM   24  C20 UNL     1      29.554   2.165  54.402  1.00  0.00     0.051 C 
HETATM   25  C21 UNL     1      27.441   1.339  53.285  1.00  0.00     0.079 A 
BRANCH  25  26
HETATM   26  O2  UNL     1      26.933   2.649  53.323  1.00  0.00    -0.360 OA
HETATM   27  H32 UNL     1      27.348   3.273  52.612  1.00  0.00     0.217 HD
ENDBRANCH  25  26
ENDBRANCH  17  18
ENDBRANCH   1  17
TORSDOF 10
ENDMDL
