MODEL 1
REMARK VINA RESULT:      -9.3      0.000      0.000
REMARK  2 active torsions:
REMARK  status: ('A' for Active; 'I' for Inactive)
REMARK    1  A    between atoms: C12_15  and  C13_16 
REMARK    2  A    between atoms: C13_16  and  N4_17 
ROOT
HETATM    1  C1  UNL     1      24.106   5.029  50.003  1.00  0.00     0.110 C 
HETATM    2  N1  UNL     1      25.207   5.582  50.298  1.00  0.00    -0.257 NA
HETATM    3  C2  UNL     1      26.074   6.323  49.495  1.00  0.00     0.227 C 
HETATM    4  N2  UNL     1      26.748   5.335  48.965  1.00  0.00    -0.264 NA
HETATM    5  C3  UNL     1      26.416   3.971  49.332  1.00  0.00     0.271 C 
HETATM    6  N3  UNL     1      26.325   3.796  50.761  1.00  0.00    -0.373 N 
HETATM    7  C4  UNL     1      25.713   2.609  51.259  1.00  0.00     0.029 C 
HETATM    8  C5  UNL     1      26.782   1.949  51.740  1.00  0.00     0.034 C 
HETATM    9  C6  UNL     1      27.378   0.772  52.406  1.00  0.00    -0.049 C 
HETATM   10  C7  UNL     1      28.449   0.481  53.177  1.00  0.00    -0.007 C 
HETATM   11  C8  UNL     1      27.906  -0.850  53.083  1.00  0.00     0.008 A 
HETATM   12  C9  UNL     1      26.858  -1.819  52.800  1.00  0.00     0.020 A 
HETATM   13  C10 UNL     1      26.571  -0.483  52.635  1.00  0.00     0.005 A 
HETATM   14  C11 UNL     1      25.510   0.012  53.709  1.00  0.00     0.022 C 
HETATM   15  C12 UNL     1      24.189   0.214  52.963  1.00  0.00     0.017 C 
HETATM   16  C17 UNL     1      23.976   1.690  52.769  1.00  0.00     0.037 C 
HETATM   17  C18 UNL     1      24.337   2.125  51.316  1.00  0.00     0.127 C 
HETATM   18  N5  UNL     1      23.301   2.853  50.734  1.00  0.00    -0.407 N 
HETATM   19  C19 UNL     1      23.148   4.232  50.804  1.00  0.00     0.161 C 
HETATM   20  H5  UNL     1      26.534   4.188  51.698  1.00  0.00     0.161 HD
HETATM   21  H23 UNL     1      22.603   2.312  50.189  1.00  0.00     0.154 HD
ENDROOT
BRANCH  15  22
HETATM   22  C13 UNL     1      23.148  -0.406  53.843  1.00  0.00     0.277 C 
BRANCH  22  23
HETATM   23  N4  UNL     1      21.897  -0.753  53.249  1.00  0.00     0.088 N 
HETATM   24  C14 UNL     1      21.196  -1.643  54.208  1.00  0.00     0.274 C 
HETATM   25  C15 UNL     1      19.917  -1.005  53.807  1.00  0.00     0.060 C 
HETATM   26  C16 UNL     1      20.842   0.178  53.467  1.00  0.00     0.274 C 
ENDBRANCH  22  23
ENDBRANCH  15  22
TORSDOF 2
ENDMDL
MODEL 2
REMARK VINA RESULT:      -9.1      2.427      5.852
REMARK  2 active torsions:
REMARK  status: ('A' for Active; 'I' for Inactive)
REMARK    1  A    between atoms: C12_15  and  C13_16 
REMARK    2  A    between atoms: C13_16  and  N4_17 
ROOT
HETATM    1  C1  UNL     1      28.916   1.174  53.427  1.00  0.00     0.110 C 
HETATM    2  N1  UNL     1      28.782   0.227  54.259  1.00  0.00    -0.257 NA
HETATM    3  C2  UNL     1      29.504  -0.961  54.380  1.00  0.00     0.227 C 
HETATM    4  N2  UNL     1      28.851  -1.679  53.503  1.00  0.00    -0.264 NA
HETATM    5  C3  UNL     1      27.740  -1.087  52.783  1.00  0.00     0.271 C 
HETATM    6  N3  UNL     1      26.812  -0.419  53.663  1.00  0.00    -0.373 N 
HETATM    7  C4  UNL     1      25.851   0.462  53.088  1.00  0.00     0.029 C 
HETATM    8  C5  UNL     1      24.721  -0.252  53.240  1.00  0.00     0.034 C 
HETATM    9  C6  UNL     1      23.261  -0.407  53.072  1.00  0.00    -0.049 C 
HETATM   10  C7  UNL     1      22.236  -1.048  53.675  1.00  0.00    -0.007 C 
HETATM   11  C8  UNL     1      21.488  -0.448  52.600  1.00  0.00     0.008 A 
HETATM   12  C9  UNL     1      21.289   0.500  51.513  1.00  0.00     0.020 A 
HETATM   13  C10 UNL     1      22.472   0.553  52.216  1.00  0.00     0.005 A 
HETATM   14  C11 UNL     1      22.574   1.894  53.063  1.00  0.00     0.022 C 
HETATM   15  C12 UNL     1      23.603   2.783  52.361  1.00  0.00     0.017 C 
HETATM   16  C17 UNL     1      24.881   2.742  53.152  1.00  0.00     0.037 C 
HETATM   17  C18 UNL     1      25.924   1.791  52.490  1.00  0.00     0.127 C 
HETATM   18  N5  UNL     1      27.152   2.429  52.319  1.00  0.00    -0.407 N 
HETATM   19  C19 UNL     1      28.185   2.450  53.248  1.00  0.00     0.161 C 
HETATM   20  H5  UNL     1      26.488  -0.281  54.638  1.00  0.00     0.161 HD
HETATM   21  H23 UNL     1      27.304   2.908  51.411  1.00  0.00     0.154 HD
ENDROOT
BRANCH  15  22
HETATM   22  C13 UNL     1      22.985   4.146  52.336  1.00  0.00     0.277 C 
BRANCH  22  23
HETATM   23  N4  UNL     1      22.801   4.768  51.064  1.00  0.00     0.088 N 
HETATM   24  C14 UNL     1      24.110   5.349  50.674  1.00  0.00     0.274 C 
HETATM   25  C15 UNL     1      23.813   4.983  49.268  1.00  0.00     0.060 C 
HETATM   26  C16 UNL     1      22.942   3.905  49.939  1.00  0.00     0.274 C 
ENDBRANCH  22  23
ENDBRANCH  15  22
TORSDOF 2
ENDMDL
MODEL 3
REMARK VINA RESULT:      -9.0      1.840      4.881
REMARK  2 active torsions:
REMARK  status: ('A' for Active; 'I' for Inactive)
REMARK    1  A    between atoms: C12_15  and  C13_16 
REMARK    2  A    between atoms: C13_16  and  N4_17 
ROOT
HETATM    1  C1  UNL     1      24.023   4.959  50.593  1.00  0.00     0.110 C 
HETATM    2  N1  UNL     1      22.866   4.806  50.098  1.00  0.00    -0.257 NA
HETATM    3  C2  UNL     1      21.825   5.726  49.969  1.00  0.00     0.227 C 
HETATM    4  N2  UNL     1      21.299   5.598  51.160  1.00  0.00    -0.264 NA
HETATM    5  C3  UNL     1      21.891   4.669  52.103  1.00  0.00     0.271 C 
HETATM    6  N3  UNL     1      22.117   3.368  51.522  1.00  0.00    -0.373 N 
HETATM    7  C4  UNL     1      22.964   2.456  52.216  1.00  0.00     0.029 C 
HETATM    8  C5  UNL     1      22.066   1.558  52.661  1.00  0.00     0.034 C 
HETATM    9  C6  UNL     1      21.738   0.321  53.401  1.00  0.00    -0.049 C 
HETATM   10  C7  UNL     1      20.795  -0.646  53.385  1.00  0.00    -0.007 C 
HETATM   11  C8  UNL     1      21.555  -1.130  54.509  1.00  0.00     0.008 A 
HETATM   12  C9  UNL     1      22.734  -1.199  55.359  1.00  0.00     0.020 A 
HETATM   13  C10 UNL     1      22.768  -0.363  54.266  1.00  0.00     0.005 A 
HETATM   14  C11 UNL     1      23.802  -0.885  53.178  1.00  0.00     0.022 C 
HETATM   15  C12 UNL     1      25.008   0.055  53.229  1.00  0.00     0.017 C 
HETATM   16  C17 UNL     1      24.942   0.973  52.039  1.00  0.00     0.037 C 
HETATM   17  C18 UNL     1      24.404   2.380  52.442  1.00  0.00     0.127 C 
HETATM   18  N5  UNL     1      25.250   3.392  51.993  1.00  0.00    -0.407 N 
HETATM   19  C19 UNL     1      25.163   4.027  50.759  1.00  0.00     0.161 C 
HETATM   20  H5  UNL     1      21.912   2.722  50.738  1.00  0.00     0.161 HD
HETATM   21  H23 UNL     1      25.991   3.704  52.650  1.00  0.00     0.154 HD
ENDROOT
BRANCH  15  22
HETATM   22  C13 UNL     1      26.204  -0.845  53.195  1.00  0.00     0.277 C 
BRANCH  22  23
HETATM   23  N4  UNL     1      27.491  -0.236  53.105  1.00  0.00     0.088 N 
HETATM   24  C14 UNL     1      27.828   0.265  54.461  1.00  0.00     0.274 C 
HETATM   25  C15 UNL     1      29.242  -0.108  54.208  1.00  0.00     0.060 C 
HETATM   26  C16 UNL     1      28.596  -1.124  53.248  1.00  0.00     0.274 C 
ENDBRANCH  22  23
ENDBRANCH  15  22
TORSDOF 2
ENDMDL
MODEL 4
REMARK VINA RESULT:      -8.5      2.593      5.730
REMARK  2 active torsions:
REMARK  status: ('A' for Active; 'I' for Inactive)
REMARK    1  A    between atoms: C12_15  and  C13_16 
REMARK    2  A    between atoms: C13_16  and  N4_17 
ROOT
HETATM    1  C1  UNL     1      26.342  -0.263  54.242  1.00  0.00     0.110 C 
HETATM    2  N1  UNL     1      27.456  -0.439  53.664  1.00  0.00    -0.257 NA
HETATM    3  C2  UNL     1      28.739  -0.515  54.207  1.00  0.00     0.227 C 
HETATM    4  N2  UNL     1      29.005   0.765  54.267  1.00  0.00    -0.264 NA
HETATM    5  C3  UNL     1      28.013   1.720  53.813  1.00  0.00     0.271 C 
HETATM    6  N3  UNL     1      27.486   1.386  52.512  1.00  0.00    -0.373 N 
HETATM    7  C4  UNL     1      26.300   2.042  52.074  1.00  0.00     0.029 C 
HETATM    8  C5  UNL     1      26.791   2.857  51.123  1.00  0.00     0.034 C 
HETATM    9  C6  UNL     1      26.598   3.893  50.087  1.00  0.00    -0.049 C 
HETATM   10  C7  UNL     1      27.182   4.294  48.937  1.00  0.00    -0.007 C 
HETATM   11  C8  UNL     1      26.143   5.290  48.987  1.00  0.00     0.008 A 
HETATM   12  C9  UNL     1      24.883   5.845  49.461  1.00  0.00     0.020 A 
HETATM   13  C10 UNL     1      25.284   4.623  49.954  1.00  0.00     0.005 A 
HETATM   14  C11 UNL     1      24.322   3.461  49.454  1.00  0.00     0.022 C 
HETATM   15  C12 UNL     1      23.477   3.039  50.658  1.00  0.00     0.017 C 
HETATM   16  C17 UNL     1      24.011   1.731  51.175  1.00  0.00     0.037 C 
HETATM   17  C18 UNL     1      24.891   1.945  52.444  1.00  0.00     0.127 C 
HETATM   18  N5  UNL     1      24.485   1.114  53.486  1.00  0.00    -0.407 N 
HETATM   19  C19 UNL     1      24.957  -0.171  53.724  1.00  0.00     0.161 C 
HETATM   20  H5  UNL     1      27.600   0.821  51.650  1.00  0.00     0.161 HD
HETATM   21  H23 UNL     1      23.785   1.505  54.146  1.00  0.00     0.154 HD
ENDROOT
BRANCH  15  22
HETATM   22  C13 UNL     1      22.081   2.921  50.130  1.00  0.00     0.277 C 
BRANCH  22  23
HETATM   23  N4  UNL     1      21.160   3.963  50.451  1.00  0.00     0.088 N 
HETATM   24  C14 UNL     1      21.817   4.823  51.466  1.00  0.00     0.274 C 
HETATM   25  C15 UNL     1      21.173   6.000  50.833  1.00  0.00     0.060 C 
HETATM   26  C16 UNL     1      21.197   5.095  49.587  1.00  0.00     0.274 C 
ENDBRANCH  22  23
ENDBRANCH  15  22
TORSDOF 2
ENDMDL
MODEL 5
REMARK VINA RESULT:      -7.8      2.095      4.745
REMARK  2 active torsions:
REMARK  status: ('A' for Active; 'I' for Inactive)
REMARK    1  A    between atoms: C12_15  and  C13_16 
REMARK    2  A    between atoms: C13_16  and  N4_17 
ROOT
HETATM    1  C1  UNL     1      23.921   6.309  49.173  1.00  0.00     0.110 C 
HETATM    2  N1  UNL     1      23.356   5.707  48.212  1.00  0.00    -0.257 NA
HETATM    3  C2  UNL     1      22.351   6.150  47.351  1.00  0.00     0.227 C 
HETATM    4  N2  UNL     1      21.313   5.870  48.098  1.00  0.00    -0.264 NA
HETATM    5  C3  UNL     1      21.517   5.274  49.404  1.00  0.00     0.271 C 
HETATM    6  N3  UNL     1      22.409   4.141  49.355  1.00  0.00    -0.373 N 
HETATM    7  C4  UNL     1      22.943   3.648  50.581  1.00  0.00     0.029 C 
HETATM    8  C5  UNL     1      22.271   2.490  50.709  1.00  0.00     0.034 C 
HETATM    9  C6  UNL     1      21.972   1.248  51.453  1.00  0.00    -0.049 C 
HETATM   10  C7  UNL     1      21.546  -0.007  51.194  1.00  0.00    -0.007 C 
HETATM   11  C8  UNL     1      21.644  -0.124  52.627  1.00  0.00     0.008 A 
HETATM   12  C9  UNL     1      22.093   0.295  53.946  1.00  0.00     0.020 A 
HETATM   13  C10 UNL     1      22.483   1.042  52.858  1.00  0.00     0.005 A 
HETATM   14  C11 UNL     1      24.049   0.922  52.613  1.00  0.00     0.022 C 
HETATM   15  C12 UNL     1      24.666   2.255  53.042  1.00  0.00     0.017 C 
HETATM   16  C17 UNL     1      25.010   3.036  51.803  1.00  0.00     0.037 C 
HETATM   17  C18 UNL     1      23.947   4.140  51.520  1.00  0.00     0.127 C 
HETATM   18  N5  UNL     1      24.547   5.384  51.334  1.00  0.00    -0.407 N 
HETATM   19  C19 UNL     1      24.985   5.894  50.117  1.00  0.00     0.161 C 
HETATM   20  H5  UNL     1      22.887   3.439  48.760  1.00  0.00     0.161 HD
HETATM   21  H23 UNL     1      24.653   5.979  52.178  1.00  0.00     0.154 HD
ENDROOT
BRANCH  15  22
HETATM   22  C13 UNL     1      25.876   1.883  53.842  1.00  0.00     0.277 C 
BRANCH  22  23
HETATM   23  N4  UNL     1      26.570   0.690  53.479  1.00  0.00     0.088 N 
HETATM   24  C14 UNL     1      27.943   1.092  53.082  1.00  0.00     0.274 C 
HETATM   25  C15 UNL     1      28.449  -0.157  53.704  1.00  0.00     0.060 C 
HETATM   26  C16 UNL     1      27.177  -0.013  54.559  1.00  0.00     0.274 C 
ENDBRANCH  22  23
ENDBRANCH  15  22
TORSDOF 2
ENDMDL
MODEL 6
REMARK VINA RESULT:      -7.8      1.862      2.529
REMARK  2 active torsions:
REMARK  status: ('A' for Active; 'I' for Inactive)
REMARK    1  A    between atoms: C12_15  and  C13_16 
REMARK    2  A    between atoms: C13_16  and  N4_17 
ROOT
HETATM    1  C1  UNL     1      25.230   6.160  48.524  1.00  0.00     0.110 C 
HETATM    2  N1  UNL     1      26.316   6.378  49.140  1.00  0.00    -0.257 NA
HETATM    3  C2  UNL     1      27.604   6.559  48.636  1.00  0.00     0.227 C 
HETATM    4  N2  UNL     1      27.953   5.303  48.526  1.00  0.00    -0.264 NA
HETATM    5  C3  UNL     1      27.012   4.267  48.909  1.00  0.00     0.271 C 
HETATM    6  N3  UNL     1      26.434   4.507  50.209  1.00  0.00    -0.373 N 
HETATM    7  C4  UNL     1      25.281   3.758  50.584  1.00  0.00     0.029 C 
HETATM    8  C5  UNL     1      25.800   2.931  51.510  1.00  0.00     0.034 C 
HETATM    9  C6  UNL     1      25.647   1.838  52.493  1.00  0.00    -0.049 C 
HETATM   10  C7  UNL     1      26.227   1.422  53.640  1.00  0.00    -0.007 C 
HETATM   11  C8  UNL     1      25.254   0.366  53.516  1.00  0.00     0.008 A 
HETATM   12  C9  UNL     1      24.045  -0.244  52.983  1.00  0.00     0.020 A 
HETATM   13  C10 UNL     1      24.379   1.022  52.557  1.00  0.00     0.005 A 
HETATM   14  C11 UNL     1      23.333   2.098  53.082  1.00  0.00     0.022 C 
HETATM   15  C12 UNL     1      22.493   2.522  51.875  1.00  0.00     0.017 C 
HETATM   16  C17 UNL     1      22.956   3.883  51.432  1.00  0.00     0.037 C 
HETATM   17  C18 UNL     1      23.879   3.784  50.180  1.00  0.00     0.127 C 
HETATM   18  N5  UNL     1      23.446   4.636  49.165  1.00  0.00    -0.407 N 
HETATM   19  C19 UNL     1      23.841   5.958  48.999  1.00  0.00     0.161 C 
HETATM   20  H5  UNL     1      26.490   5.036  51.098  1.00  0.00     0.161 HD
HETATM   21  H23 UNL     1      22.789   4.233  48.469  1.00  0.00     0.154 HD
ENDROOT
BRANCH  15  22
HETATM   22  C13 UNL     1      21.080   2.528  52.369  1.00  0.00     0.277 C 
BRANCH  22  23
HETATM   23  N4  UNL     1      20.387   1.280  52.414  1.00  0.00     0.088 N 
HETATM   24  C14 UNL     1      19.042   1.512  51.832  1.00  0.00     0.274 C 
HETATM   25  C15 UNL     1      19.109   0.158  51.229  1.00  0.00     0.060 C 
HETATM   26  C16 UNL     1      20.626   0.413  51.309  1.00  0.00     0.274 C 
ENDBRANCH  22  23
ENDBRANCH  15  22
TORSDOF 2
ENDMDL
MODEL 7
REMARK VINA RESULT:      -7.7      7.537     11.113
REMARK  2 active torsions:
REMARK  status: ('A' for Active; 'I' for Inactive)
REMARK    1  A    between atoms: C12_15  and  C13_16 
REMARK    2  A    between atoms: C13_16  and  N4_17 
ROOT
HETATM    1  C1  UNL     1      34.684   5.416  47.631  1.00  0.00     0.110 C 
HETATM    2  N1  UNL     1      34.288   4.290  48.055  1.00  0.00    -0.257 NA
HETATM    3  C2  UNL     1      34.530   3.013  47.548  1.00  0.00     0.227 C 
HETATM    4  N2  UNL     1      33.581   2.974  46.648  1.00  0.00    -0.264 NA
HETATM    5  C3  UNL     1      32.705   4.118  46.488  1.00  0.00     0.271 C 
HETATM    6  N3  UNL     1      32.172   4.580  47.747  1.00  0.00    -0.373 N 
HETATM    7  C4  UNL     1      31.555   5.864  47.790  1.00  0.00     0.029 C 
HETATM    8  C5  UNL     1      30.260   5.523  47.927  1.00  0.00     0.034 C 
HETATM    9  C6  UNL     1      28.837   5.896  48.065  1.00  0.00    -0.049 C 
HETATM   10  C7  UNL     1      27.708   5.392  48.610  1.00  0.00    -0.007 C 
HETATM   11  C8  UNL     1      27.138   6.589  48.048  1.00  0.00     0.008 A 
HETATM   12  C9  UNL     1      27.202   7.926  47.475  1.00  0.00     0.020 A 
HETATM   13  C10 UNL     1      28.381   7.318  47.844  1.00  0.00     0.005 A 
HETATM   14  C11 UNL     1      29.047   8.062  49.080  1.00  0.00     0.022 C 
HETATM   15  C12 UNL     1      30.261   8.819  48.538  1.00  0.00     0.017 C 
HETATM   16  C17 UNL     1      31.502   8.064  48.929  1.00  0.00     0.037 C 
HETATM   17  C18 UNL     1      32.057   7.233  47.732  1.00  0.00     0.127 C 
HETATM   18  N5  UNL     1      33.411   7.487  47.526  1.00  0.00    -0.407 N 
HETATM   19  C19 UNL     1      34.460   6.797  48.121  1.00  0.00     0.161 C 
HETATM   20  H5  UNL     1      32.013   4.371  48.750  1.00  0.00     0.161 HD
HETATM   21  H23 UNL     1      33.645   8.244  46.854  1.00  0.00     0.154 HD
ENDROOT
BRANCH  15  22
HETATM   22  C13 UNL     1      30.189  10.173  49.172  1.00  0.00     0.277 C 
BRANCH  22  23
HETATM   23  N4  UNL     1      30.131  11.308  48.307  1.00  0.00     0.088 N 
HETATM   24  C14 UNL     1      31.514  11.560  47.832  1.00  0.00     0.274 C 
HETATM   25  C15 UNL     1      30.951  11.954  46.517  1.00  0.00     0.060 C 
HETATM   26  C16 UNL     1      29.804  11.023  46.951  1.00  0.00     0.274 C 
ENDBRANCH  22  23
ENDBRANCH  15  22
TORSDOF 2
ENDMDL
MODEL 8
REMARK VINA RESULT:      -7.6      2.821      5.585
REMARK  2 active torsions:
REMARK  status: ('A' for Active; 'I' for Inactive)
REMARK    1  A    between atoms: C12_15  and  C13_16 
REMARK    2  A    between atoms: C13_16  and  N4_17 
ROOT
HETATM    1  C1  UNL     1      19.078   1.448  49.760  1.00  0.00     0.110 C 
HETATM    2  N1  UNL     1      18.793   2.633  49.416  1.00  0.00    -0.257 NA
HETATM    3  C2  UNL     1      18.019   3.089  48.348  1.00  0.00     0.227 C 
HETATM    4  N2  UNL     1      18.938   3.072  47.417  1.00  0.00    -0.264 NA
HETATM    5  C3  UNL     1      20.281   2.640  47.750  1.00  0.00     0.271 C 
HETATM    6  N3  UNL     1      20.789   3.294  48.932  1.00  0.00    -0.373 N 
HETATM    7  C4  UNL     1      21.953   2.757  49.555  1.00  0.00     0.029 C 
HETATM    8  C5  UNL     1      22.869   3.692  49.242  1.00  0.00     0.034 C 
HETATM    9  C6  UNL     1      24.252   4.210  49.295  1.00  0.00    -0.049 C 
HETATM   10  C7  UNL     1      24.886   5.402  49.255  1.00  0.00    -0.007 C 
HETATM   11  C8  UNL     1      26.052   4.561  49.346  1.00  0.00     0.008 A 
HETATM   12  C9  UNL     1      26.747   3.312  49.622  1.00  0.00     0.020 A 
HETATM   13  C10 UNL     1      25.383   3.354  49.808  1.00  0.00     0.005 A 
HETATM   14  C11 UNL     1      25.011   3.224  51.348  1.00  0.00     0.022 C 
HETATM   15  C12 UNL     1      24.429   1.822  51.544  1.00  0.00     0.017 C 
HETATM   16  C17 UNL     1      22.936   1.945  51.679  1.00  0.00     0.037 C 
HETATM   17  C18 UNL     1      22.217   1.562  50.350  1.00  0.00     0.127 C 
HETATM   18  N5  UNL     1      21.216   0.618  50.571  1.00  0.00    -0.407 N 
HETATM   19  C19 UNL     1      19.890   0.905  50.874  1.00  0.00     0.161 C 
HETATM   20  H5  UNL     1      20.678   4.073  49.606  1.00  0.00     0.161 HD
HETATM   21  H23 UNL     1      21.491  -0.379  50.481  1.00  0.00     0.154 HD
ENDROOT
BRANCH  15  22
HETATM   22  C13 UNL     1      25.079   1.303  52.789  1.00  0.00     0.277 C 
BRANCH  22  23
HETATM   23  N4  UNL     1      25.532  -0.051  52.787  1.00  0.00     0.088 N 
HETATM   24  C14 UNL     1      26.795  -0.082  52.008  1.00  0.00     0.274 C 
HETATM   25  C15 UNL     1      27.308  -1.106  52.952  1.00  0.00     0.060 C 
HETATM   26  C16 UNL     1      26.314  -0.432  53.915  1.00  0.00     0.274 C 
ENDBRANCH  22  23
ENDBRANCH  15  22
TORSDOF 2
ENDMDL
MODEL 9
REMARK VINA RESULT:      -7.4      6.818     10.373
REMARK  2 active torsions:
REMARK  status: ('A' for Active; 'I' for Inactive)
REMARK    1  A    between atoms: C12_15  and  C13_16 
REMARK    2  A    between atoms: C13_16  and  N4_17 
ROOT
HETATM    1  C1  UNL     1      33.506   6.885  47.844  1.00  0.00     0.110 C 
HETATM    2  N1  UNL     1      33.434   5.744  48.391  1.00  0.00    -0.257 NA
HETATM    3  C2  UNL     1      34.008   4.533  48.002  1.00  0.00     0.227 C 
HETATM    4  N2  UNL     1      33.096   4.147  47.147  1.00  0.00    -0.264 NA
HETATM    5  C3  UNL     1      31.942   4.992  46.908  1.00  0.00     0.271 C 
HETATM    6  N3  UNL     1      31.315   5.422  48.134  1.00  0.00    -0.373 N 
HETATM    7  C4  UNL     1      30.374   6.490  48.074  1.00  0.00     0.029 C 
HETATM    8  C5  UNL     1      29.221   5.831  48.292  1.00  0.00     0.034 C 
HETATM    9  C6  UNL     1      27.751   5.821  48.446  1.00  0.00    -0.049 C 
HETATM   10  C7  UNL     1      26.806   5.092  49.079  1.00  0.00    -0.007 C 
HETATM   11  C8  UNL     1      25.928   6.027  48.424  1.00  0.00     0.008 A 
HETATM   12  C9  UNL     1      25.623   7.265  47.721  1.00  0.00     0.020 A 
HETATM   13  C10 UNL     1      26.926   7.037  48.103  1.00  0.00     0.005 A 
HETATM   14  C11 UNL     1      27.377   8.057  49.235  1.00  0.00     0.022 C 
HETATM   15  C12 UNL     1      28.336   9.051  48.577  1.00  0.00     0.017 C 
HETATM   16  C17 UNL     1      29.738   8.702  48.994  1.00  0.00     0.037 C 
HETATM   17  C18 UNL     1      30.486   7.930  47.864  1.00  0.00     0.127 C 
HETATM   18  N5  UNL     1      31.719   8.515  47.583  1.00  0.00    -0.407 N 
HETATM   19  C19 UNL     1      32.921   8.198  48.204  1.00  0.00     0.161 C 
HETATM   20  H5  UNL     1      31.229   5.284  49.158  1.00  0.00     0.161 HD
HETATM   21  H23 UNL     1      31.733   9.232  46.833  1.00  0.00     0.154 HD
ENDROOT
BRANCH  15  22
HETATM   22  C13 UNL     1      27.905  10.395  49.077  1.00  0.00     0.277 C 
BRANCH  22  23
HETATM   23  N4  UNL     1      28.309  11.542  48.329  1.00  0.00     0.088 N 
HETATM   24  C14 UNL     1      27.111  12.405  48.181  1.00  0.00     0.274 C 
HETATM   25  C15 UNL     1      27.993  13.590  48.315  1.00  0.00     0.060 C 
HETATM   26  C16 UNL     1      28.875  12.600  49.097  1.00  0.00     0.274 C 
ENDBRANCH  22  23
ENDBRANCH  15  22
TORSDOF 2
ENDMDL
