MODEL 1
REMARK VINA RESULT:      -6.2      0.000      0.000
REMARK  8 active torsions:
REMARK  status: ('A' for Active; 'I' for Inactive)
REMARK    1  A    between atoms: C3_3  and  C5_5 
REMARK    2  A    between atoms: C5_5  and  C6_6 
REMARK    3  A    between atoms: C6_6  and  C7_7 
REMARK    4  A    between atoms: C7_7  and  S1_8 
REMARK    5  A    between atoms: S1_8  and  N1_11 
REMARK       I    between atoms: N1_11  and  C8_12 
REMARK    6  A    between atoms: C8_12  and  C9_14 
REMARK    7  A    between atoms: C9_14  and  C10_15 
REMARK    8  A    between atoms: C12_17  and  O4_18 
ROOT
HETATM    1  C1  UNL     1      28.608   5.579  48.208  1.00  0.00     0.097 C 
HETATM    2  C2  UNL     1      27.560   5.022  48.758  1.00  0.00    -0.148 C 
HETATM    3  C3  UNL     1      26.534   4.411  49.331  1.00  0.00    -0.021 C 
HETATM    4  C4  UNL     1      26.711   2.961  49.548  1.00  0.00     0.057 C 
ENDROOT
BRANCH   3   5
HETATM    5  C5  UNL     1      25.444   5.314  49.625  1.00  0.00     0.012 C 
BRANCH   5   6
HETATM    6  C6  UNL     1      24.570   5.396  50.615  1.00  0.00    -0.009 C 
BRANCH   6   7
HETATM    7  C7  UNL     1      23.124   5.163  50.648  1.00  0.00     0.190 C 
BRANCH   7   8
HETATM    8  S1  UNL     1      22.733   3.453  50.736  1.00  0.00     0.236 S 
HETATM    9  O1  UNL     1      23.215   2.735  49.488  1.00  0.00    -0.205 OA
HETATM   10  O2  UNL     1      21.243   3.266  50.754  1.00  0.00    -0.205 OA
BRANCH   8  11
HETATM   11  N1  UNL     1      23.461   2.727  52.135  1.00  0.00    -0.254 N 
HETATM   12  C8  UNL     1      23.183   1.344  52.276  1.00  0.00     0.235 C 
HETATM   13  O3  UNL     1      22.494   0.603  51.532  1.00  0.00    -0.272 OA
HETATM   14  H10 UNL     1      24.051   3.200  52.838  1.00  0.00     0.181 HD
BRANCH  12  15
HETATM   15  C9  UNL     1      23.773   0.636  53.460  1.00  0.00     0.142 C 
BRANCH  15  16
HETATM   16  C10 UNL     1      25.229   0.425  53.280  1.00  0.00    -0.051 A 
HETATM   17  C11 UNL     1      25.987  -0.417  52.619  1.00  0.00     0.016 A 
HETATM   18  C12 UNL     1      27.431  -0.107  52.842  1.00  0.00     0.167 A 
HETATM   19  C14 UNL     1      27.360   1.065  53.753  1.00  0.00     0.009 A 
HETATM   20  C15 UNL     1      26.094   1.368  54.002  1.00  0.00     0.006 A 
BRANCH  18  21
HETATM   21  O4  UNL     1      27.962  -1.197  53.515  1.00  0.00    -0.383 OA
HETATM   22  C13 UNL     1      29.343  -1.099  53.456  1.00  0.00     0.202 C 
ENDBRANCH  18  21
ENDBRANCH  15  16
ENDBRANCH  12  15
ENDBRANCH   8  11
ENDBRANCH   7   8
ENDBRANCH   6   7
ENDBRANCH   5   6
ENDBRANCH   3   5
TORSDOF 8
ENDMDL
MODEL 2
REMARK VINA RESULT:      -6.2      3.491      5.461
REMARK  8 active torsions:
REMARK  status: ('A' for Active; 'I' for Inactive)
REMARK    1  A    between atoms: C3_3  and  C5_5 
REMARK    2  A    between atoms: C5_5  and  C6_6 
REMARK    3  A    between atoms: C6_6  and  C7_7 
REMARK    4  A    between atoms: C7_7  and  S1_8 
REMARK    5  A    between atoms: S1_8  and  N1_11 
REMARK       I    between atoms: N1_11  and  C8_12 
REMARK    6  A    between atoms: C8_12  and  C9_14 
REMARK    7  A    between atoms: C9_14  and  C10_15 
REMARK    8  A    between atoms: C12_17  and  O4_18 
ROOT
HETATM    1  C1  UNL     1      17.526  -1.409  52.798  1.00  0.00     0.097 C 
HETATM    2  C2  UNL     1      18.668  -0.872  53.141  1.00  0.00    -0.148 C 
HETATM    3  C3  UNL     1      19.848  -0.383  53.493  1.00  0.00    -0.021 C 
HETATM    4  C4  UNL     1      20.756  -1.348  54.143  1.00  0.00     0.057 C 
ENDROOT
BRANCH   3   5
HETATM    5  C5  UNL     1      19.992   1.016  53.155  1.00  0.00     0.012 C 
BRANCH   5   6
HETATM    6  C6  UNL     1      20.078   1.673  52.010  1.00  0.00    -0.009 C 
BRANCH   6   7
HETATM    7  C7  UNL     1      21.139   2.523  51.462  1.00  0.00     0.190 C 
BRANCH   7   8
HETATM    8  S1  UNL     1      22.370   1.586  50.630  1.00  0.00     0.236 S 
HETATM    9  O1  UNL     1      23.499   2.489  50.167  1.00  0.00    -0.205 OA
HETATM   10  O2  UNL     1      21.800   0.984  49.378  1.00  0.00    -0.205 OA
BRANCH   8  11
HETATM   11  N1  UNL     1      23.011   0.352  51.669  1.00  0.00    -0.254 N 
HETATM   12  C8  UNL     1      23.630   0.851  52.843  1.00  0.00     0.235 C 
HETATM   13  O3  UNL     1      23.765   2.045  53.210  1.00  0.00    -0.272 OA
HETATM   14  H10 UNL     1      22.979  -0.667  51.507  1.00  0.00     0.181 HD
BRANCH  12  15
HETATM   15  C9  UNL     1      24.212  -0.148  53.798  1.00  0.00     0.142 C 
BRANCH  15  16
HETATM   16  C10 UNL     1      25.692  -0.169  53.706  1.00  0.00    -0.051 A 
HETATM   17  C11 UNL     1      26.577  -0.499  52.795  1.00  0.00     0.016 A 
HETATM   18  C12 UNL     1      27.962  -0.295  53.313  1.00  0.00     0.167 A 
HETATM   19  C14 UNL     1      27.708   0.211  54.687  1.00  0.00     0.009 A 
HETATM   20  C15 UNL     1      26.403   0.282  54.909  1.00  0.00     0.006 A 
BRANCH  18  21
HETATM   21  O4  UNL     1      28.543  -1.552  53.373  1.00  0.00    -0.383 OA
HETATM   22  C13 UNL     1      29.892  -1.382  53.643  1.00  0.00     0.202 C 
ENDBRANCH  18  21
ENDBRANCH  15  16
ENDBRANCH  12  15
ENDBRANCH   8  11
ENDBRANCH   7   8
ENDBRANCH   6   7
ENDBRANCH   5   6
ENDBRANCH   3   5
TORSDOF 8
ENDMDL
MODEL 3
REMARK VINA RESULT:      -6.2      2.896      5.610
REMARK  8 active torsions:
REMARK  status: ('A' for Active; 'I' for Inactive)
REMARK    1  A    between atoms: C3_3  and  C5_5 
REMARK    2  A    between atoms: C5_5  and  C6_6 
REMARK    3  A    between atoms: C6_6  and  C7_7 
REMARK    4  A    between atoms: C7_7  and  S1_8 
REMARK    5  A    between atoms: S1_8  and  N1_11 
REMARK       I    between atoms: N1_11  and  C8_12 
REMARK    6  A    between atoms: C8_12  and  C9_14 
REMARK    7  A    between atoms: C9_14  and  C10_15 
REMARK    8  A    between atoms: C12_17  and  O4_18 
ROOT
HETATM    1  C1  UNL     1      26.477   5.537  48.957  1.00  0.00     0.097 C 
HETATM    2  C2  UNL     1      26.063   4.422  49.502  1.00  0.00    -0.148 C 
HETATM    3  C3  UNL     1      25.593   3.298  50.022  1.00  0.00    -0.021 C 
HETATM    4  C4  UNL     1      24.130   3.123  49.914  1.00  0.00     0.057 C 
ENDROOT
BRANCH   3   5
HETATM    5  C5  UNL     1      26.633   2.471  50.591  1.00  0.00     0.012 C 
BRANCH   5   6
HETATM    6  C6  UNL     1      26.780   1.866  51.759  1.00  0.00    -0.009 C 
BRANCH   6   7
HETATM    7  C7  UNL     1      27.015   0.460  52.095  1.00  0.00     0.190 C 
BRANCH   7   8
HETATM    8  S1  UNL     1      26.888   0.164  53.821  1.00  0.00     0.236 S 
HETATM    9  O1  UNL     1      26.799   1.478  54.579  1.00  0.00    -0.205 OA
HETATM   10  O2  UNL     1      28.136  -0.502  54.323  1.00  0.00    -0.205 OA
BRANCH   8  11
HETATM   11  N1  UNL     1      25.489  -0.801  54.179  1.00  0.00    -0.254 N 
HETATM   12  C8  UNL     1      24.257  -0.141  53.938  1.00  0.00     0.235 C 
HETATM   13  O3  UNL     1      24.063   1.023  53.509  1.00  0.00    -0.272 OA
HETATM   14  H10 UNL     1      25.485  -1.769  54.537  1.00  0.00     0.181 HD
BRANCH  12  15
HETATM   15  C9  UNL     1      22.997  -0.902  54.222  1.00  0.00     0.142 C 
BRANCH  15  16
HETATM   16  C10 UNL     1      21.843  -0.302  53.510  1.00  0.00    -0.051 A 
HETATM   17  C11 UNL     1      20.716   0.274  53.855  1.00  0.00     0.016 A 
HETATM   18  C12 UNL     1      19.945   0.683  52.644  1.00  0.00     0.167 A 
HETATM   19  C14 UNL     1      20.837   0.237  51.543  1.00  0.00     0.009 A 
HETATM   20  C15 UNL     1      21.926  -0.329  52.044  1.00  0.00     0.006 A 
BRANCH  18  21
HETATM   21  O4  UNL     1      18.784  -0.074  52.649  1.00  0.00    -0.383 OA
HETATM   22  C13 UNL     1      18.252  -0.040  51.369  1.00  0.00     0.202 C 
ENDBRANCH  18  21
ENDBRANCH  15  16
ENDBRANCH  12  15
ENDBRANCH   8  11
ENDBRANCH   7   8
ENDBRANCH   6   7
ENDBRANCH   5   6
ENDBRANCH   3   5
TORSDOF 8
ENDMDL
MODEL 4
REMARK VINA RESULT:      -6.1      2.500      6.984
REMARK  8 active torsions:
REMARK  status: ('A' for Active; 'I' for Inactive)
REMARK    1  A    between atoms: C3_3  and  C5_5 
REMARK    2  A    between atoms: C5_5  and  C6_6 
REMARK    3  A    between atoms: C6_6  and  C7_7 
REMARK    4  A    between atoms: C7_7  and  S1_8 
REMARK    5  A    between atoms: S1_8  and  N1_11 
REMARK       I    between atoms: N1_11  and  C8_12 
REMARK    6  A    between atoms: C8_12  and  C9_14 
REMARK    7  A    between atoms: C9_14  and  C10_15 
REMARK    8  A    between atoms: C12_17  and  O4_18 
ROOT
HETATM    1  C1  UNL     1      21.398   0.381  51.362  1.00  0.00     0.097 C 
HETATM    2  C2  UNL     1      21.943  -0.139  52.432  1.00  0.00    -0.148 C 
HETATM    3  C3  UNL     1      22.441  -0.688  53.530  1.00  0.00    -0.021 C 
HETATM    4  C4  UNL     1      21.442  -1.063  54.550  1.00  0.00     0.057 C 
ENDROOT
BRANCH   3   5
HETATM    5  C5  UNL     1      23.881  -0.803  53.489  1.00  0.00     0.012 C 
BRANCH   5   6
HETATM    6  C6  UNL     1      24.867   0.080  53.460  1.00  0.00    -0.009 C 
BRANCH   6   7
HETATM    7  C7  UNL     1      25.691   0.570  52.353  1.00  0.00     0.190 C 
BRANCH   7   8
HETATM    8  S1  UNL     1      26.429   2.121  52.717  1.00  0.00     0.236 S 
HETATM    9  O1  UNL     1      27.908   2.099  52.369  1.00  0.00    -0.205 OA
HETATM   10  O2  UNL     1      26.371   2.385  54.194  1.00  0.00    -0.205 OA
BRANCH   8  11
HETATM   11  N1  UNL     1      25.650   3.396  51.832  1.00  0.00    -0.254 N 
HETATM   12  C8  UNL     1      26.022   3.459  50.465  1.00  0.00     0.235 C 
HETATM   13  O3  UNL     1      26.823   2.724  49.837  1.00  0.00    -0.272 OA
HETATM   14  H10 UNL     1      24.972   4.079  52.206  1.00  0.00     0.181 HD
BRANCH  12  15
HETATM   15  C9  UNL     1      25.396   4.533  49.627  1.00  0.00     0.142 C 
BRANCH  15  16
HETATM   16  C10 UNL     1      23.976   4.221  49.339  1.00  0.00    -0.051 A 
HETATM   17  C11 UNL     1      22.842   4.881  49.352  1.00  0.00     0.016 A 
HETATM   18  C12 UNL     1      21.713   3.991  48.951  1.00  0.00     0.167 A 
HETATM   19  C14 UNL     1      22.408   2.699  48.707  1.00  0.00     0.009 A 
HETATM   20  C15 UNL     1      23.707   2.836  48.931  1.00  0.00     0.006 A 
BRANCH  18  21
HETATM   21  O4  UNL     1      20.891   3.882  50.061  1.00  0.00    -0.383 OA
HETATM   22  C13 UNL     1      20.574   5.164  50.481  1.00  0.00     0.202 C 
ENDBRANCH  18  21
ENDBRANCH  15  16
ENDBRANCH  12  15
ENDBRANCH   8  11
ENDBRANCH   7   8
ENDBRANCH   6   7
ENDBRANCH   5   6
ENDBRANCH   3   5
TORSDOF 8
ENDMDL
MODEL 5
REMARK VINA RESULT:      -5.9      1.937      2.745
REMARK  8 active torsions:
REMARK  status: ('A' for Active; 'I' for Inactive)
REMARK    1  A    between atoms: C3_3  and  C5_5 
REMARK    2  A    between atoms: C5_5  and  C6_6 
REMARK    3  A    between atoms: C6_6  and  C7_7 
REMARK    4  A    between atoms: C7_7  and  S1_8 
REMARK    5  A    between atoms: S1_8  and  N1_11 
REMARK       I    between atoms: N1_11  and  C8_12 
REMARK    6  A    between atoms: C8_12  and  C9_14 
REMARK    7  A    between atoms: C9_14  and  C10_15 
REMARK    8  A    between atoms: C12_17  and  O4_18 
ROOT
HETATM    1  C1  UNL     1      29.141   5.527  48.190  1.00  0.00     0.097 C 
HETATM    2  C2  UNL     1      27.934   5.179  48.553  1.00  0.00    -0.148 C 
HETATM    3  C3  UNL     1      26.735   4.786  48.959  1.00  0.00    -0.021 C 
HETATM    4  C4  UNL     1      26.703   3.475  49.638  1.00  0.00     0.057 C 
ENDROOT
BRANCH   3   5
HETATM    5  C5  UNL     1      25.701   5.746  48.645  1.00  0.00     0.012 C 
BRANCH   5   6
HETATM    6  C6  UNL     1      24.571   6.096  49.239  1.00  0.00    -0.009 C 
BRANCH   6   7
HETATM    7  C7  UNL     1      23.173   5.903  48.845  1.00  0.00     0.190 C 
BRANCH   7   8
HETATM    8  S1  UNL     1      22.592   4.294  49.242  1.00  0.00     0.236 S 
HETATM    9  O1  UNL     1      22.731   3.370  48.044  1.00  0.00    -0.205 OA
HETATM   10  O2  UNL     1      21.122   4.338  49.544  1.00  0.00    -0.205 OA
BRANCH   8  11
HETATM   11  N1  UNL     1      23.477   3.634  50.582  1.00  0.00    -0.254 N 
HETATM   12  C8  UNL     1      23.216   4.278  51.818  1.00  0.00     0.235 C 
HETATM   13  O3  UNL     1      22.444   5.240  52.052  1.00  0.00    -0.272 OA
HETATM   14  H10 UNL     1      24.146   2.848  50.551  1.00  0.00     0.181 HD
BRANCH  12  15
HETATM   15  C9  UNL     1      23.940   3.771  53.030  1.00  0.00     0.142 C 
BRANCH  15  16
HETATM   16  C10 UNL     1      24.080   2.296  52.986  1.00  0.00    -0.051 A 
HETATM   17  C11 UNL     1      23.273   1.267  53.091  1.00  0.00     0.016 A 
HETATM   18  C12 UNL     1      24.034  -0.011  52.956  1.00  0.00     0.167 A 
HETATM   19  C14 UNL     1      25.424   0.475  52.755  1.00  0.00     0.009 A 
HETATM   20  C15 UNL     1      25.446   1.801  52.772  1.00  0.00     0.006 A 
BRANCH  18  21
HETATM   21  O4  UNL     1      23.932  -0.655  54.179  1.00  0.00    -0.383 OA
HETATM   22  C13 UNL     1      22.591  -0.925  54.405  1.00  0.00     0.202 C 
ENDBRANCH  18  21
ENDBRANCH  15  16
ENDBRANCH  12  15
ENDBRANCH   8  11
ENDBRANCH   7   8
ENDBRANCH   6   7
ENDBRANCH   5   6
ENDBRANCH   3   5
TORSDOF 8
ENDMDL
MODEL 6
REMARK VINA RESULT:      -5.8      2.826      3.655
REMARK  8 active torsions:
REMARK  status: ('A' for Active; 'I' for Inactive)
REMARK    1  A    between atoms: C3_3  and  C5_5 
REMARK    2  A    between atoms: C5_5  and  C6_6 
REMARK    3  A    between atoms: C6_6  and  C7_7 
REMARK    4  A    between atoms: C7_7  and  S1_8 
REMARK    5  A    between atoms: S1_8  and  N1_11 
REMARK       I    between atoms: N1_11  and  C8_12 
REMARK    6  A    between atoms: C8_12  and  C9_14 
REMARK    7  A    between atoms: C9_14  and  C10_15 
REMARK    8  A    between atoms: C12_17  and  O4_18 
ROOT
HETATM    1  C1  UNL     1      28.973   5.337  48.208  1.00  0.00     0.097 C 
HETATM    2  C2  UNL     1      27.765   5.107  48.656  1.00  0.00    -0.148 C 
HETATM    3  C3  UNL     1      26.564   4.824  49.136  1.00  0.00    -0.021 C 
HETATM    4  C4  UNL     1      26.368   3.418  49.543  1.00  0.00     0.057 C 
ENDROOT
BRANCH   3   5
HETATM    5  C5  UNL     1      25.689   5.975  49.160  1.00  0.00     0.012 C 
BRANCH   5   6
HETATM    6  C6  UNL     1      24.581   6.292  48.510  1.00  0.00    -0.009 C 
BRANCH   6   7
HETATM    7  C7  UNL     1      23.354   6.953  48.960  1.00  0.00     0.190 C 
BRANCH   7   8
HETATM    8  S1  UNL     1      22.293   5.855  49.828  1.00  0.00     0.236 S 
HETATM    9  O1  UNL     1      20.839   6.170  49.521  1.00  0.00    -0.205 OA
HETATM   10  O2  UNL     1      22.442   6.058  51.308  1.00  0.00    -0.205 OA
BRANCH   8  11
HETATM   11  N1  UNL     1      22.627   4.207  49.396  1.00  0.00    -0.254 N 
HETATM   12  C8  UNL     1      21.812   3.259  50.065  1.00  0.00     0.235 C 
HETATM   13  O3  UNL     1      20.902   3.464  50.907  1.00  0.00    -0.272 OA
HETATM   14  H10 UNL     1      23.340   3.879  48.724  1.00  0.00     0.181 HD
BRANCH  12  15
HETATM   15  C9  UNL     1      22.034   1.810  49.752  1.00  0.00     0.142 C 
BRANCH  15  16
HETATM   16  C10 UNL     1      22.295   1.034  50.988  1.00  0.00    -0.051 A 
HETATM   17  C11 UNL     1      21.676   0.094  51.661  1.00  0.00     0.016 A 
HETATM   18  C12 UNL     1      22.468  -0.295  52.865  1.00  0.00     0.167 A 
HETATM   19  C14 UNL     1      23.654   0.594  52.758  1.00  0.00     0.009 A 
HETATM   20  C15 UNL     1      23.551   1.357  51.678  1.00  0.00     0.006 A 
BRANCH  18  21
HETATM   21  O4  UNL     1      21.706   0.065  53.965  1.00  0.00    -0.383 OA
HETATM   22  C13 UNL     1      21.917  -0.882  54.956  1.00  0.00     0.202 C 
ENDBRANCH  18  21
ENDBRANCH  15  16
ENDBRANCH  12  15
ENDBRANCH   8  11
ENDBRANCH   7   8
ENDBRANCH   6   7
ENDBRANCH   5   6
ENDBRANCH   3   5
TORSDOF 8
ENDMDL
MODEL 7
REMARK VINA RESULT:      -5.6      3.045      7.224
REMARK  8 active torsions:
REMARK  status: ('A' for Active; 'I' for Inactive)
REMARK    1  A    between atoms: C3_3  and  C5_5 
REMARK    2  A    between atoms: C5_5  and  C6_6 
REMARK    3  A    between atoms: C6_6  and  C7_7 
REMARK    4  A    between atoms: C7_7  and  S1_8 
REMARK    5  A    between atoms: S1_8  and  N1_11 
REMARK       I    between atoms: N1_11  and  C8_12 
REMARK    6  A    between atoms: C8_12  and  C9_14 
REMARK    7  A    between atoms: C9_14  and  C10_15 
REMARK    8  A    between atoms: C12_17  and  O4_18 
ROOT
HETATM    1  C1  UNL     1      19.723   2.214  52.288  1.00  0.00     0.097 C 
HETATM    2  C2  UNL     1      20.303   1.170  52.822  1.00  0.00    -0.148 C 
HETATM    3  C3  UNL     1      20.841   0.080  53.348  1.00  0.00    -0.021 C 
HETATM    4  C4  UNL     1      19.886  -1.002  53.658  1.00  0.00     0.057 C 
ENDROOT
BRANCH   3   5
HETATM    5  C5  UNL     1      22.274   0.189  53.506  1.00  0.00     0.012 C 
BRANCH   5   6
HETATM    6  C6  UNL     1      23.156   1.128  53.203  1.00  0.00    -0.009 C 
BRANCH   6   7
HETATM    7  C7  UNL     1      23.531   1.722  51.918  1.00  0.00     0.190 C 
BRANCH   7   8
HETATM    8  S1  UNL     1      24.058   3.388  52.090  1.00  0.00     0.236 S 
HETATM    9  O1  UNL     1      24.177   3.757  53.558  1.00  0.00    -0.205 OA
HETATM   10  O2  UNL     1      23.021   4.317  51.527  1.00  0.00    -0.205 OA
BRANCH   8  11
HETATM   11  N1  UNL     1      25.590   3.633  51.310  1.00  0.00    -0.254 N 
HETATM   12  C8  UNL     1      25.556   3.457  49.904  1.00  0.00     0.235 C 
HETATM   13  O3  UNL     1      24.578   3.154  49.176  1.00  0.00    -0.272 OA
HETATM   14  H10 UNL     1      26.481   3.883  51.769  1.00  0.00     0.181 HD
BRANCH  12  15
HETATM   15  C9  UNL     1      26.839   3.648  49.150  1.00  0.00     0.142 C 
BRANCH  15  16
HETATM   16  C10 UNL     1      27.047   5.076  48.813  1.00  0.00    -0.051 A 
HETATM   17  C11 UNL     1      26.305   6.157  48.780  1.00  0.00     0.016 A 
HETATM   18  C12 UNL     1      27.114   7.334  48.345  1.00  0.00     0.167 A 
HETATM   19  C14 UNL     1      28.454   6.729  48.134  1.00  0.00     0.009 A 
HETATM   20  C15 UNL     1      28.412   5.432  48.403  1.00  0.00     0.006 A 
BRANCH  18  21
HETATM   21  O4  UNL     1      26.584   7.742  47.130  1.00  0.00    -0.383 OA
HETATM   22  C13 UNL     1      27.502   8.590  46.530  1.00  0.00     0.202 C 
ENDBRANCH  18  21
ENDBRANCH  15  16
ENDBRANCH  12  15
ENDBRANCH   8  11
ENDBRANCH   7   8
ENDBRANCH   6   7
ENDBRANCH   5   6
ENDBRANCH   3   5
TORSDOF 8
ENDMDL
MODEL 8
REMARK VINA RESULT:      -5.6      3.025      6.076
REMARK  8 active torsions:
REMARK  status: ('A' for Active; 'I' for Inactive)
REMARK    1  A    between atoms: C3_3  and  C5_5 
REMARK    2  A    between atoms: C5_5  and  C6_6 
REMARK    3  A    between atoms: C6_6  and  C7_7 
REMARK    4  A    between atoms: C7_7  and  S1_8 
REMARK    5  A    between atoms: S1_8  and  N1_11 
REMARK       I    between atoms: N1_11  and  C8_12 
REMARK    6  A    between atoms: C8_12  and  C9_14 
REMARK    7  A    between atoms: C9_14  and  C10_15 
REMARK    8  A    between atoms: C12_17  and  O4_18 
ROOT
HETATM    1  C1  UNL     1      26.568   0.936  51.695  1.00  0.00     0.097 C 
HETATM    2  C2  UNL     1      25.409   1.130  52.271  1.00  0.00    -0.148 C 
HETATM    3  C3  UNL     1      24.242   1.273  52.881  1.00  0.00    -0.021 C 
HETATM    4  C4  UNL     1      23.646   0.022  53.390  1.00  0.00     0.057 C 
ENDROOT
BRANCH   3   5
HETATM    5  C5  UNL     1      23.799   2.648  52.917  1.00  0.00     0.012 C 
BRANCH   5   6
HETATM    6  C6  UNL     1      23.423   3.510  51.986  1.00  0.00    -0.009 C 
BRANCH   6   7
HETATM    7  C7  UNL     1      24.161   4.573  51.300  1.00  0.00     0.190 C 
BRANCH   7   8
HETATM    8  S1  UNL     1      24.653   4.095  49.683  1.00  0.00     0.236 S 
HETATM    9  O1  UNL     1      26.150   3.839  49.639  1.00  0.00    -0.205 OA
HETATM   10  O2  UNL     1      24.413   5.221  48.718  1.00  0.00    -0.205 OA
BRANCH   8  11
HETATM   11  N1  UNL     1      23.810   2.663  49.181  1.00  0.00    -0.254 N 
HETATM   12  C8  UNL     1      22.454   2.886  48.831  1.00  0.00     0.235 C 
HETATM   13  O3  UNL     1      21.810   3.964  48.840  1.00  0.00    -0.272 OA
HETATM   14  H10 UNL     1      24.199   1.709  49.121  1.00  0.00     0.181 HD
BRANCH  12  15
HETATM   15  C9  UNL     1      21.650   1.701  48.386  1.00  0.00     0.142 C 
BRANCH  15  16
HETATM   16  C10 UNL     1      20.725   1.256  49.455  1.00  0.00    -0.051 A 
HETATM   17  C11 UNL     1      19.434   1.330  49.679  1.00  0.00     0.016 A 
HETATM   18  C12 UNL     1      19.089   0.673  50.974  1.00  0.00     0.167 A 
HETATM   19  C14 UNL     1      20.418   0.210  51.452  1.00  0.00     0.009 A 
HETATM   20  C15 UNL     1      21.355   0.547  50.576  1.00  0.00     0.006 A 
BRANCH  18  21
HETATM   21  O4  UNL     1      18.612   1.676  51.804  1.00  0.00    -0.383 OA
HETATM   22  C13 UNL     1      17.469   2.200  51.220  1.00  0.00     0.202 C 
ENDBRANCH  18  21
ENDBRANCH  15  16
ENDBRANCH  12  15
ENDBRANCH   8  11
ENDBRANCH   7   8
ENDBRANCH   6   7
ENDBRANCH   5   6
ENDBRANCH   3   5
TORSDOF 8
ENDMDL
MODEL 9
REMARK VINA RESULT:      -5.5      2.897      5.852
REMARK  8 active torsions:
REMARK  status: ('A' for Active; 'I' for Inactive)
REMARK    1  A    between atoms: C3_3  and  C5_5 
REMARK    2  A    between atoms: C5_5  and  C6_6 
REMARK    3  A    between atoms: C6_6  and  C7_7 
REMARK    4  A    between atoms: C7_7  and  S1_8 
REMARK    5  A    between atoms: S1_8  and  N1_11 
REMARK       I    between atoms: N1_11  and  C8_12 
REMARK    6  A    between atoms: C8_12  and  C9_14 
REMARK    7  A    between atoms: C9_14  and  C10_15 
REMARK    8  A    between atoms: C12_17  and  O4_18 
ROOT
HETATM    1  C1  UNL     1      27.048   6.527  48.427  1.00  0.00     0.097 C 
HETATM    2  C2  UNL     1      26.420   5.488  48.916  1.00  0.00    -0.148 C 
HETATM    3  C3  UNL     1      25.734   4.461  49.393  1.00  0.00    -0.021 C 
HETATM    4  C4  UNL     1      24.291   4.709  49.587  1.00  0.00     0.057 C 
ENDROOT
BRANCH   3   5
HETATM    5  C5  UNL     1      26.561   3.298  49.622  1.00  0.00     0.012 C 
BRANCH   5   6
HETATM    6  C6  UNL     1      26.563   2.346  50.542  1.00  0.00    -0.009 C 
BRANCH   6   7
HETATM    7  C7  UNL     1      26.392   2.409  51.996  1.00  0.00     0.190 C 
BRANCH   7   8
HETATM    8  S1  UNL     1      24.741   2.056  52.481  1.00  0.00     0.236 S 
HETATM    9  O1  UNL     1      24.109   3.274  53.131  1.00  0.00    -0.205 OA
HETATM   10  O2  UNL     1      24.733   0.990  53.538  1.00  0.00    -0.205 OA
BRANCH   8  11
HETATM   11  N1  UNL     1      23.787   1.575  51.113  1.00  0.00    -0.254 N 
HETATM   12  C8  UNL     1      22.422   1.342  51.416  1.00  0.00     0.235 C 
HETATM   13  O3  UNL     1      21.838   1.440  52.524  1.00  0.00    -0.272 OA
HETATM   14  H10 UNL     1      24.120   1.449  50.144  1.00  0.00     0.181 HD
BRANCH  12  15
HETATM   15  C9  UNL     1      21.524   0.920  50.291  1.00  0.00     0.142 C 
BRANCH  15  16
HETATM   16  C10 UNL     1      21.419   1.988  49.268  1.00  0.00    -0.051 A 
HETATM   17  C11 UNL     1      20.766   3.119  49.147  1.00  0.00     0.016 A 
HETATM   18  C12 UNL     1      21.085   3.771  47.842  1.00  0.00     0.167 A 
HETATM   19  C14 UNL     1      22.039   2.805  47.238  1.00  0.00     0.009 A 
HETATM   20  C15 UNL     1      22.229   1.782  48.060  1.00  0.00     0.006 A 
BRANCH  18  21
HETATM   21  O4  UNL     1      19.904   3.784  47.116  1.00  0.00    -0.383 OA
HETATM   22  C13 UNL     1      19.876   4.955  46.375  1.00  0.00     0.202 C 
ENDBRANCH  18  21
ENDBRANCH  15  16
ENDBRANCH  12  15
ENDBRANCH   8  11
ENDBRANCH   7   8
ENDBRANCH   6   7
ENDBRANCH   5   6
ENDBRANCH   3   5
TORSDOF 8
ENDMDL
