MODEL 1
REMARK VINA RESULT:      -7.8      0.000      0.000
REMARK  9 active torsions:
REMARK  status: ('A' for Active; 'I' for Inactive)
REMARK    1  A    between atoms: C2_2  and  C3_3 
REMARK    2  A    between atoms: C3_3  and  C5_5 
REMARK    3  A    between atoms: C5_5  and  N1_6 
REMARK    4  A    between atoms: N1_6  and  C6_7 
REMARK    5  A    between atoms: N1_6  and  C15_18 
REMARK    6  A    between atoms: C6_7  and  C7_8 
REMARK    7  A    between atoms: C13_15  and  O2_16 
REMARK    8  A    between atoms: C15_18  and  N2_20 
REMARK    9  A    between atoms: N2_20  and  C16_21 
ROOT
HETATM    1  N1  UNL     1      23.643   1.917  52.206  1.00  0.00    -0.351 N 
ENDROOT
BRANCH   1   2
HETATM    2  C5  UNL     1      23.078   0.604  51.954  1.00  0.00     0.159 C 
BRANCH   2   3
HETATM    3  C3  UNL     1      22.219   0.215  53.097  1.00  0.00    -0.070 C 
HETATM    4  C4  UNL     1      20.968   0.704  53.241  1.00  0.00     0.044 C 
BRANCH   3   5
HETATM    5  C2  UNL     1      21.828  -0.444  54.315  1.00  0.00     0.023 C 
HETATM    6  C1  UNL     1      22.379  -1.244  55.175  1.00  0.00    -0.013 C 
ENDBRANCH   3   5
ENDBRANCH   2   3
ENDBRANCH   1   2
BRANCH   1   7
HETATM    7  C6  UNL     1      24.385   2.013  53.420  1.00  0.00     0.153 C 
BRANCH   7   8
HETATM    8  C7  UNL     1      25.454   0.951  53.498  1.00  0.00     0.005 C 
HETATM    9  C8  UNL     1      26.707   1.031  53.170  1.00  0.00    -0.003 C 
HETATM   10  C9  UNL     1      27.394   2.201  52.632  1.00  0.00     0.209 C 
HETATM   11  C13 UNL     1      27.499  -0.176  53.362  1.00  0.00     0.080 C 
HETATM   12  O1  UNL     1      28.758   2.210  52.817  1.00  0.00    -0.382 OA
HETATM   13  C10 UNL     1      29.268   1.367  53.759  1.00  0.00     0.204 C 
HETATM   14  C11 UNL     1      28.808  -0.041  53.663  1.00  0.00    -0.026 C 
HETATM   15  C12 UNL     1      29.775  -1.142  53.900  1.00  0.00     0.048 C 
BRANCH  11  16
HETATM   16  O2  UNL     1      27.067  -1.470  53.271  1.00  0.00    -0.355 OA
HETATM   17  C14 UNL     1      26.802  -2.215  52.128  1.00  0.00     0.210 C 
ENDBRANCH  11  16
ENDBRANCH   7   8
ENDBRANCH   1   7
BRANCH   1  18
HETATM   18  C15 UNL     1      23.501   3.067  51.338  1.00  0.00     0.174 C 
HETATM   19  S1  UNL     1      22.386   4.175  51.856  1.00  0.00    -0.041 SA
BRANCH  18  20
HETATM   20  N2  UNL     1      24.232   3.245  50.152  1.00  0.00    -0.333 N 
HETATM   21  H21 UNL     1      24.024   2.466  49.472  1.00  0.00     0.168 HD
BRANCH  20  22
HETATM   22  C16 UNL     1      25.156   4.138  49.608  1.00  0.00     0.034 A 
HETATM   23  C17 UNL     1      24.843   5.431  49.222  1.00  0.00     0.029 A 
HETATM   24  C18 UNL     1      25.769   6.277  48.683  1.00  0.00     0.002 A 
HETATM   25  C19 UNL     1      27.053   5.801  48.530  1.00  0.00     0.000 A 
HETATM   26  C20 UNL     1      27.421   4.537  48.892  1.00  0.00     0.002 A 
HETATM   27  C21 UNL     1      26.461   3.696  49.438  1.00  0.00     0.029 A 
ENDBRANCH  20  22
ENDBRANCH  18  20
ENDBRANCH   1  18
TORSDOF 9
ENDMDL
MODEL 2
REMARK VINA RESULT:      -7.6      1.041      2.325
REMARK  9 active torsions:
REMARK  status: ('A' for Active; 'I' for Inactive)
REMARK    1  A    between atoms: C2_2  and  C3_3 
REMARK    2  A    between atoms: C3_3  and  C5_5 
REMARK    3  A    between atoms: C5_5  and  N1_6 
REMARK    4  A    between atoms: N1_6  and  C6_7 
REMARK    5  A    between atoms: N1_6  and  C15_18 
REMARK    6  A    between atoms: C6_7  and  C7_8 
REMARK    7  A    between atoms: C13_15  and  O2_16 
REMARK    8  A    between atoms: C15_18  and  N2_20 
REMARK    9  A    between atoms: N2_20  and  C16_21 
ROOT
HETATM    1  N1  UNL     1      23.824   2.645  51.788  1.00  0.00    -0.351 N 
ENDROOT
BRANCH   1   2
HETATM    2  C5  UNL     1      23.359   1.439  51.127  1.00  0.00     0.159 C 
BRANCH   2   3
HETATM    3  C3  UNL     1      22.235   0.862  51.902  1.00  0.00    -0.070 C 
HETATM    4  C4  UNL     1      20.980   1.348  51.798  1.00  0.00     0.044 C 
BRANCH   3   5
HETATM    5  C2  UNL     1      21.549  -0.008  52.821  1.00  0.00     0.023 C 
HETATM    6  C1  UNL     1      21.476  -0.152  54.109  1.00  0.00    -0.013 C 
ENDBRANCH   3   5
ENDBRANCH   2   3
ENDBRANCH   1   2
BRANCH   1   7
HETATM    7  C6  UNL     1      24.110   2.482  53.175  1.00  0.00     0.153 C 
BRANCH   7   8
HETATM    8  C7  UNL     1      25.531   2.023  53.395  1.00  0.00     0.005 C 
HETATM    9  C8  UNL     1      25.971   0.826  53.640  1.00  0.00    -0.003 C 
HETATM   10  C9  UNL     1      25.171  -0.388  53.764  1.00  0.00     0.209 C 
HETATM   11  C13 UNL     1      27.412   0.694  53.806  1.00  0.00     0.080 C 
HETATM   12  O1  UNL     1      25.857  -1.561  53.540  1.00  0.00    -0.382 OA
HETATM   13  C10 UNL     1      27.051  -1.474  52.890  1.00  0.00     0.204 C 
HETATM   14  C11 UNL     1      27.995  -0.465  53.434  1.00  0.00    -0.026 C 
HETATM   15  C12 UNL     1      29.441  -0.790  53.518  1.00  0.00     0.048 C 
BRANCH  11  16
HETATM   16  O2  UNL     1      28.274   1.629  54.308  1.00  0.00    -0.355 OA
HETATM   17  C14 UNL     1      28.970   2.619  53.624  1.00  0.00     0.210 C 
ENDBRANCH  11  16
ENDBRANCH   7   8
ENDBRANCH   1   7
BRANCH   1  18
HETATM   18  C15 UNL     1      24.004   3.931  51.146  1.00  0.00     0.174 C 
HETATM   19  S1  UNL     1      23.440   5.213  52.027  1.00  0.00    -0.041 SA
BRANCH  18  20
HETATM   20  N2  UNL     1      24.599   4.098  49.885  1.00  0.00    -0.333 N 
HETATM   21  H21 UNL     1      24.078   3.539  49.157  1.00  0.00     0.168 HD
BRANCH  20  22
HETATM   22  C16 UNL     1      25.675   4.774  49.309  1.00  0.00     0.034 A 
HETATM   23  C17 UNL     1      26.944   4.235  49.178  1.00  0.00     0.029 A 
HETATM   24  C18 UNL     1      27.978   4.928  48.618  1.00  0.00     0.002 A 
HETATM   25  C19 UNL     1      27.721   6.207  48.176  1.00  0.00     0.000 A 
HETATM   26  C20 UNL     1      26.491   6.792  48.277  1.00  0.00     0.002 A 
HETATM   27  C21 UNL     1      25.456   6.066  48.850  1.00  0.00     0.029 A 
ENDBRANCH  20  22
ENDBRANCH  18  20
ENDBRANCH   1  18
TORSDOF 9
ENDMDL
MODEL 3
REMARK VINA RESULT:      -7.3      1.537      2.728
REMARK  9 active torsions:
REMARK  status: ('A' for Active; 'I' for Inactive)
REMARK    1  A    between atoms: C2_2  and  C3_3 
REMARK    2  A    between atoms: C3_3  and  C5_5 
REMARK    3  A    between atoms: C5_5  and  N1_6 
REMARK    4  A    between atoms: N1_6  and  C6_7 
REMARK    5  A    between atoms: N1_6  and  C15_18 
REMARK    6  A    between atoms: C6_7  and  C7_8 
REMARK    7  A    between atoms: C13_15  and  O2_16 
REMARK    8  A    between atoms: C15_18  and  N2_20 
REMARK    9  A    between atoms: N2_20  and  C16_21 
ROOT
HETATM    1  N1  UNL     1      23.576   3.518  51.407  1.00  0.00    -0.351 N 
ENDROOT
BRANCH   1   2
HETATM    2  C5  UNL     1      23.491   2.426  50.455  1.00  0.00     0.159 C 
BRANCH   2   3
HETATM    3  C3  UNL     1      22.285   1.616  50.749  1.00  0.00    -0.070 C 
HETATM    4  C4  UNL     1      21.054   2.014  50.362  1.00  0.00     0.044 C 
BRANCH   3   5
HETATM    5  C2  UNL     1      21.495   0.526  51.258  1.00  0.00     0.023 C 
HETATM    6  C1  UNL     1      20.234   0.225  51.326  1.00  0.00    -0.013 C 
ENDBRANCH   3   5
ENDBRANCH   2   3
ENDBRANCH   1   2
BRANCH   1   7
HETATM    7  C6  UNL     1      23.660   3.104  52.769  1.00  0.00     0.153 C 
BRANCH   7   8
HETATM    8  C7  UNL     1      25.019   2.532  53.089  1.00  0.00     0.005 C 
HETATM    9  C8  UNL     1      25.338   1.309  53.384  1.00  0.00    -0.003 C 
HETATM   10  C9  UNL     1      24.431   0.170  53.480  1.00  0.00     0.209 C 
HETATM   11  C13 UNL     1      26.749   1.059  53.646  1.00  0.00     0.080 C 
HETATM   12  O1  UNL     1      25.025  -1.062  53.323  1.00  0.00    -0.382 OA
HETATM   13  C10 UNL     1      26.261  -1.092  52.750  1.00  0.00     0.204 C 
HETATM   14  C11 UNL     1      27.252  -0.154  53.334  1.00  0.00    -0.026 C 
HETATM   15  C12 UNL     1      28.657  -0.598  53.518  1.00  0.00     0.048 C 
BRANCH  11  16
HETATM   16  O2  UNL     1      27.655   1.929  54.185  1.00  0.00    -0.355 OA
HETATM   17  C14 UNL     1      28.707   2.584  53.553  1.00  0.00     0.210 C 
ENDBRANCH  11  16
ENDBRANCH   7   8
ENDBRANCH   1   7
BRANCH   1  18
HETATM   18  C15 UNL     1      23.582   4.925  51.064  1.00  0.00     0.174 C 
HETATM   19  S1  UNL     1      22.074   5.589  50.901  1.00  0.00    -0.041 SA
BRANCH  18  20
HETATM   20  N2  UNL     1      24.752   5.678  50.877  1.00  0.00    -0.333 N 
HETATM   21  H21 UNL     1      24.847   6.403  51.637  1.00  0.00     0.168 HD
BRANCH  20  22
HETATM   22  C16 UNL     1      25.821   5.760  49.984  1.00  0.00     0.034 A 
HETATM   23  C17 UNL     1      26.287   6.947  49.444  1.00  0.00     0.029 A 
HETATM   24  C18 UNL     1      27.329   6.991  48.565  1.00  0.00     0.002 A 
HETATM   25  C19 UNL     1      27.921   5.796  48.219  1.00  0.00     0.000 A 
HETATM   26  C20 UNL     1      27.507   4.594  48.718  1.00  0.00     0.002 A 
HETATM   27  C21 UNL     1      26.445   4.576  49.612  1.00  0.00     0.029 A 
ENDBRANCH  20  22
ENDBRANCH  18  20
ENDBRANCH   1  18
TORSDOF 9
ENDMDL
MODEL 4
REMARK VINA RESULT:      -7.3      2.146      5.841
REMARK  9 active torsions:
REMARK  status: ('A' for Active; 'I' for Inactive)
REMARK    1  A    between atoms: C2_2  and  C3_3 
REMARK    2  A    between atoms: C3_3  and  C5_5 
REMARK    3  A    between atoms: C5_5  and  N1_6 
REMARK    4  A    between atoms: N1_6  and  C6_7 
REMARK    5  A    between atoms: N1_6  and  C15_18 
REMARK    6  A    between atoms: C6_7  and  C7_8 
REMARK    7  A    between atoms: C13_15  and  O2_16 
REMARK    8  A    between atoms: C15_18  and  N2_20 
REMARK    9  A    between atoms: N2_20  and  C16_21 
ROOT
HETATM    1  N1  UNL     1      23.281   2.835  50.913  1.00  0.00    -0.351 N 
ENDROOT
BRANCH   1   2
HETATM    2  C5  UNL     1      22.023   2.114  50.965  1.00  0.00     0.159 C 
BRANCH   2   3
HETATM    3  C3  UNL     1      22.113   1.049  51.992  1.00  0.00    -0.070 C 
HETATM    4  C4  UNL     1      21.275   1.013  53.050  1.00  0.00     0.044 C 
BRANCH   3   5
HETATM    5  C2  UNL     1      22.599  -0.129  52.661  1.00  0.00     0.023 C 
HETATM    6  C1  UNL     1      22.986  -0.442  53.860  1.00  0.00    -0.013 C 
ENDBRANCH   3   5
ENDBRANCH   2   3
ENDBRANCH   1   2
BRANCH   1   7
HETATM    7  C6  UNL     1      23.851   2.929  49.610  1.00  0.00     0.153 C 
BRANCH   7   8
HETATM    8  C7  UNL     1      24.364   4.321  49.331  1.00  0.00     0.005 C 
HETATM    9  C8  UNL     1      25.585   4.761  49.365  1.00  0.00    -0.003 C 
HETATM   10  C9  UNL     1      26.780   3.989  49.690  1.00  0.00     0.209 C 
HETATM   11  C13 UNL     1      25.769   6.169  49.045  1.00  0.00     0.080 C 
HETATM   12  O1  UNL     1      27.958   4.509  49.202  1.00  0.00    -0.382 OA
HETATM   13  C10 UNL     1      27.869   5.430  48.202  1.00  0.00     0.204 C 
HETATM   14  C11 UNL     1      26.921   6.545  48.451  1.00  0.00    -0.026 C 
HETATM   15  C12 UNL     1      27.293   7.923  48.043  1.00  0.00     0.048 C 
BRANCH  11  16
HETATM   16  O2  UNL     1      24.891   7.191  49.278  1.00  0.00    -0.355 OA
HETATM   17  C14 UNL     1      24.538   7.768  50.493  1.00  0.00     0.210 C 
ENDBRANCH  11  16
ENDBRANCH   7   8
ENDBRANCH   1   7
BRANCH   1  18
HETATM   18  C15 UNL     1      23.948   3.431  52.052  1.00  0.00     0.174 C 
HETATM   19  S1  UNL     1      23.151   4.729  52.702  1.00  0.00    -0.041 SA
BRANCH  18  20
HETATM   20  N2  UNL     1      25.166   2.967  52.575  1.00  0.00    -0.333 N 
HETATM   21  H21 UNL     1      25.777   3.779  52.855  1.00  0.00     0.168 HD
BRANCH  20  22
HETATM   22  C16 UNL     1      25.811   1.756  52.827  1.00  0.00     0.034 A 
HETATM   23  C17 UNL     1      26.133   0.834  51.845  1.00  0.00     0.029 A 
HETATM   24  C18 UNL     1      26.756  -0.347  52.127  1.00  0.00     0.002 A 
HETATM   25  C19 UNL     1      27.064  -0.605  53.445  1.00  0.00     0.000 A 
HETATM   26  C20 UNL     1      26.773   0.265  54.457  1.00  0.00     0.002 A 
HETATM   27  C21 UNL     1      26.139   1.460  54.144  1.00  0.00     0.029 A 
ENDBRANCH  20  22
ENDBRANCH  18  20
ENDBRANCH   1  18
TORSDOF 9
ENDMDL
MODEL 5
REMARK VINA RESULT:      -7.0      2.564      6.812
REMARK  9 active torsions:
REMARK  status: ('A' for Active; 'I' for Inactive)
REMARK    1  A    between atoms: C2_2  and  C3_3 
REMARK    2  A    between atoms: C3_3  and  C5_5 
REMARK    3  A    between atoms: C5_5  and  N1_6 
REMARK    4  A    between atoms: N1_6  and  C6_7 
REMARK    5  A    between atoms: N1_6  and  C15_18 
REMARK    6  A    between atoms: C6_7  and  C7_8 
REMARK    7  A    between atoms: C13_15  and  O2_16 
REMARK    8  A    between atoms: C15_18  and  N2_20 
REMARK    9  A    between atoms: N2_20  and  C16_21 
ROOT
HETATM    1  N1  UNL     1      23.618   2.904  50.535  1.00  0.00    -0.351 N 
ENDROOT
BRANCH   1   2
HETATM    2  C5  UNL     1      24.258   3.290  51.780  1.00  0.00     0.159 C 
BRANCH   2   3
HETATM    3  C3  UNL     1      25.336   2.324  52.095  1.00  0.00    -0.070 C 
HETATM    4  C4  UNL     1      25.698   2.055  53.368  1.00  0.00     0.044 C 
BRANCH   3   5
HETATM    5  C2  UNL     1      26.383   1.363  51.865  1.00  0.00     0.023 C 
HETATM    6  C1  UNL     1      26.527   0.078  51.978  1.00  0.00    -0.013 C 
ENDBRANCH   3   5
ENDBRANCH   2   3
ENDBRANCH   1   2
BRANCH   1   7
HETATM    7  C6  UNL     1      24.294   3.356  49.364  1.00  0.00     0.153 C 
BRANCH   7   8
HETATM    8  C7  UNL     1      24.798   4.768  49.528  1.00  0.00     0.005 C 
HETATM    9  C8  UNL     1      26.003   5.225  49.379  1.00  0.00    -0.003 C 
HETATM   10  C9  UNL     1      27.187   4.456  49.008  1.00  0.00     0.209 C 
HETATM   11  C13 UNL     1      26.182   6.652  49.608  1.00  0.00     0.080 C 
HETATM   12  O1  UNL     1      28.207   5.193  48.449  1.00  0.00    -0.382 OA
HETATM   13  C10 UNL     1      27.897   6.431  47.972  1.00  0.00     0.204 C 
HETATM   14  C11 UNL     1      27.138   7.298  48.908  1.00  0.00    -0.026 C 
HETATM   15  C12 UNL     1      27.469   8.743  48.995  1.00  0.00     0.048 C 
BRANCH  11  16
HETATM   16  O2  UNL     1      25.479   7.444  50.473  1.00  0.00    -0.355 OA
HETATM   17  C14 UNL     1      24.247   8.058  50.276  1.00  0.00     0.210 C 
ENDBRANCH  11  16
ENDBRANCH   7   8
ENDBRANCH   1   7
BRANCH   1  18
HETATM   18  C15 UNL     1      22.401   2.127  50.430  1.00  0.00     0.174 C 
HETATM   19  S1  UNL     1      21.240   2.813  49.470  1.00  0.00    -0.041 SA
BRANCH  18  20
HETATM   20  N2  UNL     1      22.201   0.898  51.079  1.00  0.00    -0.333 N 
HETATM   21  H21 UNL     1      22.201   0.109  50.379  1.00  0.00     0.168 HD
BRANCH  20  22
HETATM   22  C16 UNL     1      21.994   0.409  52.369  1.00  0.00     0.034 A 
HETATM   23  C17 UNL     1      20.891   0.723  53.146  1.00  0.00     0.029 A 
HETATM   24  C18 UNL     1      20.724   0.236  54.409  1.00  0.00     0.002 A 
HETATM   25  C19 UNL     1      21.704  -0.596  54.906  1.00  0.00     0.000 A 
HETATM   26  C20 UNL     1      22.815  -0.941  54.188  1.00  0.00     0.002 A 
HETATM   27  C21 UNL     1      22.960  -0.433  52.905  1.00  0.00     0.029 A 
ENDBRANCH  20  22
ENDBRANCH  18  20
ENDBRANCH   1  18
TORSDOF 9
ENDMDL
MODEL 6
REMARK VINA RESULT:      -7.0      1.973      3.162
REMARK  9 active torsions:
REMARK  status: ('A' for Active; 'I' for Inactive)
REMARK    1  A    between atoms: C2_2  and  C3_3 
REMARK    2  A    between atoms: C3_3  and  C5_5 
REMARK    3  A    between atoms: C5_5  and  N1_6 
REMARK    4  A    between atoms: N1_6  and  C6_7 
REMARK    5  A    between atoms: N1_6  and  C15_18 
REMARK    6  A    between atoms: C6_7  and  C7_8 
REMARK    7  A    between atoms: C13_15  and  O2_16 
REMARK    8  A    between atoms: C15_18  and  N2_20 
REMARK    9  A    between atoms: N2_20  and  C16_21 
ROOT
HETATM    1  N1  UNL     1      24.326   2.437  52.058  1.00  0.00    -0.351 N 
ENDROOT
BRANCH   1   2
HETATM    2  C5  UNL     1      23.577   1.362  51.434  1.00  0.00     0.159 C 
BRANCH   2   3
HETATM    3  C3  UNL     1      22.453   0.973  52.320  1.00  0.00    -0.070 C 
HETATM    4  C4  UNL     1      22.210  -0.318  52.630  1.00  0.00     0.044 C 
BRANCH   3   5
HETATM    5  C2  UNL     1      21.303   1.128  53.170  1.00  0.00     0.023 C 
HETATM    6  C1  UNL     1      20.533   0.350  53.868  1.00  0.00    -0.013 C 
ENDBRANCH   3   5
ENDBRANCH   2   3
ENDBRANCH   1   2
BRANCH   1   7
HETATM    7  C6  UNL     1      24.582   2.245  53.448  1.00  0.00     0.153 C 
BRANCH   7   8
HETATM    8  C7  UNL     1      25.994   1.768  53.687  1.00  0.00     0.005 C 
HETATM    9  C8  UNL     1      26.434   0.553  53.801  1.00  0.00    -0.003 C 
HETATM   10  C9  UNL     1      25.644  -0.672  53.722  1.00  0.00     0.209 C 
HETATM   11  C13 UNL     1      27.865   0.407  54.030  1.00  0.00     0.080 C 
HETATM   12  O1  UNL     1      26.355  -1.803  53.388  1.00  0.00    -0.382 OA
HETATM   13  C10 UNL     1      27.582  -1.626  52.824  1.00  0.00     0.204 C 
HETATM   14  C11 UNL     1      28.482  -0.691  53.546  1.00  0.00    -0.026 C 
HETATM   15  C12 UNL     1      29.925  -1.017  53.670  1.00  0.00     0.048 C 
BRANCH  11  16
HETATM   16  O2  UNL     1      28.686   1.273  54.696  1.00  0.00    -0.355 OA
HETATM   17  C14 UNL     1      29.447   2.316  54.179  1.00  0.00     0.210 C 
ENDBRANCH  11  16
ENDBRANCH   7   8
ENDBRANCH   1   7
BRANCH   1  18
HETATM   18  C15 UNL     1      24.800   3.626  51.380  1.00  0.00     0.174 C 
HETATM   19  S1  UNL     1      25.861   3.324  50.145  1.00  0.00    -0.041 SA
BRANCH  18  20
HETATM   20  N2  UNL     1      24.412   4.930  51.726  1.00  0.00    -0.333 N 
HETATM   21  H21 UNL     1      24.774   5.178  52.684  1.00  0.00     0.168 HD
BRANCH  20  22
HETATM   22  C16 UNL     1      23.685   5.991  51.185  1.00  0.00     0.034 A 
HETATM   23  C17 UNL     1      24.264   7.136  50.663  1.00  0.00     0.029 A 
HETATM   24  C18 UNL     1      23.524   8.161  50.150  1.00  0.00     0.002 A 
HETATM   25  C19 UNL     1      22.152   8.025  50.164  1.00  0.00     0.000 A 
HETATM   26  C20 UNL     1      21.524   6.919  50.664  1.00  0.00     0.002 A 
HETATM   27  C21 UNL     1      22.300   5.890  51.180  1.00  0.00     0.029 A 
ENDBRANCH  20  22
ENDBRANCH  18  20
ENDBRANCH   1  18
TORSDOF 9
ENDMDL
MODEL 7
REMARK VINA RESULT:      -7.0      2.542      6.443
REMARK  9 active torsions:
REMARK  status: ('A' for Active; 'I' for Inactive)
REMARK    1  A    between atoms: C2_2  and  C3_3 
REMARK    2  A    between atoms: C3_3  and  C5_5 
REMARK    3  A    between atoms: C5_5  and  N1_6 
REMARK    4  A    between atoms: N1_6  and  C6_7 
REMARK    5  A    between atoms: N1_6  and  C15_18 
REMARK    6  A    between atoms: C6_7  and  C7_8 
REMARK    7  A    between atoms: C13_15  and  O2_16 
REMARK    8  A    between atoms: C15_18  and  N2_20 
REMARK    9  A    between atoms: N2_20  and  C16_21 
ROOT
HETATM    1  N1  UNL     1      24.487   3.208  51.447  1.00  0.00    -0.351 N 
ENDROOT
BRANCH   1   2
HETATM    2  C5  UNL     1      23.554   3.653  50.428  1.00  0.00     0.159 C 
BRANCH   2   3
HETATM    3  C3  UNL     1      23.235   5.083  50.650  1.00  0.00    -0.070 C 
HETATM    4  C4  UNL     1      22.086   5.631  50.200  1.00  0.00     0.044 C 
BRANCH   3   5
HETATM    5  C2  UNL     1      23.405   6.439  51.104  1.00  0.00     0.023 C 
HETATM    6  C1  UNL     1      24.195   7.432  50.835  1.00  0.00    -0.013 C 
ENDBRANCH   3   5
ENDBRANCH   2   3
ENDBRANCH   1   2
BRANCH   1   7
HETATM    7  C6  UNL     1      23.897   2.987  52.727  1.00  0.00     0.153 C 
BRANCH   7   8
HETATM    8  C7  UNL     1      22.611   2.207  52.613  1.00  0.00     0.005 C 
HETATM    9  C8  UNL     1      22.381   0.966  52.916  1.00  0.00    -0.003 C 
HETATM   10  C9  UNL     1      23.342   0.008  53.453  1.00  0.00     0.209 C 
HETATM   11  C13 UNL     1      21.022   0.492  52.695  1.00  0.00     0.080 C 
HETATM   12  O1  UNL     1      22.788  -1.053  54.134  1.00  0.00    -0.382 OA
HETATM   13  C10 UNL     1      21.497  -0.923  54.549  1.00  0.00     0.204 C 
HETATM   14  C11 UNL     1      20.540  -0.470  53.508  1.00  0.00    -0.026 C 
HETATM   15  C12 UNL     1      19.186  -1.078  53.448  1.00  0.00     0.048 C 
BRANCH  11  16
HETATM   16  O2  UNL     1      20.147   0.914  51.733  1.00  0.00    -0.355 OA
HETATM   17  C14 UNL     1      19.331   2.040  51.741  1.00  0.00     0.210 C 
ENDBRANCH  11  16
ENDBRANCH   7   8
ENDBRANCH   1   7
BRANCH   1  18
HETATM   18  C15 UNL     1      25.903   2.989  51.242  1.00  0.00     0.174 C 
HETATM   19  S1  UNL     1      26.412   3.249  49.688  1.00  0.00    -0.041 SA
BRANCH  18  20
HETATM   20  N2  UNL     1      26.787   2.586  52.257  1.00  0.00    -0.333 N 
HETATM   21  H21 UNL     1      27.024   3.403  52.881  1.00  0.00     0.168 HD
BRANCH  20  22
HETATM   22  C16 UNL     1      27.448   1.434  52.683  1.00  0.00     0.034 A 
HETATM   23  C17 UNL     1      28.649   1.443  53.371  1.00  0.00     0.029 A 
HETATM   24  C18 UNL     1      29.275   0.297  53.765  1.00  0.00     0.002 A 
HETATM   25  C19 UNL     1      28.668  -0.900  53.452  1.00  0.00     0.000 A 
HETATM   26  C20 UNL     1      27.483  -0.973  52.775  1.00  0.00     0.002 A 
HETATM   27  C21 UNL     1      26.866   0.208  52.386  1.00  0.00     0.029 A 
ENDBRANCH  20  22
ENDBRANCH  18  20
ENDBRANCH   1  18
TORSDOF 9
ENDMDL
MODEL 8
REMARK VINA RESULT:      -6.9      2.971      6.689
REMARK  9 active torsions:
REMARK  status: ('A' for Active; 'I' for Inactive)
REMARK    1  A    between atoms: C2_2  and  C3_3 
REMARK    2  A    between atoms: C3_3  and  C5_5 
REMARK    3  A    between atoms: C5_5  and  N1_6 
REMARK    4  A    between atoms: N1_6  and  C6_7 
REMARK    5  A    between atoms: N1_6  and  C15_18 
REMARK    6  A    between atoms: C6_7  and  C7_8 
REMARK    7  A    between atoms: C13_15  and  O2_16 
REMARK    8  A    between atoms: C15_18  and  N2_20 
REMARK    9  A    between atoms: N2_20  and  C16_21 
ROOT
HETATM    1  N1  UNL     1      24.343   2.995  51.020  1.00  0.00    -0.351 N 
ENDROOT
BRANCH   1   2
HETATM    2  C5  UNL     1      23.504   2.875  49.842  1.00  0.00     0.159 C 
BRANCH   2   3
HETATM    3  C3  UNL     1      22.825   4.169  49.593  1.00  0.00    -0.070 C 
HETATM    4  C4  UNL     1      22.428   4.535  48.356  1.00  0.00     0.044 C 
BRANCH   3   5
HETATM    5  C2  UNL     1      22.246   5.455  49.881  1.00  0.00     0.023 C 
HETATM    6  C1  UNL     1      22.254   6.294  50.872  1.00  0.00    -0.013 C 
ENDBRANCH   3   5
ENDBRANCH   2   3
ENDBRANCH   1   2
BRANCH   1   7
HETATM    7  C6  UNL     1      23.623   3.056  52.249  1.00  0.00     0.153 C 
BRANCH   7   8
HETATM    8  C7  UNL     1      22.603   1.948  52.347  1.00  0.00     0.005 C 
HETATM    9  C8  UNL     1      21.314   2.036  52.467  1.00  0.00    -0.003 C 
HETATM   10  C9  UNL     1      20.528   3.264  52.540  1.00  0.00     0.209 C 
HETATM   11  C13 UNL     1      20.588   0.776  52.536  1.00  0.00     0.080 C 
HETATM   12  O1  UNL     1      19.205   3.129  52.181  1.00  0.00    -0.382 OA
HETATM   13  C10 UNL     1      18.859   2.019  51.470  1.00  0.00     0.204 C 
HETATM   14  C11 UNL     1      19.335   0.732  52.038  1.00  0.00    -0.026 C 
HETATM   15  C12 UNL     1      18.439  -0.453  52.010  1.00  0.00     0.048 C 
BRANCH  11  16
HETATM   16  O2  UNL     1      21.033  -0.405  53.061  1.00  0.00    -0.355 OA
HETATM   17  C14 UNL     1      21.288  -0.720  54.391  1.00  0.00     0.210 C 
ENDBRANCH  11  16
ENDBRANCH   7   8
ENDBRANCH   1   7
BRANCH   1  18
HETATM   18  C15 UNL     1      25.790   3.050  51.011  1.00  0.00     0.174 C 
HETATM   19  S1  UNL     1      26.439   3.601  49.591  1.00  0.00    -0.041 SA
BRANCH  18  20
HETATM   20  N2  UNL     1      26.593   2.672  52.100  1.00  0.00    -0.333 N 
HETATM   21  H21 UNL     1      26.746   3.492  52.744  1.00  0.00     0.168 HD
BRANCH  20  22
HETATM   22  C16 UNL     1      27.252   1.540  52.579  1.00  0.00     0.034 A 
HETATM   23  C17 UNL     1      26.773   0.248  52.434  1.00  0.00     0.029 A 
HETATM   24  C18 UNL     1      27.438  -0.838  52.923  1.00  0.00     0.002 A 
HETATM   25  C19 UNL     1      28.627  -0.612  53.582  1.00  0.00     0.000 A 
HETATM   26  C20 UNL     1      29.151   0.638  53.756  1.00  0.00     0.002 A 
HETATM   27  C21 UNL     1      28.455   1.726  53.248  1.00  0.00     0.029 A 
ENDBRANCH  20  22
ENDBRANCH  18  20
ENDBRANCH   1  18
TORSDOF 9
ENDMDL
MODEL 9
REMARK VINA RESULT:      -6.9      2.697      5.772
REMARK  9 active torsions:
REMARK  status: ('A' for Active; 'I' for Inactive)
REMARK    1  A    between atoms: C2_2  and  C3_3 
REMARK    2  A    between atoms: C3_3  and  C5_5 
REMARK    3  A    between atoms: C5_5  and  N1_6 
REMARK    4  A    between atoms: N1_6  and  C6_7 
REMARK    5  A    between atoms: N1_6  and  C15_18 
REMARK    6  A    between atoms: C6_7  and  C7_8 
REMARK    7  A    between atoms: C13_15  and  O2_16 
REMARK    8  A    between atoms: C15_18  and  N2_20 
REMARK    9  A    between atoms: N2_20  and  C16_21 
ROOT
HETATM    1  N1  UNL     1      23.162   2.776  51.460  1.00  0.00    -0.351 N 
ENDROOT
BRANCH   1   2
HETATM    2  C5  UNL     1      23.633   2.442  52.791  1.00  0.00     0.159 C 
BRANCH   2   3
HETATM    3  C3  UNL     1      24.970   1.809  52.691  1.00  0.00    -0.070 C 
HETATM    4  C4  UNL     1      25.281   0.696  53.388  1.00  0.00     0.044 C 
BRANCH   3   5
HETATM    5  C2  UNL     1      26.329   1.610  52.260  1.00  0.00     0.023 C 
HETATM    6  C1  UNL     1      27.488   2.134  52.518  1.00  0.00    -0.013 C 
ENDBRANCH   3   5
ENDBRANCH   2   3
ENDBRANCH   1   2
BRANCH   1   7
HETATM    7  C6  UNL     1      22.675   1.663  50.713  1.00  0.00     0.153 C 
BRANCH   7   8
HETATM    8  C7  UNL     1      21.831   0.751  51.570  1.00  0.00     0.005 C 
HETATM    9  C8  UNL     1      20.575   0.857  51.878  1.00  0.00    -0.003 C 
HETATM   10  C9  UNL     1      19.659   1.913  51.457  1.00  0.00     0.209 C 
HETATM   11  C13 UNL     1      20.033  -0.190  52.733  1.00  0.00     0.080 C 
HETATM   12  O1  UNL     1      18.325   1.573  51.488  1.00  0.00    -0.382 OA
HETATM   13  C10 UNL     1      18.018   0.246  51.542  1.00  0.00     0.204 C 
HETATM   14  C11 UNL     1      18.734  -0.527  52.588  1.00  0.00    -0.026 C 
HETATM   15  C12 UNL     1      18.002  -1.566  53.355  1.00  0.00     0.048 C 
BRANCH  11  16
HETATM   16  O2  UNL     1      20.699  -0.898  53.694  1.00  0.00    -0.355 OA
HETATM   17  C14 UNL     1      21.350  -0.419  54.826  1.00  0.00     0.210 C 
ENDBRANCH  11  16
ENDBRANCH   7   8
ENDBRANCH   1   7
BRANCH   1  18
HETATM   18  C15 UNL     1      23.159   4.105  50.885  1.00  0.00     0.174 C 
HETATM   19  S1  UNL     1      22.303   5.220  51.760  1.00  0.00    -0.041 SA
BRANCH  18  20
HETATM   20  N2  UNL     1      23.815   4.440  49.690  1.00  0.00    -0.333 N 
HETATM   21  H21 UNL     1      23.180   4.276  48.865  1.00  0.00     0.168 HD
BRANCH  20  22
HETATM   22  C16 UNL     1      25.056   4.918  49.268  1.00  0.00     0.034 A 
HETATM   23  C17 UNL     1      25.264   6.195  48.774  1.00  0.00     0.029 A 
HETATM   24  C18 UNL     1      26.490   6.629  48.360  1.00  0.00     0.002 A 
HETATM   25  C19 UNL     1      27.541   5.743  48.448  1.00  0.00     0.000 A 
HETATM   26  C20 UNL     1      27.399   4.471  48.926  1.00  0.00     0.002 A 
HETATM   27  C21 UNL     1      26.141   4.055  49.342  1.00  0.00     0.029 A 
ENDBRANCH  20  22
ENDBRANCH  18  20
ENDBRANCH   1  18
TORSDOF 9
ENDMDL
