MODEL 1
REMARK VINA RESULT:      -7.9      0.000      0.000
REMARK  7 active torsions:
REMARK  status: ('A' for Active; 'I' for Inactive)
REMARK    1  A    between atoms: N1_1  and  C1_2 
REMARK    2  A    between atoms: C2_3  and  C3_4 
REMARK    3  A    between atoms: C3_4  and  N2_5 
REMARK    4  A    between atoms: C3_4  and  C15_21 
REMARK    5  A    between atoms: N2_5  and  C4_6 
REMARK    6  A    between atoms: C6_8  and  N3_9 
REMARK       I    between atoms: N3_9  and  C7_10 
REMARK    7  A    between atoms: C7_10  and  C8_12 
ROOT
HETATM    1  C4  UNL     1      23.138   1.859  52.075  1.00  0.00     0.032 C 
HETATM    2  C5  UNL     1      24.087   2.674  51.673  1.00  0.00     0.066 C 
HETATM    3  C6  UNL     1      23.852   4.091  51.425  1.00  0.00     0.079 C 
HETATM    4  S1  UNL     1      22.352   4.696  51.652  1.00  0.00    -0.071 SA
HETATM    5  C13 UNL     1      21.283   3.638  52.276  1.00  0.00     0.026 C 
HETATM    6  C14 UNL     1      21.783   2.413  52.278  1.00  0.00     0.049 C 
ENDROOT
BRANCH   1   7
HETATM    7  N2  UNL     1      23.234   0.467  52.351  1.00  0.00    -0.378 N 
HETATM    8  H6  UNL     1      23.025  -0.171  51.562  1.00  0.00     0.160 HD
BRANCH   7   9
HETATM    9  C3  UNL     1      23.605   0.059  53.678  1.00  0.00     0.141 C 
BRANCH   9  10
HETATM   10  C2  UNL     1      22.914  -1.209  54.023  1.00  0.00     0.019 C 
HETATM   11  C1  UNL     1      21.737  -1.236  54.637  1.00  0.00     0.078 C 
BRANCH  11  12
HETATM   12  N1  UNL     1      21.131   0.002  54.970  1.00  0.00    -0.408 N 
HETATM   13  H1  UNL     1      20.374  -0.277  55.658  1.00  0.00     0.155 HD
HETATM   14  H2  UNL     1      21.667   0.704  54.407  1.00  0.00     0.155 HD
ENDBRANCH  11  12
ENDBRANCH   9  10
BRANCH   9  15
HETATM   15  C15 UNL     1      25.073  -0.138  53.794  1.00  0.00    -0.014 A 
HETATM   16  C16 UNL     1      25.657  -0.551  52.598  1.00  0.00     0.012 A 
HETATM   17  C17 UNL     1      27.037  -0.768  52.593  1.00  0.00     0.020 A 
HETATM   18  C18 UNL     1      27.790  -0.571  53.756  1.00  0.00     0.116 A 
HETATM   19  N5  UNL     1      27.162  -0.169  54.886  1.00  0.00    -0.272 NA
HETATM   20  C19 UNL     1      25.841   0.050  54.936  1.00  0.00     0.125 A 
ENDBRANCH   9  15
ENDBRANCH   7   9
ENDBRANCH   1   7
BRANCH   3  21
HETATM   21  N3  UNL     1      24.925   4.918  50.991  1.00  0.00    -0.317 N 
HETATM   22  C7  UNL     1      25.373   4.813  49.646  1.00  0.00     0.256 C 
HETATM   23  O1  UNL     1      24.772   3.969  48.905  1.00  0.00    -0.267 OA
HETATM   24  H8  UNL     1      25.369   5.579  51.633  1.00  0.00     0.169 HD
BRANCH  22  25
HETATM   25  C8  UNL     1      26.473   5.637  49.136  1.00  0.00     0.035 A 
HETATM   26  C9  UNL     1      26.486   6.993  49.077  1.00  0.00     0.036 A 
HETATM   27  C10 UNL     1      27.607   7.616  48.566  1.00  0.00     0.117 A 
HETATM   28  N4  UNL     1      28.687   6.962  48.121  1.00  0.00    -0.273 NA
HETATM   29  C11 UNL     1      28.711   5.616  48.164  1.00  0.00     0.117 A 
HETATM   30  C12 UNL     1      27.599   4.986  48.672  1.00  0.00     0.036 A 
ENDBRANCH  22  25
ENDBRANCH   3  21
TORSDOF 7
ENDMDL
MODEL 2
REMARK VINA RESULT:      -7.9      2.485      7.412
REMARK  7 active torsions:
REMARK  status: ('A' for Active; 'I' for Inactive)
REMARK    1  A    between atoms: N1_1  and  C1_2 
REMARK    2  A    between atoms: C2_3  and  C3_4 
REMARK    3  A    between atoms: C3_4  and  N2_5 
REMARK    4  A    between atoms: C3_4  and  C15_21 
REMARK    5  A    between atoms: N2_5  and  C4_6 
REMARK    6  A    between atoms: C6_8  and  N3_9 
REMARK       I    between atoms: N3_9  and  C7_10 
REMARK    7  A    between atoms: C7_10  and  C8_12 
ROOT
HETATM    1  C4  UNL     1      24.536   4.291  51.146  1.00  0.00     0.032 C 
HETATM    2  C5  UNL     1      25.216   3.170  51.235  1.00  0.00     0.066 C 
HETATM    3  C6  UNL     1      24.683   1.979  51.885  1.00  0.00     0.079 C 
HETATM    4  S1  UNL     1      23.183   2.033  52.530  1.00  0.00    -0.071 SA
HETATM    5  C13 UNL     1      22.376   3.420  52.250  1.00  0.00     0.026 C 
HETATM    6  C14 UNL     1      23.180   4.333  51.731  1.00  0.00     0.049 C 
ENDROOT
BRANCH   1   7
HETATM    7  N2  UNL     1      24.937   5.516  50.542  1.00  0.00    -0.378 N 
HETATM    8  H6  UNL     1      25.017   6.331  51.176  1.00  0.00     0.160 HD
BRANCH   7   9
HETATM    9  C3  UNL     1      25.194   5.527  49.129  1.00  0.00     0.141 C 
BRANCH   9  10
HETATM   10  C2  UNL     1      24.206   6.403  48.449  1.00  0.00     0.019 C 
HETATM   11  C1  UNL     1      23.105   5.928  47.879  1.00  0.00     0.078 C 
BRANCH  11  12
HETATM   12  N1  UNL     1      22.878   4.529  47.929  1.00  0.00    -0.408 N 
HETATM   13  H1  UNL     1      21.841   4.445  47.731  1.00  0.00     0.155 HD
HETATM   14  H2  UNL     1      23.823   4.129  48.142  1.00  0.00     0.155 HD
ENDBRANCH  11  12
ENDBRANCH   9  10
BRANCH   9  15
HETATM   15  C15 UNL     1      26.565   6.015  48.830  1.00  0.00    -0.014 A 
HETATM   16  C16 UNL     1      27.467   4.976  48.603  1.00  0.00     0.012 A 
HETATM   17  C17 UNL     1      28.789   5.322  48.313  1.00  0.00     0.020 A 
HETATM   18  C18 UNL     1      29.176   6.666  48.255  1.00  0.00     0.116 A 
HETATM   19  N5  UNL     1      28.250   7.626  48.485  1.00  0.00    -0.272 NA
HETATM   20  C19 UNL     1      26.972   7.341  48.767  1.00  0.00     0.125 A 
ENDBRANCH   9  15
ENDBRANCH   7   9
ENDBRANCH   1   7
BRANCH   3  21
HETATM   21  N3  UNL     1      25.472   0.796  51.947  1.00  0.00    -0.317 N 
HETATM   22  C7  UNL     1      26.517   0.718  52.907  1.00  0.00     0.256 C 
HETATM   23  O1  UNL     1      26.680   1.732  53.662  1.00  0.00    -0.267 OA
HETATM   24  H8  UNL     1      25.293   0.014  51.313  1.00  0.00     0.169 HD
BRANCH  22  25
HETATM   25  C8  UNL     1      27.366  -0.471  53.023  1.00  0.00     0.035 A 
HETATM   26  C9  UNL     1      27.000  -1.740  52.710  1.00  0.00     0.036 A 
HETATM   27  C10 UNL     1      27.925  -2.750  52.878  1.00  0.00     0.117 A 
HETATM   28  N4  UNL     1      29.168  -2.555  53.336  1.00  0.00    -0.273 NA
HETATM   29  C11 UNL     1      29.568  -1.310  53.657  1.00  0.00     0.117 A 
HETATM   30  C12 UNL     1      28.653  -0.297  53.493  1.00  0.00     0.036 A 
ENDBRANCH  22  25
ENDBRANCH   3  21
TORSDOF 7
ENDMDL
MODEL 3
REMARK VINA RESULT:      -7.6      3.756      6.755
REMARK  7 active torsions:
REMARK  status: ('A' for Active; 'I' for Inactive)
REMARK    1  A    between atoms: N1_1  and  C1_2 
REMARK    2  A    between atoms: C2_3  and  C3_4 
REMARK    3  A    between atoms: C3_4  and  N2_5 
REMARK    4  A    between atoms: C3_4  and  C15_21 
REMARK    5  A    between atoms: N2_5  and  C4_6 
REMARK    6  A    between atoms: C6_8  and  N3_9 
REMARK       I    between atoms: N3_9  and  C7_10 
REMARK    7  A    between atoms: C7_10  and  C8_12 
ROOT
HETATM    1  C4  UNL     1      21.883   1.596  51.781  1.00  0.00     0.032 C 
HETATM    2  C5  UNL     1      23.032   0.958  51.811  1.00  0.00     0.066 C 
HETATM    3  C6  UNL     1      24.310   1.648  51.924  1.00  0.00     0.079 C 
HETATM    4  S1  UNL     1      24.325   3.279  52.017  1.00  0.00    -0.071 SA
HETATM    5  C13 UNL     1      22.850   3.964  52.106  1.00  0.00     0.026 C 
HETATM    6  C14 UNL     1      21.904   3.072  51.866  1.00  0.00     0.049 C 
ENDROOT
BRANCH   1   7
HETATM    7  N2  UNL     1      20.575   1.047  51.674  1.00  0.00    -0.378 N 
HETATM    8  H6  UNL     1      19.957   1.477  50.963  1.00  0.00     0.160 HD
BRANCH   7   9
HETATM    9  C3  UNL     1      20.219  -0.038  52.545  1.00  0.00     0.141 C 
BRANCH   9  10
HETATM   10  C2  UNL     1      20.391   0.379  53.960  1.00  0.00     0.019 C 
HETATM   11  C1  UNL     1      21.226  -0.238  54.789  1.00  0.00     0.078 C 
BRANCH  11  12
HETATM   12  N1  UNL     1      21.973  -1.335  54.288  1.00  0.00    -0.408 N 
HETATM   13  H1  UNL     1      22.326  -1.808  55.169  1.00  0.00     0.155 HD
HETATM   14  H2  UNL     1      21.883  -1.246  53.249  1.00  0.00     0.155 HD
ENDBRANCH  11  12
ENDBRANCH   9  10
BRANCH   9  15
HETATM   15  C15 UNL     1      18.813  -0.466  52.331  1.00  0.00    -0.014 A 
HETATM   16  C16 UNL     1      18.270   0.039  51.151  1.00  0.00     0.012 A 
HETATM   17  C17 UNL     1      16.949  -0.301  50.849  1.00  0.00     0.020 A 
HETATM   18  C18 UNL     1      16.213  -1.120  51.711  1.00  0.00     0.116 A 
HETATM   19  N5  UNL     1      16.798  -1.578  52.842  1.00  0.00    -0.272 NA
HETATM   20  C19 UNL     1      18.061  -1.278  53.172  1.00  0.00     0.125 A 
ENDBRANCH   9  15
ENDBRANCH   7   9
ENDBRANCH   1   7
BRANCH   3  21
HETATM   21  N3  UNL     1      25.518   0.895  51.951  1.00  0.00    -0.317 N 
HETATM   22  C7  UNL     1      25.738  -0.010  53.024  1.00  0.00     0.256 C 
HETATM   23  O1  UNL     1      24.822  -0.089  53.906  1.00  0.00    -0.267 OA
HETATM   24  H8  UNL     1      26.218   1.002  51.214  1.00  0.00     0.169 HD
BRANCH  22  25
HETATM   25  C8  UNL     1      26.960  -0.815  53.112  1.00  0.00     0.035 A 
HETATM   26  C9  UNL     1      27.094  -2.101  52.699  1.00  0.00     0.036 A 
HETATM   27  C10 UNL     1      28.319  -2.717  52.854  1.00  0.00     0.117 A 
HETATM   28  N4  UNL     1      29.391  -2.121  53.392  1.00  0.00    -0.273 NA
HETATM   29  C11 UNL     1      29.297  -0.845  53.814  1.00  0.00     0.117 A 
HETATM   30  C12 UNL     1      28.080  -0.223  53.663  1.00  0.00     0.036 A 
ENDBRANCH  22  25
ENDBRANCH   3  21
TORSDOF 7
ENDMDL
MODEL 4
REMARK VINA RESULT:      -7.5      3.611      6.263
REMARK  7 active torsions:
REMARK  status: ('A' for Active; 'I' for Inactive)
REMARK    1  A    between atoms: N1_1  and  C1_2 
REMARK    2  A    between atoms: C2_3  and  C3_4 
REMARK    3  A    between atoms: C3_4  and  N2_5 
REMARK    4  A    between atoms: C3_4  and  C15_21 
REMARK    5  A    between atoms: N2_5  and  C4_6 
REMARK    6  A    between atoms: C6_8  and  N3_9 
REMARK       I    between atoms: N3_9  and  C7_10 
REMARK    7  A    between atoms: C7_10  and  C8_12 
ROOT
HETATM    1  C4  UNL     1      26.790   5.387  48.873  1.00  0.00     0.032 C 
HETATM    2  C5  UNL     1      27.959   5.012  48.402  1.00  0.00     0.066 C 
HETATM    3  C6  UNL     1      29.024   5.961  48.101  1.00  0.00     0.079 C 
HETATM    4  S1  UNL     1      28.761   7.554  48.356  1.00  0.00    -0.071 SA
HETATM    5  C13 UNL     1      27.336   7.899  49.064  1.00  0.00     0.026 C 
HETATM    6  C14 UNL     1      26.560   6.829  49.101  1.00  0.00     0.049 C 
ENDROOT
BRANCH   1   7
HETATM    7  N2  UNL     1      25.675   4.569  49.206  1.00  0.00    -0.378 N 
HETATM    8  H6  UNL     1      25.262   4.022  48.429  1.00  0.00     0.160 HD
BRANCH   7   9
HETATM    9  C3  UNL     1      25.214   4.566  50.566  1.00  0.00     0.141 C 
BRANCH   9  10
HETATM   10  C2  UNL     1      23.819   5.071  50.623  1.00  0.00     0.019 C 
HETATM   11  C1  UNL     1      23.484   6.164  51.298  1.00  0.00     0.078 C 
BRANCH  11  12
HETATM   12  N1  UNL     1      24.509   6.864  51.986  1.00  0.00    -0.408 N 
HETATM   13  H1  UNL     1      24.715   7.682  51.345  1.00  0.00     0.155 HD
HETATM   14  H2  UNL     1      24.659   6.299  52.855  1.00  0.00     0.155 HD
ENDBRANCH  11  12
ENDBRANCH   9  10
BRANCH   9  15
HETATM   15  C15 UNL     1      25.262   3.201  51.152  1.00  0.00    -0.014 A 
HETATM   16  C16 UNL     1      26.541   2.646  51.120  1.00  0.00     0.012 A 
HETATM   17  C17 UNL     1      26.701   1.362  51.646  1.00  0.00     0.020 A 
HETATM   18  C18 UNL     1      25.608   0.673  52.182  1.00  0.00     0.116 A 
HETATM   19  N5  UNL     1      24.393   1.268  52.183  1.00  0.00    -0.272 NA
HETATM   20  C19 UNL     1      24.192   2.497  51.690  1.00  0.00     0.125 A 
ENDBRANCH   9  15
ENDBRANCH   7   9
ENDBRANCH   1   7
BRANCH   3  21
HETATM   21  N3  UNL     1      30.267   5.489  47.593  1.00  0.00    -0.317 N 
HETATM   22  C7  UNL     1      31.346   5.291  48.496  1.00  0.00     0.256 C 
HETATM   23  O1  UNL     1      31.125   5.555  49.723  1.00  0.00    -0.267 OA
HETATM   24  H8  UNL     1      30.384   5.295  46.597  1.00  0.00     0.169 HD
BRANCH  22  25
HETATM   25  C8  UNL     1      32.652   4.807  48.038  1.00  0.00     0.035 A 
HETATM   26  C9  UNL     1      33.853   5.144  48.573  1.00  0.00     0.036 A 
HETATM   27  C10 UNL     1      34.994   4.597  48.020  1.00  0.00     0.117 A 
HETATM   28  N4  UNL     1      34.988   3.751  46.983  1.00  0.00    -0.273 NA
HETATM   29  C11 UNL     1      33.815   3.393  46.425  1.00  0.00     0.117 A 
HETATM   30  C12 UNL     1      32.674   3.934  46.969  1.00  0.00     0.036 A 
ENDBRANCH  22  25
ENDBRANCH   3  21
TORSDOF 7
ENDMDL
MODEL 5
REMARK VINA RESULT:      -7.3      2.484      4.248
REMARK  7 active torsions:
REMARK  status: ('A' for Active; 'I' for Inactive)
REMARK    1  A    between atoms: N1_1  and  C1_2 
REMARK    2  A    between atoms: C2_3  and  C3_4 
REMARK    3  A    between atoms: C3_4  and  N2_5 
REMARK    4  A    between atoms: C3_4  and  C15_21 
REMARK    5  A    between atoms: N2_5  and  C4_6 
REMARK    6  A    between atoms: C6_8  and  N3_9 
REMARK       I    between atoms: N3_9  and  C7_10 
REMARK    7  A    between atoms: C7_10  and  C8_12 
ROOT
HETATM    1  C4  UNL     1      25.204   4.387  49.541  1.00  0.00     0.032 C 
HETATM    2  C5  UNL     1      26.399   4.931  49.582  1.00  0.00     0.066 C 
HETATM    3  C6  UNL     1      26.709   6.193  48.922  1.00  0.00     0.079 C 
HETATM    4  S1  UNL     1      25.531   6.966  48.096  1.00  0.00    -0.071 SA
HETATM    5  C13 UNL     1      24.059   6.280  48.218  1.00  0.00     0.026 C 
HETATM    6  C14 UNL     1      24.142   5.092  48.793  1.00  0.00     0.049 C 
ENDROOT
BRANCH   1   7
HETATM    7  N2  UNL     1      24.772   3.170  50.138  1.00  0.00    -0.378 N 
HETATM    8  H6  UNL     1      24.572   2.389  49.488  1.00  0.00     0.160 HD
BRANCH   7   9
HETATM    9  C3  UNL     1      24.648   3.119  51.568  1.00  0.00     0.141 C 
BRANCH   9  10
HETATM   10  C2  UNL     1      23.251   3.435  51.960  1.00  0.00     0.019 C 
HETATM   11  C1  UNL     1      22.913   4.588  52.527  1.00  0.00     0.078 C 
BRANCH  11  12
HETATM   12  N1  UNL     1      23.936   5.542  52.760  1.00  0.00    -0.408 N 
HETATM   13  H1  UNL     1      23.775   5.827  53.767  1.00  0.00     0.155 HD
HETATM   14  H2  UNL     1      24.448   5.589  51.847  1.00  0.00     0.155 HD
ENDBRANCH  11  12
ENDBRANCH   9  10
BRANCH   9  15
HETATM   15  C15 UNL     1      25.010   1.779  52.097  1.00  0.00    -0.014 A 
HETATM   16  C16 UNL     1      26.269   1.354  51.671  1.00  0.00     0.012 A 
HETATM   17  C17 UNL     1      26.712   0.104  52.110  1.00  0.00     0.020 A 
HETATM   18  C18 UNL     1      25.909  -0.680  52.946  1.00  0.00     0.116 A 
HETATM   19  N5  UNL     1      24.697  -0.210  53.323  1.00  0.00    -0.272 NA
HETATM   20  C19 UNL     1      24.232   0.982  52.927  1.00  0.00     0.125 A 
ENDBRANCH   9  15
ENDBRANCH   7   9
ENDBRANCH   1   7
BRANCH   3  21
HETATM   21  N3  UNL     1      28.026   6.728  49.005  1.00  0.00    -0.317 N 
HETATM   22  C7  UNL     1      29.115   5.948  48.532  1.00  0.00     0.256 C 
HETATM   23  O1  UNL     1      28.835   4.800  48.055  1.00  0.00    -0.267 OA
HETATM   24  H8  UNL     1      28.188   7.657  49.399  1.00  0.00     0.169 HD
BRANCH  22  25
HETATM   25  C8  UNL     1      30.495   6.440  48.589  1.00  0.00     0.035 A 
HETATM   26  C9  UNL     1      30.868   7.731  48.782  1.00  0.00     0.036 A 
HETATM   27  C10 UNL     1      32.216   8.027  48.810  1.00  0.00     0.117 A 
HETATM   28  N4  UNL     1      33.183   7.115  48.657  1.00  0.00    -0.273 NA
HETATM   29  C11 UNL     1      32.852   5.823  48.464  1.00  0.00     0.117 A 
HETATM   30  C12 UNL     1      31.511   5.519  48.434  1.00  0.00     0.036 A 
ENDBRANCH  22  25
ENDBRANCH   3  21
TORSDOF 7
ENDMDL
MODEL 6
REMARK VINA RESULT:      -7.2      3.016      8.311
REMARK  7 active torsions:
REMARK  status: ('A' for Active; 'I' for Inactive)
REMARK    1  A    between atoms: N1_1  and  C1_2 
REMARK    2  A    between atoms: C2_3  and  C3_4 
REMARK    3  A    between atoms: C3_4  and  N2_5 
REMARK    4  A    between atoms: C3_4  and  C15_21 
REMARK    5  A    between atoms: N2_5  and  C4_6 
REMARK    6  A    between atoms: C6_8  and  N3_9 
REMARK       I    between atoms: N3_9  and  C7_10 
REMARK    7  A    between atoms: C7_10  and  C8_12 
ROOT
HETATM    1  C4  UNL     1      24.415   2.517  52.478  1.00  0.00     0.032 C 
HETATM    2  C5  UNL     1      23.281   1.886  52.270  1.00  0.00     0.066 C 
HETATM    3  C6  UNL     1      23.041   0.528  52.741  1.00  0.00     0.079 C 
HETATM    4  S1  UNL     1      24.223  -0.247  53.560  1.00  0.00    -0.071 SA
HETATM    5  C13 UNL     1      25.533   0.665  53.881  1.00  0.00     0.026 C 
HETATM    6  C14 UNL     1      25.480   1.809  53.220  1.00  0.00     0.049 C 
ENDROOT
BRANCH   1   7
HETATM    7  N2  UNL     1      24.776   3.832  52.075  1.00  0.00    -0.378 N 
HETATM    8  H6  UNL     1      25.347   4.375  52.747  1.00  0.00     0.160 HD
BRANCH   7   9
HETATM    9  C3  UNL     1      24.327   4.300  50.793  1.00  0.00     0.141 C 
BRANCH   9  10
HETATM   10  C2  UNL     1      23.212   5.264  50.974  1.00  0.00     0.019 C 
HETATM   11  C1  UNL     1      22.019   5.088  50.417  1.00  0.00     0.078 C 
BRANCH  11  12
HETATM   12  N1  UNL     1      21.819   3.931  49.621  1.00  0.00    -0.408 N 
HETATM   13  H1  UNL     1      21.686   4.328  48.647  1.00  0.00     0.155 HD
HETATM   14  H2  UNL     1      21.881   3.141  50.306  1.00  0.00     0.155 HD
ENDBRANCH  11  12
ENDBRANCH   9  10
BRANCH   9  15
HETATM   15  C15 UNL     1      25.425   4.960  50.041  1.00  0.00    -0.014 A 
HETATM   16  C16 UNL     1      26.334   4.049  49.505  1.00  0.00     0.012 A 
HETATM   17  C17 UNL     1      27.410   4.562  48.776  1.00  0.00     0.020 A 
HETATM   18  C18 UNL     1      27.554   5.943  48.601  1.00  0.00     0.116 A 
HETATM   19  N5  UNL     1      26.636   6.774  49.148  1.00  0.00    -0.272 NA
HETATM   20  C19 UNL     1      25.589   6.327  49.854  1.00  0.00     0.125 A 
ENDBRANCH   9  15
ENDBRANCH   7   9
ENDBRANCH   1   7
BRANCH   3  21
HETATM   21  N3  UNL     1      21.789  -0.097  52.481  1.00  0.00    -0.317 N 
HETATM   22  C7  UNL     1      20.788  -0.074  53.490  1.00  0.00     0.256 C 
HETATM   23  O1  UNL     1      21.085   0.515  54.580  1.00  0.00    -0.267 OA
HETATM   24  H8  UNL     1      21.609  -0.556  51.585  1.00  0.00     0.169 HD
BRANCH  22  25
HETATM   25  C8  UNL     1      19.478  -0.700  53.287  1.00  0.00     0.035 A 
HETATM   26  C9  UNL     1      19.082  -1.894  53.797  1.00  0.00     0.036 A 
HETATM   27  C10 UNL     1      17.809  -2.341  53.509  1.00  0.00     0.117 A 
HETATM   28  N4  UNL     1      16.935  -1.668  52.750  1.00  0.00    -0.273 NA
HETATM   29  C11 UNL     1      17.292  -0.479  52.225  1.00  0.00     0.117 A 
HETATM   30  C12 UNL     1      18.559  -0.025  52.508  1.00  0.00     0.036 A 
ENDBRANCH  22  25
ENDBRANCH   3  21
TORSDOF 7
ENDMDL
MODEL 7
REMARK VINA RESULT:      -7.2      1.595      3.488
REMARK  7 active torsions:
REMARK  status: ('A' for Active; 'I' for Inactive)
REMARK    1  A    between atoms: N1_1  and  C1_2 
REMARK    2  A    between atoms: C2_3  and  C3_4 
REMARK    3  A    between atoms: C3_4  and  N2_5 
REMARK    4  A    between atoms: C3_4  and  C15_21 
REMARK    5  A    between atoms: N2_5  and  C4_6 
REMARK    6  A    between atoms: C6_8  and  N3_9 
REMARK       I    between atoms: N3_9  and  C7_10 
REMARK    7  A    between atoms: C7_10  and  C8_12 
ROOT
HETATM    1  C4  UNL     1      24.030   2.711  51.518  1.00  0.00     0.032 C 
HETATM    2  C5  UNL     1      24.860   3.623  51.064  1.00  0.00     0.066 C 
HETATM    3  C6  UNL     1      24.729   4.212  49.737  1.00  0.00     0.079 C 
HETATM    4  S1  UNL     1      23.505   3.725  48.771  1.00  0.00    -0.071 SA
HETATM    5  C13 UNL     1      22.458   2.695  49.474  1.00  0.00     0.026 C 
HETATM    6  C14 UNL     1      22.924   2.275  50.639  1.00  0.00     0.049 C 
ENDROOT
BRANCH   1   7
HETATM    7  N2  UNL     1      24.045   2.061  52.783  1.00  0.00    -0.378 N 
HETATM    8  H6  UNL     1      23.906   2.669  53.610  1.00  0.00     0.160 HD
BRANCH   7   9
HETATM    9  C3  UNL     1      24.251   0.640  52.817  1.00  0.00     0.141 C 
BRANCH   9  10
HETATM   10  C2  UNL     1      25.411   0.323  53.688  1.00  0.00     0.019 C 
HETATM   11  C1  UNL     1      26.597  -0.019  53.200  1.00  0.00     0.078 C 
BRANCH  11  12
HETATM   12  N1  UNL     1      26.746  -0.079  51.790  1.00  0.00    -0.408 N 
HETATM   13  H1  UNL     1      26.047   0.638  51.444  1.00  0.00     0.155 HD
HETATM   14  H2  UNL     1      27.485  -0.806  51.647  1.00  0.00     0.155 HD
ENDBRANCH  11  12
ENDBRANCH   9  10
BRANCH   9  15
HETATM   15  C15 UNL     1      23.050  -0.070  53.327  1.00  0.00    -0.014 A 
HETATM   16  C16 UNL     1      23.316  -0.830  54.465  1.00  0.00     0.012 A 
HETATM   17  C17 UNL     1      22.255  -1.541  55.030  1.00  0.00     0.020 A 
HETATM   18  C18 UNL     1      20.978  -1.481  54.462  1.00  0.00     0.116 A 
HETATM   19  N5  UNL     1      20.786  -0.725  53.356  1.00  0.00    -0.272 NA
HETATM   20  C19 UNL     1      21.773  -0.026  52.780  1.00  0.00     0.125 A 
ENDBRANCH   9  15
ENDBRANCH   7   9
ENDBRANCH   1   7
BRANCH   3  21
HETATM   21  N3  UNL     1      25.663   5.196  49.306  1.00  0.00    -0.317 N 
HETATM   22  C7  UNL     1      26.961   4.779  48.905  1.00  0.00     0.256 C 
HETATM   23  O1  UNL     1      27.206   3.530  48.958  1.00  0.00    -0.267 OA
HETATM   24  H8  UNL     1      25.408   6.185  49.286  1.00  0.00     0.169 HD
BRANCH  22  25
HETATM   25  C8  UNL     1      27.970   5.741  48.451  1.00  0.00     0.035 A 
HETATM   26  C9  UNL     1      29.280   5.467  48.221  1.00  0.00     0.036 A 
HETATM   27  C10 UNL     1      30.100   6.492  47.795  1.00  0.00     0.117 A 
HETATM   28  N4  UNL     1      29.682   7.748  47.596  1.00  0.00    -0.273 NA
HETATM   29  C11 UNL     1      28.390   8.059  47.814  1.00  0.00     0.117 A 
HETATM   30  C12 UNL     1      27.565   7.044  48.238  1.00  0.00     0.036 A 
ENDBRANCH  22  25
ENDBRANCH   3  21
TORSDOF 7
ENDMDL
MODEL 8
REMARK VINA RESULT:      -7.1      1.985      2.218
REMARK  7 active torsions:
REMARK  status: ('A' for Active; 'I' for Inactive)
REMARK    1  A    between atoms: N1_1  and  C1_2 
REMARK    2  A    between atoms: C2_3  and  C3_4 
REMARK    3  A    between atoms: C3_4  and  N2_5 
REMARK    4  A    between atoms: C3_4  and  C15_21 
REMARK    5  A    between atoms: N2_5  and  C4_6 
REMARK    6  A    between atoms: C6_8  and  N3_9 
REMARK       I    between atoms: N3_9  and  C7_10 
REMARK    7  A    between atoms: C7_10  and  C8_12 
ROOT
HETATM    1  C4  UNL     1      23.186   2.336  50.318  1.00  0.00     0.032 C 
HETATM    2  C5  UNL     1      24.171   3.171  50.071  1.00  0.00     0.066 C 
HETATM    3  C6  UNL     1      24.040   4.285  49.140  1.00  0.00     0.079 C 
HETATM    4  S1  UNL     1      22.617   4.511  48.370  1.00  0.00    -0.071 SA
HETATM    5  C13 UNL     1      21.425   3.507  48.844  1.00  0.00     0.026 C 
HETATM    6  C14 UNL     1      21.901   2.546  49.617  1.00  0.00     0.049 C 
ENDROOT
BRANCH   1   7
HETATM    7  N2  UNL     1      23.182   1.217  51.197  1.00  0.00    -0.378 N 
HETATM    8  H6  UNL     1      23.200   0.284  50.747  1.00  0.00     0.160 HD
BRANCH   7   9
HETATM    9  C3  UNL     1      23.153   1.462  52.612  1.00  0.00     0.141 C 
BRANCH   9  10
HETATM   10  C2  UNL     1      22.199   0.527  53.261  1.00  0.00     0.019 C 
HETATM   11  C1  UNL     1      20.909   0.808  53.403  1.00  0.00     0.078 C 
BRANCH  11  12
HETATM   12  N1  UNL     1      20.440   2.053  52.910  1.00  0.00    -0.408 N 
HETATM   13  H1  UNL     1      20.544   2.697  53.745  1.00  0.00     0.155 HD
HETATM   14  H2  UNL     1      20.176   1.846  51.918  1.00  0.00     0.155 HD
ENDBRANCH  11  12
ENDBRANCH   9  10
BRANCH   9  15
HETATM   15  C15 UNL     1      24.497   1.289  53.221  1.00  0.00    -0.014 A 
HETATM   16  C16 UNL     1      24.811  -0.048  53.460  1.00  0.00     0.012 A 
HETATM   17  C17 UNL     1      26.054  -0.327  54.032  1.00  0.00     0.020 A 
HETATM   18  C18 UNL     1      26.940   0.710  54.347  1.00  0.00     0.116 A 
HETATM   19  N5  UNL     1      26.574   1.987  54.089  1.00  0.00    -0.272 NA
HETATM   20  C19 UNL     1      25.392   2.301  53.542  1.00  0.00     0.125 A 
ENDBRANCH   9  15
ENDBRANCH   7   9
ENDBRANCH   1   7
BRANCH   3  21
HETATM   21  N3  UNL     1      25.146   5.152  48.919  1.00  0.00    -0.317 N 
HETATM   22  C7  UNL     1      25.273   6.321  49.718  1.00  0.00     0.256 C 
HETATM   23  O1  UNL     1      24.370   6.517  50.595  1.00  0.00    -0.267 OA
HETATM   24  H8  UNL     1      25.840   4.941  48.198  1.00  0.00     0.169 HD
BRANCH  22  25
HETATM   25  C8  UNL     1      26.388   7.255  49.540  1.00  0.00     0.035 A 
HETATM   26  C9  UNL     1      26.518   8.459  50.154  1.00  0.00     0.036 A 
HETATM   27  C10 UNL     1      27.635   9.221  49.875  1.00  0.00     0.117 A 
HETATM   28  N4  UNL     1      28.603   8.844  49.031  1.00  0.00    -0.273 NA
HETATM   29  C11 UNL     1      28.509   7.656  48.402  1.00  0.00     0.117 A 
HETATM   30  C12 UNL     1      27.400   6.890  48.674  1.00  0.00     0.036 A 
ENDBRANCH  22  25
ENDBRANCH   3  21
TORSDOF 7
ENDMDL
MODEL 9
REMARK VINA RESULT:      -7.0      2.535      6.852
REMARK  7 active torsions:
REMARK  status: ('A' for Active; 'I' for Inactive)
REMARK    1  A    between atoms: N1_1  and  C1_2 
REMARK    2  A    between atoms: C2_3  and  C3_4 
REMARK    3  A    between atoms: C3_4  and  N2_5 
REMARK    4  A    between atoms: C3_4  and  C15_21 
REMARK    5  A    between atoms: N2_5  and  C4_6 
REMARK    6  A    between atoms: C6_8  and  N3_9 
REMARK       I    between atoms: N3_9  and  C7_10 
REMARK    7  A    between atoms: C7_10  and  C8_12 
ROOT
HETATM    1  C4  UNL     1      22.660   4.241  52.290  1.00  0.00     0.032 C 
HETATM    2  C5  UNL     1      23.745   3.653  52.743  1.00  0.00     0.066 C 
HETATM    3  C6  UNL     1      23.841   2.209  52.913  1.00  0.00     0.079 C 
HETATM    4  S1  UNL     1      22.555   1.278  52.528  1.00  0.00    -0.071 SA
HETATM    5  C13 UNL     1      21.314   2.086  51.852  1.00  0.00     0.026 C 
HETATM    6  C14 UNL     1      21.500   3.392  51.943  1.00  0.00     0.049 C 
ENDROOT
BRANCH   1   7
HETATM    7  N2  UNL     1      22.437   5.630  52.078  1.00  0.00    -0.378 N 
HETATM    8  H6  UNL     1      22.333   6.210  52.929  1.00  0.00     0.160 HD
BRANCH   7   9
HETATM    9  C3  UNL     1      22.372   6.111  50.726  1.00  0.00     0.141 C 
BRANCH   9  10
HETATM   10  C2  UNL     1      21.673   7.421  50.695  1.00  0.00     0.019 C 
HETATM   11  C1  UNL     1      20.558   7.618  50.002  1.00  0.00     0.078 C 
BRANCH  11  12
HETATM   12  N1  UNL     1      20.026   6.525  49.269  1.00  0.00    -0.408 N 
HETATM   13  H1  UNL     1      20.422   5.681  49.775  1.00  0.00     0.155 HD
HETATM   14  H2  UNL     1      19.454   6.980  48.520  1.00  0.00     0.155 HD
ENDBRANCH  11  12
ENDBRANCH   9  10
BRANCH   9  15
HETATM   15  C15 UNL     1      23.729   6.268  50.140  1.00  0.00    -0.014 A 
HETATM   16  C16 UNL     1      24.480   7.253  50.780  1.00  0.00     0.012 A 
HETATM   17  C17 UNL     1      25.775   7.486  50.309  1.00  0.00     0.020 A 
HETATM   18  C18 UNL     1      26.282   6.747  49.234  1.00  0.00     0.116 A 
HETATM   19  N5  UNL     1      25.501   5.805  48.657  1.00  0.00    -0.272 NA
HETATM   20  C19 UNL     1      24.254   5.548  49.075  1.00  0.00     0.125 A 
ENDBRANCH   9  15
ENDBRANCH   7   9
ENDBRANCH   1   7
BRANCH   3  21
HETATM   21  N3  UNL     1      25.046   1.636  53.409  1.00  0.00    -0.317 N 
HETATM   22  C7  UNL     1      26.089   1.332  52.494  1.00  0.00     0.256 C 
HETATM   23  O1  UNL     1      25.872   1.598  51.267  1.00  0.00    -0.267 OA
HETATM   24  H8  UNL     1      25.162   1.445  54.407  1.00  0.00     0.169 HD
BRANCH  22  25
HETATM   25  C8  UNL     1      27.355   0.741  52.939  1.00  0.00     0.035 A 
HETATM   26  C9  UNL     1      28.421   1.426  53.427  1.00  0.00     0.036 A 
HETATM   27  C10 UNL     1      29.542   0.714  53.804  1.00  0.00     0.117 A 
HETATM   28  N4  UNL     1      29.644  -0.618  53.715  1.00  0.00    -0.273 NA
HETATM   29  C11 UNL     1      28.607  -1.332  53.236  1.00  0.00     0.117 A 
HETATM   30  C12 UNL     1      27.486  -0.631  52.858  1.00  0.00     0.036 A 
ENDBRANCH  22  25
ENDBRANCH   3  21
TORSDOF 7
ENDMDL
