MODEL 1
REMARK VINA RESULT:      -9.2      0.000      0.000
REMARK  7 active torsions:
REMARK  status: ('A' for Active; 'I' for Inactive)
REMARK    1  A    between atoms: C4_6  and  C5_7 
REMARK       I    between atoms: N3_9  and  C7_10 
REMARK    2  A    between atoms: C7_10  and  C8_12 
REMARK    3  A    between atoms: C9_13  and  C10_14 
REMARK    4  A    between atoms: C10_14  and  N4_15 
REMARK    5  A    between atoms: C15_21  and  O3_22 
REMARK    6  A    between atoms: C17_24  and  N5_25 
REMARK    7  A    between atoms: N5_25  and  C18_26 
ROOT
HETATM    1  N1  UNL     1      27.282   9.405  47.738  1.00  0.00    -0.191 NA
HETATM    2  C1  UNL     1      27.056   8.338  48.141  1.00  0.00     0.103 C 
HETATM    3  C2  UNL     1      26.787   7.008  48.622  1.00  0.00     0.088 A 
HETATM    4  C3  UNL     1      25.585   6.858  49.294  1.00  0.00     0.142 A 
HETATM    5  N2  UNL     1      25.273   5.629  49.769  1.00  0.00    -0.263 NA
HETATM    6  C4  UNL     1      26.115   4.574  49.591  1.00  0.00     0.046 A 
HETATM    7  C16 UNL     1      27.302   4.704  48.931  1.00  0.00     0.059 A 
HETATM    8  C17 UNL     1      27.667   5.955  48.423  1.00  0.00     0.057 A 
ENDROOT
BRANCH   8   9
HETATM    9  N5  UNL     1      28.886   6.165  47.724  1.00  0.00    -0.355 N 
HETATM   10  H20 UNL     1      28.585   6.416  46.747  1.00  0.00     0.166 HD
BRANCH   9  11
HETATM   11  C18 UNL     1      30.263   6.096  48.082  1.00  0.00     0.034 A 
HETATM   12  C19 UNL     1      30.798   7.134  48.807  1.00  0.00     0.032 A 
HETATM   13  C20 UNL     1      32.117   7.047  49.136  1.00  0.00     0.046 A 
HETATM   14  C21 UNL     1      32.858   5.955  48.745  1.00  0.00     0.138 A 
HETATM   15  F1  UNL     1      34.188   5.864  49.073  1.00  0.00    -0.204 F 
HETATM   16  C22 UNL     1      32.333   4.903  48.016  1.00  0.00     0.074 A 
HETATM   17 CL1  UNL     1      33.300   3.528  47.535  1.00  0.00    -0.081 Cl
HETATM   18  C23 UNL     1      30.994   5.001  47.688  1.00  0.00     0.056 A 
ENDBRANCH   9  11
ENDBRANCH   8   9
BRANCH   6  19
HETATM   19  C5  UNL     1      25.675   3.276  50.150  1.00  0.00     0.105 C 
HETATM   20  C6  UNL     1      24.203   3.025  50.141  1.00  0.00     0.144 C 
HETATM   21  N3  UNL     1      24.381   2.340  51.409  1.00  0.00    -0.320 N 
HETATM   22  C7  UNL     1      23.642   1.231  51.903  1.00  0.00     0.245 C 
HETATM   23  C15 UNL     1      25.454   3.283  51.669  1.00  0.00     0.234 C 
HETATM   24  O1  UNL     1      22.781   0.910  51.047  1.00  0.00    -0.268 OA
BRANCH  22  25
HETATM   25  C8  UNL     1      23.884   0.614  53.186  1.00  0.00     0.072 C 
HETATM   26  C9  UNL     1      24.887  -0.206  53.414  1.00  0.00     0.008 C 
BRANCH  26  27
HETATM   27  C10 UNL     1      25.990  -0.756  52.632  1.00  0.00     0.300 C 
BRANCH  27  28
HETATM   28  N4  UNL     1      27.309  -0.393  53.113  1.00  0.00     0.096 N 
HETATM   29  C11 UNL     1      28.248  -1.497  52.945  1.00  0.00     0.299 C 
HETATM   30  C12 UNL     1      29.564  -1.146  53.602  1.00  0.00     0.198 C 
HETATM   31  O2  UNL     1      29.596   0.219  53.892  1.00  0.00    -0.388 OA
HETATM   32  C13 UNL     1      28.632   0.577  54.842  1.00  0.00     0.198 C 
HETATM   33  C14 UNL     1      27.282  -0.009  54.513  1.00  0.00     0.299 C 
ENDBRANCH  27  28
ENDBRANCH  26  27
ENDBRANCH  22  25
BRANCH  23  34
HETATM   34  O3  UNL     1      26.526   2.769  52.383  1.00  0.00    -0.376 OA
HETATM   35  H18 UNL     1      26.427   3.046  53.334  1.00  0.00     0.212 HD
ENDBRANCH  23  34
ENDBRANCH   6  19
TORSDOF 7
ENDMDL
MODEL 2
REMARK VINA RESULT:      -9.1      4.693      8.808
REMARK  7 active torsions:
REMARK  status: ('A' for Active; 'I' for Inactive)
REMARK    1  A    between atoms: C4_6  and  C5_7 
REMARK       I    between atoms: N3_9  and  C7_10 
REMARK    2  A    between atoms: C7_10  and  C8_12 
REMARK    3  A    between atoms: C9_13  and  C10_14 
REMARK    4  A    between atoms: C10_14  and  N4_15 
REMARK    5  A    between atoms: C15_21  and  O3_22 
REMARK    6  A    between atoms: C17_24  and  N5_25 
REMARK    7  A    between atoms: N5_25  and  C18_26 
ROOT
HETATM    1  N1  UNL     1      21.793  -1.937  55.066  1.00  0.00    -0.191 NA
HETATM    2  C1  UNL     1      22.088  -1.015  54.423  1.00  0.00     0.103 C 
HETATM    3  C2  UNL     1      22.475   0.129  53.638  1.00  0.00     0.088 A 
HETATM    4  C3  UNL     1      21.427   0.922  53.200  1.00  0.00     0.142 A 
HETATM    5  N2  UNL     1      21.725   2.015  52.460  1.00  0.00    -0.263 NA
HETATM    6  C4  UNL     1      23.016   2.325  52.155  1.00  0.00     0.046 A 
HETATM    7  C16 UNL     1      24.059   1.555  52.578  1.00  0.00     0.059 A 
HETATM    8  C17 UNL     1      23.799   0.415  53.346  1.00  0.00     0.057 A 
ENDROOT
BRANCH   8   9
HETATM    9  N5  UNL     1      24.836  -0.432  53.823  1.00  0.00    -0.355 N 
HETATM   10  H20 UNL     1      24.335  -1.156  54.400  1.00  0.00     0.166 HD
BRANCH   9  11
HETATM   11  C18 UNL     1      26.252  -0.455  53.669  1.00  0.00     0.034 A 
HETATM   12  C19 UNL     1      26.817  -1.523  53.016  1.00  0.00     0.032 A 
HETATM   13  C20 UNL     1      28.173  -1.524  52.884  1.00  0.00     0.046 A 
HETATM   14  C21 UNL     1      28.919  -0.486  53.392  1.00  0.00     0.138 A 
HETATM   15  F1  UNL     1      30.286  -0.483  53.261  1.00  0.00    -0.204 F 
HETATM   16  C22 UNL     1      28.364   0.596  54.051  1.00  0.00     0.074 A 
HETATM   17 CL1  UNL     1      29.339   1.902  54.685  1.00  0.00    -0.081 Cl
HETATM   18  C23 UNL     1      26.989   0.587  54.180  1.00  0.00     0.056 A 
ENDBRANCH   9  11
ENDBRANCH   8   9
BRANCH   6  19
HETATM   19  C5  UNL     1      23.228   3.542  51.340  1.00  0.00     0.105 C 
HETATM   20  C6  UNL     1      24.650   3.949  51.128  1.00  0.00     0.144 C 
HETATM   21  N3  UNL     1      24.196   5.325  51.202  1.00  0.00    -0.320 N 
HETATM   22  C7  UNL     1      24.730   6.449  50.516  1.00  0.00     0.245 C 
HETATM   23  C15 UNL     1      23.191   4.853  52.138  1.00  0.00     0.234 C 
HETATM   24  O1  UNL     1      25.688   6.064  49.800  1.00  0.00    -0.268 OA
BRANCH  22  25
HETATM   25  C8  UNL     1      24.218   7.792  50.656  1.00  0.00     0.072 C 
HETATM   26  C9  UNL     1      23.256   8.279  49.903  1.00  0.00     0.008 C 
BRANCH  26  27
HETATM   27  C10 UNL     1      22.433   7.783  48.803  1.00  0.00     0.300 C 
BRANCH  27  28
HETATM   28  N4  UNL     1      21.554   6.686  49.155  1.00  0.00     0.096 N 
HETATM   29  C11 UNL     1      21.856   5.500  48.361  1.00  0.00     0.299 C 
HETATM   30  C12 UNL     1      20.820   4.432  48.634  1.00  0.00     0.198 C 
HETATM   31  O2  UNL     1      20.083   4.770  49.771  1.00  0.00    -0.388 OA
HETATM   32  C13 UNL     1      19.331   5.936  49.581  1.00  0.00     0.198 C 
HETATM   33  C14 UNL     1      20.157   7.035  48.963  1.00  0.00     0.299 C 
ENDBRANCH  27  28
ENDBRANCH  26  27
ENDBRANCH  22  25
BRANCH  23  34
HETATM   34  O3  UNL     1      21.970   5.506  52.066  1.00  0.00    -0.376 OA
HETATM   35  H18 UNL     1      22.048   6.366  52.560  1.00  0.00     0.212 HD
ENDBRANCH  23  34
ENDBRANCH   6  19
TORSDOF 7
ENDMDL
MODEL 3
REMARK VINA RESULT:      -9.1      3.878      8.769
REMARK  7 active torsions:
REMARK  status: ('A' for Active; 'I' for Inactive)
REMARK    1  A    between atoms: C4_6  and  C5_7 
REMARK       I    between atoms: N3_9  and  C7_10 
REMARK    2  A    between atoms: C7_10  and  C8_12 
REMARK    3  A    between atoms: C9_13  and  C10_14 
REMARK    4  A    between atoms: C10_14  and  N4_15 
REMARK    5  A    between atoms: C15_21  and  O3_22 
REMARK    6  A    between atoms: C17_24  and  N5_25 
REMARK    7  A    between atoms: N5_25  and  C18_26 
ROOT
HETATM    1  N1  UNL     1      22.086  -1.674  55.232  1.00  0.00    -0.191 NA
HETATM    2  C1  UNL     1      22.405  -0.949  54.382  1.00  0.00     0.103 C 
HETATM    3  C2  UNL     1      22.821  -0.046  53.340  1.00  0.00     0.088 A 
HETATM    4  C3  UNL     1      21.789   0.590  52.668  1.00  0.00     0.142 A 
HETATM    5  N2  UNL     1      22.115   1.454  51.678  1.00  0.00    -0.263 NA
HETATM    6  C4  UNL     1      23.417   1.691  51.353  1.00  0.00     0.046 A 
HETATM    7  C16 UNL     1      24.444   1.073  52.005  1.00  0.00     0.059 A 
HETATM    8  C17 UNL     1      24.155   0.171  53.035  1.00  0.00     0.057 A 
ENDROOT
BRANCH   8   9
HETATM    9  N5  UNL     1      25.174  -0.506  53.758  1.00  0.00    -0.355 N 
HETATM   10  H20 UNL     1      24.649  -1.085  54.464  1.00  0.00     0.166 HD
BRANCH   9  11
HETATM   11  C18 UNL     1      26.597  -0.523  53.693  1.00  0.00     0.034 A 
HETATM   12  C19 UNL     1      27.208  -1.622  53.140  1.00  0.00     0.032 A 
HETATM   13  C20 UNL     1      28.569  -1.617  53.091  1.00  0.00     0.046 A 
HETATM   14  C21 UNL     1      29.276  -0.544  53.583  1.00  0.00     0.138 A 
HETATM   15  F1  UNL     1      30.648  -0.535  53.536  1.00  0.00    -0.204 F 
HETATM   16  C22 UNL     1      28.674   0.570  54.142  1.00  0.00     0.074 A 
HETATM   17 CL1  UNL     1      29.599   1.920  54.757  1.00  0.00    -0.081 Cl
HETATM   18  C23 UNL     1      27.293   0.554  54.186  1.00  0.00     0.056 A 
ENDBRANCH   9  11
ENDBRANCH   8   9
BRANCH   6  19
HETATM   19  C5  UNL     1      23.659   2.654  50.257  1.00  0.00     0.105 C 
HETATM   20  C6  UNL     1      24.948   3.407  50.319  1.00  0.00     0.144 C 
HETATM   21  N3  UNL     1      24.230   4.546  49.775  1.00  0.00    -0.320 N 
HETATM   22  C7  UNL     1      24.737   5.557  48.916  1.00  0.00     0.245 C 
HETATM   23  C15 UNL     1      23.072   4.051  50.498  1.00  0.00     0.234 C 
HETATM   24  O1  UNL     1      25.946   5.311  48.677  1.00  0.00    -0.268 OA
BRANCH  22  25
HETATM   25  C8  UNL     1      23.949   6.663  48.426  1.00  0.00     0.072 C 
HETATM   26  C9  UNL     1      23.907   7.837  49.018  1.00  0.00     0.008 C 
BRANCH  26  27
HETATM   27  C10 UNL     1      24.515   8.436  50.203  1.00  0.00     0.300 C 
BRANCH  27  28
HETATM   28  N4  UNL     1      25.664   9.277  49.930  1.00  0.00     0.096 N 
HETATM   29  C11 UNL     1      25.520   9.957  48.647  1.00  0.00     0.299 C 
HETATM   30  C12 UNL     1      26.801  10.693  48.320  1.00  0.00     0.198 C 
HETATM   31  O2  UNL     1      27.607  10.765  49.456  1.00  0.00    -0.388 OA
HETATM   32  C13 UNL     1      28.037   9.500  49.876  1.00  0.00     0.198 C 
HETATM   33  C14 UNL     1      26.899   8.513  49.920  1.00  0.00     0.299 C 
ENDBRANCH  27  28
ENDBRANCH  26  27
ENDBRANCH  22  25
BRANCH  23  34
HETATM   34  O3  UNL     1      21.854   4.253  49.865  1.00  0.00    -0.376 OA
HETATM   35  H18 UNL     1      21.534   5.167  50.092  1.00  0.00     0.212 HD
ENDBRANCH  23  34
ENDBRANCH   6  19
TORSDOF 7
ENDMDL
MODEL 4
REMARK VINA RESULT:      -9.0      3.353      8.658
REMARK  7 active torsions:
REMARK  status: ('A' for Active; 'I' for Inactive)
REMARK    1  A    between atoms: C4_6  and  C5_7 
REMARK       I    between atoms: N3_9  and  C7_10 
REMARK    2  A    between atoms: C7_10  and  C8_12 
REMARK    3  A    between atoms: C9_13  and  C10_14 
REMARK    4  A    between atoms: C10_14  and  N4_15 
REMARK    5  A    between atoms: C15_21  and  O3_22 
REMARK    6  A    between atoms: C17_24  and  N5_25 
REMARK    7  A    between atoms: N5_25  and  C18_26 
ROOT
HETATM    1  N1  UNL     1      21.528  -2.051  54.944  1.00  0.00    -0.191 NA
HETATM    2  C1  UNL     1      21.839  -1.090  54.369  1.00  0.00     0.103 C 
HETATM    3  C2  UNL     1      22.245   0.101  53.669  1.00  0.00     0.088 A 
HETATM    4  C3  UNL     1      21.206   0.895  53.211  1.00  0.00     0.142 A 
HETATM    5  N2  UNL     1      21.522   2.032  52.546  1.00  0.00    -0.263 NA
HETATM    6  C4  UNL     1      22.822   2.383  52.336  1.00  0.00     0.046 A 
HETATM    7  C16 UNL     1      23.855   1.613  52.780  1.00  0.00     0.059 A 
HETATM    8  C17 UNL     1      23.577   0.428  53.471  1.00  0.00     0.057 A 
ENDROOT
BRANCH   8   9
HETATM    9  N5  UNL     1      24.603  -0.421  53.965  1.00  0.00    -0.355 N 
HETATM   10  H20 UNL     1      24.110  -1.054  54.648  1.00  0.00     0.166 HD
BRANCH   9  11
HETATM   11  C18 UNL     1      26.002  -0.539  53.720  1.00  0.00     0.034 A 
HETATM   12  C19 UNL     1      26.439  -1.583  52.941  1.00  0.00     0.032 A 
HETATM   13  C20 UNL     1      27.781  -1.676  52.724  1.00  0.00     0.046 A 
HETATM   14  C21 UNL     1      28.637  -0.750  53.272  1.00  0.00     0.138 A 
HETATM   15  F1  UNL     1      29.990  -0.841  53.056  1.00  0.00    -0.204 F 
HETATM   16  C22 UNL     1      28.212   0.307  54.058  1.00  0.00     0.074 A 
HETATM   17 CL1  UNL     1      29.325   1.469  54.741  1.00  0.00    -0.081 Cl
HETATM   18  C23 UNL     1      26.849   0.391  54.272  1.00  0.00     0.056 A 
ENDBRANCH   9  11
ENDBRANCH   8   9
BRANCH   6  19
HETATM   19  C5  UNL     1      23.053   3.645  51.599  1.00  0.00     0.105 C 
HETATM   20  C6  UNL     1      23.979   3.561  50.429  1.00  0.00     0.144 C 
HETATM   21  N3  UNL     1      24.444   4.888  50.788  1.00  0.00    -0.320 N 
HETATM   22  C7  UNL     1      24.902   5.909  49.913  1.00  0.00     0.245 C 
HETATM   23  C15 UNL     1      24.185   4.512  52.167  1.00  0.00     0.234 C 
HETATM   24  O1  UNL     1      24.838   5.484  48.733  1.00  0.00    -0.268 OA
BRANCH  22  25
HETATM   25  C8  UNL     1      25.356   7.205  50.360  1.00  0.00     0.072 C 
HETATM   26  C9  UNL     1      26.337   7.864  49.784  1.00  0.00     0.008 C 
BRANCH  26  27
HETATM   27  C10 UNL     1      27.236   7.633  48.656  1.00  0.00     0.300 C 
BRANCH  27  28
HETATM   28  N4  UNL     1      28.630   7.926  48.927  1.00  0.00     0.096 N 
HETATM   29  C11 UNL     1      28.804   9.321  49.314  1.00  0.00     0.299 C 
HETATM   30  C12 UNL     1      30.279   9.633  49.428  1.00  0.00     0.198 C 
HETATM   31  O2  UNL     1      31.013   8.446  49.439  1.00  0.00    -0.388 OA
HETATM   32  C13 UNL     1      30.902   7.749  48.230  1.00  0.00     0.198 C 
HETATM   33  C14 UNL     1      29.469   7.651  47.774  1.00  0.00     0.299 C 
ENDBRANCH  27  28
ENDBRANCH  26  27
ENDBRANCH  22  25
BRANCH  23  34
HETATM   34  O3  UNL     1      23.735   5.540  52.982  1.00  0.00    -0.376 OA
HETATM   35  H18 UNL     1      24.500   6.152  53.160  1.00  0.00     0.212 HD
ENDBRANCH  23  34
ENDBRANCH   6  19
TORSDOF 7
ENDMDL
MODEL 5
REMARK VINA RESULT:      -8.9      5.507      8.613
REMARK  7 active torsions:
REMARK  status: ('A' for Active; 'I' for Inactive)
REMARK    1  A    between atoms: C4_6  and  C5_7 
REMARK       I    between atoms: N3_9  and  C7_10 
REMARK    2  A    between atoms: C7_10  and  C8_12 
REMARK    3  A    between atoms: C9_13  and  C10_14 
REMARK    4  A    between atoms: C10_14  and  N4_15 
REMARK    5  A    between atoms: C15_21  and  O3_22 
REMARK    6  A    between atoms: C17_24  and  N5_25 
REMARK    7  A    between atoms: N5_25  and  C18_26 
ROOT
HETATM    1  N1  UNL     1      27.470   4.241  49.002  1.00  0.00    -0.191 NA
HETATM    2  C1  UNL     1      26.474   3.875  49.477  1.00  0.00     0.103 C 
HETATM    3  C2  UNL     1      25.252   3.408  50.078  1.00  0.00     0.088 A 
HETATM    4  C3  UNL     1      24.126   3.511  49.277  1.00  0.00     0.142 A 
HETATM    5  N2  UNL     1      22.945   3.085  49.784  1.00  0.00    -0.263 NA
HETATM    6  C4  UNL     1      22.868   2.571  51.043  1.00  0.00     0.046 A 
HETATM    7  C16 UNL     1      23.966   2.462  51.844  1.00  0.00     0.059 A 
HETATM    8  C17 UNL     1      25.208   2.890  51.363  1.00  0.00     0.057 A 
ENDROOT
BRANCH   8   9
HETATM    9  N5  UNL     1      26.394   2.804  52.141  1.00  0.00    -0.355 N 
HETATM   10  H20 UNL     1      26.650   3.807  52.334  1.00  0.00     0.166 HD
BRANCH   9  11
HETATM   11  C18 UNL     1      27.185   1.727  52.634  1.00  0.00     0.034 A 
HETATM   12  C19 UNL     1      28.316   2.029  53.354  1.00  0.00     0.032 A 
HETATM   13  C20 UNL     1      29.058   0.982  53.813  1.00  0.00     0.046 A 
HETATM   14  C21 UNL     1      28.667  -0.311  53.551  1.00  0.00     0.138 A 
HETATM   15  F1  UNL     1      29.412  -1.369  54.011  1.00  0.00    -0.204 F 
HETATM   16  C22 UNL     1      27.531  -0.630  52.828  1.00  0.00     0.074 A 
HETATM   17 CL1  UNL     1      27.059  -2.284  52.513  1.00  0.00    -0.081 Cl
HETATM   18  C23 UNL     1      26.786   0.439  52.368  1.00  0.00     0.056 A 
ENDBRANCH   9  11
ENDBRANCH   8   9
BRANCH   6  19
HETATM   19  C5  UNL     1      21.528   2.135  51.496  1.00  0.00     0.105 C 
HETATM   20  C6  UNL     1      21.485   0.875  52.299  1.00  0.00     0.144 C 
HETATM   21  N3  UNL     1      20.225   0.580  51.642  1.00  0.00    -0.320 N 
HETATM   22  C7  UNL     1      19.113  -0.120  52.181  1.00  0.00     0.245 C 
HETATM   23  C15 UNL     1      20.767   1.269  50.483  1.00  0.00     0.234 C 
HETATM   24  O1  UNL     1      19.384  -0.455  53.361  1.00  0.00    -0.268 OA
BRANCH  22  25
HETATM   25  C8  UNL     1      17.894  -0.376  51.449  1.00  0.00     0.072 C 
HETATM   26  C9  UNL     1      16.979   0.542  51.229  1.00  0.00     0.008 C 
BRANCH  26  27
HETATM   27  C10 UNL     1      16.810   1.954  51.558  1.00  0.00     0.300 C 
BRANCH  27  28
HETATM   28  N4  UNL     1      15.451   2.337  51.889  1.00  0.00     0.096 N 
HETATM   29  C11 UNL     1      15.426   3.619  52.585  1.00  0.00     0.299 C 
HETATM   30  C12 UNL     1      14.019   3.908  53.059  1.00  0.00     0.198 C 
HETATM   31  O2  UNL     1      13.123   3.040  52.434  1.00  0.00    -0.388 OA
HETATM   32  C13 UNL     1      13.341   1.707  52.801  1.00  0.00     0.198 C 
HETATM   33  C14 UNL     1      14.801   1.340  52.720  1.00  0.00     0.299 C 
ENDBRANCH  27  28
ENDBRANCH  26  27
ENDBRANCH  22  25
BRANCH  23  34
HETATM   34  O3  UNL     1      19.839   1.982  49.738  1.00  0.00    -0.376 OA
HETATM   35  H18 UNL     1      19.836   2.922  50.064  1.00  0.00     0.212 HD
ENDBRANCH  23  34
ENDBRANCH   6  19
TORSDOF 7
ENDMDL
MODEL 6
REMARK VINA RESULT:      -8.6      4.758      9.884
REMARK  7 active torsions:
REMARK  status: ('A' for Active; 'I' for Inactive)
REMARK    1  A    between atoms: C4_6  and  C5_7 
REMARK       I    between atoms: N3_9  and  C7_10 
REMARK    2  A    between atoms: C7_10  and  C8_12 
REMARK    3  A    between atoms: C9_13  and  C10_14 
REMARK    4  A    between atoms: C10_14  and  N4_15 
REMARK    5  A    between atoms: C15_21  and  O3_22 
REMARK    6  A    between atoms: C17_24  and  N5_25 
REMARK    7  A    between atoms: N5_25  and  C18_26 
ROOT
HETATM    1  N1  UNL     1      27.098  -2.212  53.084  1.00  0.00    -0.191 NA
HETATM    2  C1  UNL     1      26.742  -1.159  52.744  1.00  0.00     0.103 C 
HETATM    3  C2  UNL     1      26.279   0.138  52.323  1.00  0.00     0.088 A 
HETATM    4  C3  UNL     1      27.187   0.873  51.580  1.00  0.00     0.142 A 
HETATM    5  N2  UNL     1      26.810   2.101  51.151  1.00  0.00    -0.263 NA
HETATM    6  C4  UNL     1      25.575   2.596  51.443  1.00  0.00     0.046 A 
HETATM    7  C16 UNL     1      24.669   1.886  52.174  1.00  0.00     0.059 A 
HETATM    8  C17 UNL     1      25.015   0.612  52.639  1.00  0.00     0.057 A 
ENDROOT
BRANCH   8   9
HETATM    9  N5  UNL     1      24.121  -0.185  53.403  1.00  0.00    -0.355 N 
HETATM   10  H20 UNL     1      24.747  -0.719  54.060  1.00  0.00     0.166 HD
BRANCH   9  11
HETATM   11  C18 UNL     1      22.707  -0.358  53.420  1.00  0.00     0.034 A 
HETATM   12  C19 UNL     1      22.143  -0.984  54.505  1.00  0.00     0.032 A 
HETATM   13  C20 UNL     1      20.789  -1.140  54.497  1.00  0.00     0.046 A 
HETATM   14  C21 UNL     1      20.045  -0.679  53.436  1.00  0.00     0.138 A 
HETATM   15  F1  UNL     1      18.681  -0.834  53.423  1.00  0.00    -0.204 F 
HETATM   16  C22 UNL     1      20.600  -0.046  52.337  1.00  0.00     0.074 A 
HETATM   17 CL1  UNL     1      19.627   0.530  51.003  1.00  0.00    -0.081 Cl
HETATM   18  C23 UNL     1      21.973   0.106  52.355  1.00  0.00     0.056 A 
ENDBRANCH   9  11
ENDBRANCH   8   9
BRANCH   6  19
HETATM   19  C5  UNL     1      25.267   3.948  50.925  1.00  0.00     0.105 C 
HETATM   20  C6  UNL     1      23.960   4.096  50.217  1.00  0.00     0.144 C 
HETATM   21  N3  UNL     1      24.625   5.030  49.327  1.00  0.00    -0.320 N 
HETATM   22  C7  UNL     1      24.059   6.164  48.685  1.00  0.00     0.245 C 
HETATM   23  C15 UNL     1      25.821   4.230  49.521  1.00  0.00     0.234 C 
HETATM   24  O1  UNL     1      22.851   6.252  49.018  1.00  0.00    -0.268 OA
BRANCH  22  25
HETATM   25  C8  UNL     1      24.797   7.040  47.805  1.00  0.00     0.072 C 
HETATM   26  C9  UNL     1      25.673   7.922  48.234  1.00  0.00     0.008 C 
BRANCH  26  27
HETATM   27  C10 UNL     1      26.194   8.336  49.533  1.00  0.00     0.300 C 
BRANCH  27  28
HETATM   28  N4  UNL     1      27.574   8.782  49.515  1.00  0.00     0.096 N 
HETATM   29  C11 UNL     1      27.662  10.190  49.142  1.00  0.00     0.299 C 
HETATM   30  C12 UNL     1      29.115  10.576  48.973  1.00  0.00     0.198 C 
HETATM   31  O2  UNL     1      29.933   9.585  49.518  1.00  0.00    -0.388 OA
HETATM   32  C13 UNL     1      29.819   8.373  48.828  1.00  0.00     0.198 C 
HETATM   33  C14 UNL     1      28.377   8.000  48.592  1.00  0.00     0.299 C 
ENDBRANCH  27  28
ENDBRANCH  26  27
ENDBRANCH  22  25
BRANCH  23  34
HETATM   34  O3  UNL     1      27.010   4.944  49.532  1.00  0.00    -0.376 OA
HETATM   35  H18 UNL     1      26.798   5.895  49.734  1.00  0.00     0.212 HD
ENDBRANCH  23  34
ENDBRANCH   6  19
TORSDOF 7
ENDMDL
MODEL 7
REMARK VINA RESULT:      -8.3      3.564      4.963
REMARK  7 active torsions:
REMARK  status: ('A' for Active; 'I' for Inactive)
REMARK    1  A    between atoms: C4_6  and  C5_7 
REMARK       I    between atoms: N3_9  and  C7_10 
REMARK    2  A    between atoms: C7_10  and  C8_12 
REMARK    3  A    between atoms: C9_13  and  C10_14 
REMARK    4  A    between atoms: C10_14  and  N4_15 
REMARK    5  A    between atoms: C15_21  and  O3_22 
REMARK    6  A    between atoms: C17_24  and  N5_25 
REMARK    7  A    between atoms: N5_25  and  C18_26 
ROOT
HETATM    1  N1  UNL     1      28.819   8.542  46.995  1.00  0.00    -0.191 NA
HETATM    2  C1  UNL     1      28.283   7.641  47.497  1.00  0.00     0.103 C 
HETATM    3  C2  UNL     1      27.606   6.539  48.131  1.00  0.00     0.088 A 
HETATM    4  C3  UNL     1      28.385   5.414  48.345  1.00  0.00     0.142 A 
HETATM    5  N2  UNL     1      27.807   4.345  48.940  1.00  0.00    -0.263 NA
HETATM    6  C4  UNL     1      26.498   4.375  49.316  1.00  0.00     0.046 A 
HETATM    7  C16 UNL     1      25.717   5.474  49.113  1.00  0.00     0.059 A 
HETATM    8  C17 UNL     1      26.271   6.603  48.501  1.00  0.00     0.057 A 
ENDROOT
BRANCH   8   9
HETATM    9  N5  UNL     1      25.518   7.784  48.260  1.00  0.00    -0.355 N 
HETATM   10  H20 UNL     1      25.798   8.434  49.040  1.00  0.00     0.166 HD
BRANCH   9  11
HETATM   11  C18 UNL     1      24.572   8.176  47.270  1.00  0.00     0.034 A 
HETATM   12  C19 UNL     1      23.335   8.604  47.688  1.00  0.00     0.032 A 
HETATM   13  C20 UNL     1      22.446   8.972  46.723  1.00  0.00     0.046 A 
HETATM   14  C21 UNL     1      22.800   8.906  45.395  1.00  0.00     0.138 A 
HETATM   15  F1  UNL     1      21.907   9.275  44.419  1.00  0.00    -0.204 F 
HETATM   16  C22 UNL     1      24.042   8.478  44.959  1.00  0.00     0.074 A 
HETATM   17 CL1  UNL     1      24.462   8.407  43.264  1.00  0.00    -0.081 Cl
HETATM   18  C23 UNL     1      24.935   8.108  45.947  1.00  0.00     0.056 A 
ENDBRANCH   9  11
ENDBRANCH   8   9
BRANCH   6  19
HETATM   19  C5  UNL     1      25.968   3.152  49.958  1.00  0.00     0.105 C 
HETATM   20  C6  UNL     1      24.481   3.003  49.958  1.00  0.00     0.144 C 
HETATM   21  N3  UNL     1      24.609   2.394  51.269  1.00  0.00    -0.320 N 
HETATM   22  C7  UNL     1      23.795   1.376  51.832  1.00  0.00     0.245 C 
HETATM   23  C15 UNL     1      25.746   3.276  51.472  1.00  0.00     0.234 C 
HETATM   24  O1  UNL     1      22.914   1.058  50.995  1.00  0.00    -0.268 OA
BRANCH  22  25
HETATM   25  C8  UNL     1      23.992   0.830  53.155  1.00  0.00     0.072 C 
HETATM   26  C9  UNL     1      24.929  -0.046  53.442  1.00  0.00     0.008 C 
BRANCH  26  27
HETATM   27  C10 UNL     1      25.986  -0.730  52.702  1.00  0.00     0.300 C 
BRANCH  27  28
HETATM   28  N4  UNL     1      27.332  -0.378  53.110  1.00  0.00     0.096 N 
HETATM   29  C11 UNL     1      28.235  -1.516  52.968  1.00  0.00     0.299 C 
HETATM   30  C12 UNL     1      29.585  -1.165  53.554  1.00  0.00     0.198 C 
HETATM   31  O2  UNL     1      29.663   0.213  53.765  1.00  0.00    -0.388 OA
HETATM   32  C13 UNL     1      28.748   0.649  54.730  1.00  0.00     0.198 C 
HETATM   33  C14 UNL     1      27.372   0.083  54.486  1.00  0.00     0.299 C 
ENDBRANCH  27  28
ENDBRANCH  26  27
ENDBRANCH  22  25
BRANCH  23  34
HETATM   34  O3  UNL     1      26.779   2.738  52.225  1.00  0.00    -0.376 OA
HETATM   35  H18 UNL     1      26.483   2.698  53.174  1.00  0.00     0.212 HD
ENDBRANCH  23  34
ENDBRANCH   6  19
TORSDOF 7
ENDMDL
MODEL 8
REMARK VINA RESULT:      -8.3      4.005      8.666
REMARK  7 active torsions:
REMARK  status: ('A' for Active; 'I' for Inactive)
REMARK    1  A    between atoms: C4_6  and  C5_7 
REMARK       I    between atoms: N3_9  and  C7_10 
REMARK    2  A    between atoms: C7_10  and  C8_12 
REMARK    3  A    between atoms: C9_13  and  C10_14 
REMARK    4  A    between atoms: C10_14  and  N4_15 
REMARK    5  A    between atoms: C15_21  and  O3_22 
REMARK    6  A    between atoms: C17_24  and  N5_25 
REMARK    7  A    between atoms: N5_25  and  C18_26 
ROOT
HETATM    1  N1  UNL     1      20.347   3.167  52.698  1.00  0.00    -0.191 NA
HETATM    2  C1  UNL     1      21.277   3.669  52.215  1.00  0.00     0.103 C 
HETATM    3  C2  UNL     1      22.443   4.274  51.623  1.00  0.00     0.088 A 
HETATM    4  C3  UNL     1      22.407   5.656  51.536  1.00  0.00     0.142 A 
HETATM    5  N2  UNL     1      23.475   6.285  50.991  1.00  0.00    -0.263 NA
HETATM    6  C4  UNL     1      24.551   5.580  50.544  1.00  0.00     0.046 A 
HETATM    7  C16 UNL     1      24.602   4.219  50.623  1.00  0.00     0.059 A 
HETATM    8  C17 UNL     1      23.521   3.526  51.177  1.00  0.00     0.057 A 
ENDROOT
BRANCH   8   9
HETATM    9  N5  UNL     1      23.507   2.110  51.294  1.00  0.00    -0.355 N 
HETATM   10  H20 UNL     1      23.138   1.777  50.365  1.00  0.00     0.166 HD
BRANCH   9  11
HETATM   11  C18 UNL     1      23.861   1.192  52.324  1.00  0.00     0.034 A 
HETATM   12  C19 UNL     1      22.893   0.338  52.794  1.00  0.00     0.032 A 
HETATM   13  C20 UNL     1      23.255  -0.528  53.781  1.00  0.00     0.046 A 
HETATM   14  C21 UNL     1      24.542  -0.526  54.267  1.00  0.00     0.138 A 
HETATM   15  F1  UNL     1      24.911  -1.397  55.263  1.00  0.00    -0.204 F 
HETATM   16  C22 UNL     1      25.527   0.328  53.804  1.00  0.00     0.074 A 
HETATM   17 CL1  UNL     1      27.156   0.306  54.441  1.00  0.00    -0.081 Cl
HETATM   18  C23 UNL     1      25.149   1.202  52.803  1.00  0.00     0.056 A 
ENDBRANCH   9  11
ENDBRANCH   8   9
BRANCH   6  19
HETATM   19  C5  UNL     1      25.663   6.368  49.967  1.00  0.00     0.105 C 
HETATM   20  C6  UNL     1      25.271   7.493  49.066  1.00  0.00     0.144 C 
HETATM   21  N3  UNL     1      26.448   7.181  48.277  1.00  0.00    -0.320 N 
HETATM   22  C7  UNL     1      27.260   8.086  47.542  1.00  0.00     0.245 C 
HETATM   23  C15 UNL     1      26.234   5.797  48.662  1.00  0.00     0.234 C 
HETATM   24  O1  UNL     1      26.798   9.246  47.685  1.00  0.00    -0.268 OA
BRANCH  22  25
HETATM   25  C8  UNL     1      28.416   7.686  46.774  1.00  0.00     0.072 C 
HETATM   26  C9  UNL     1      29.574   7.383  47.318  1.00  0.00     0.008 C 
BRANCH  26  27
HETATM   27  C10 UNL     1      30.112   7.325  48.675  1.00  0.00     0.300 C 
BRANCH  27  28
HETATM   28  N4  UNL     1      31.450   6.776  48.769  1.00  0.00     0.096 N 
HETATM   29  C11 UNL     1      32.447   7.756  48.351  1.00  0.00     0.299 C 
HETATM   30  C12 UNL     1      33.810   7.102  48.305  1.00  0.00     0.198 C 
HETATM   31  O2  UNL     1      33.765   5.872  48.962  1.00  0.00    -0.388 OA
HETATM   32  C13 UNL     1      32.925   4.960  48.312  1.00  0.00     0.198 C 
HETATM   33  C14 UNL     1      31.598   5.582  47.956  1.00  0.00     0.299 C 
ENDBRANCH  27  28
ENDBRANCH  26  27
ENDBRANCH  22  25
BRANCH  23  34
HETATM   34  O3  UNL     1      27.390   5.054  48.846  1.00  0.00    -0.376 OA
HETATM   35  H18 UNL     1      28.158   5.582  48.497  1.00  0.00     0.212 HD
ENDBRANCH  23  34
ENDBRANCH   6  19
TORSDOF 7
ENDMDL
MODEL 9
REMARK VINA RESULT:      -8.2      3.467      8.357
REMARK  7 active torsions:
REMARK  status: ('A' for Active; 'I' for Inactive)
REMARK    1  A    between atoms: C4_6  and  C5_7 
REMARK       I    between atoms: N3_9  and  C7_10 
REMARK    2  A    between atoms: C7_10  and  C8_12 
REMARK    3  A    between atoms: C9_13  and  C10_14 
REMARK    4  A    between atoms: C10_14  and  N4_15 
REMARK    5  A    between atoms: C15_21  and  O3_22 
REMARK    6  A    between atoms: C17_24  and  N5_25 
REMARK    7  A    between atoms: N5_25  and  C18_26 
ROOT
HETATM    1  N1  UNL     1      22.094  -0.872  53.100  1.00  0.00    -0.191 NA
HETATM    2  C1  UNL     1      22.573   0.106  52.694  1.00  0.00     0.103 C 
HETATM    3  C2  UNL     1      23.180   1.319  52.211  1.00  0.00     0.088 A 
HETATM    4  C3  UNL     1      22.383   2.080  51.370  1.00  0.00     0.142 A 
HETATM    5  N2  UNL     1      22.896   3.235  50.885  1.00  0.00    -0.263 NA
HETATM    6  C4  UNL     1      24.155   3.636  51.213  1.00  0.00     0.046 A 
HETATM    7  C16 UNL     1      24.952   2.900  52.039  1.00  0.00     0.059 A 
HETATM    8  C17 UNL     1      24.465   1.698  52.565  1.00  0.00     0.057 A 
ENDROOT
BRANCH   8   9
HETATM    9  N5  UNL     1      25.238   0.881  53.434  1.00  0.00    -0.355 N 
HETATM   10  H20 UNL     1      24.538   0.497  54.120  1.00  0.00     0.166 HD
BRANCH   9  11
HETATM   11  C18 UNL     1      26.620   0.546  53.516  1.00  0.00     0.034 A 
HETATM   12  C19 UNL     1      27.513   1.544  53.821  1.00  0.00     0.032 A 
HETATM   13  C20 UNL     1      28.830   1.199  53.892  1.00  0.00     0.046 A 
HETATM   14  C21 UNL     1      29.218  -0.101  53.664  1.00  0.00     0.138 A 
HETATM   15  F1  UNL     1      30.544  -0.453  53.733  1.00  0.00    -0.204 F 
HETATM   16  C22 UNL     1      28.330  -1.116  53.356  1.00  0.00     0.074 A 
HETATM   17 CL1  UNL     1      28.854  -2.760  53.073  1.00  0.00    -0.081 Cl
HETATM   18  C23 UNL     1      26.998  -0.756  53.287  1.00  0.00     0.056 A 
ENDBRANCH   9  11
ENDBRANCH   8   9
BRANCH   6  19
HETATM   19  C5  UNL     1      24.614   4.915  50.627  1.00  0.00     0.105 C 
HETATM   20  C6  UNL     1      23.578   5.716  49.907  1.00  0.00     0.144 C 
HETATM   21  N3  UNL     1      24.621   6.101  48.974  1.00  0.00    -0.320 N 
HETATM   22  C7  UNL     1      24.743   7.331  48.274  1.00  0.00     0.245 C 
HETATM   23  C15 UNL     1      25.199   4.790  49.213  1.00  0.00     0.234 C 
HETATM   24  O1  UNL     1      23.782   8.073  48.598  1.00  0.00    -0.268 OA
BRANCH  22  25
HETATM   25  C8  UNL     1      25.816   7.628  47.354  1.00  0.00     0.072 C 
HETATM   26  C9  UNL     1      27.037   7.922  47.741  1.00  0.00     0.008 C 
BRANCH  26  27
HETATM   27  C10 UNL     1      27.728   8.057  49.021  1.00  0.00     0.300 C 
BRANCH  27  28
HETATM   28  N4  UNL     1      29.147   8.331  48.914  1.00  0.00     0.096 N 
HETATM   29  C11 UNL     1      29.448   9.697  49.332  1.00  0.00     0.299 C 
HETATM   30  C12 UNL     1      30.903  10.001  49.054  1.00  0.00     0.198 C 
HETATM   31  O2  UNL     1      31.588   8.817  48.779  1.00  0.00    -0.388 OA
HETATM   32  C13 UNL     1      31.135   8.208  47.603  1.00  0.00     0.198 C 
HETATM   33  C14 UNL     1      29.629   8.140  47.557  1.00  0.00     0.299 C 
ENDBRANCH  27  28
ENDBRANCH  26  27
ENDBRANCH  22  25
BRANCH  23  34
HETATM   34  O3  UNL     1      26.585   4.747  49.193  1.00  0.00    -0.376 OA
HETATM   35  H18 UNL     1      26.924   5.321  49.932  1.00  0.00     0.212 HD
ENDBRANCH  23  34
ENDBRANCH   6  19
TORSDOF 7
ENDMDL
