MODEL 1
REMARK VINA RESULT:      -7.0      0.000      0.000
REMARK  8 active torsions:
REMARK  status: ('A' for Active; 'I' for Inactive)
REMARK    1  A    between atoms: N1_2  and  C3_4 
REMARK    2  A    between atoms: C3_4  and  C4_5 
REMARK    3  A    between atoms: C4_5  and  C5_6 
REMARK    4  A    between atoms: C5_6  and  O1_7 
REMARK    5  A    between atoms: O1_7  and  C6_8 
REMARK    6  A    between atoms: C9_11  and  N2_12 
REMARK    7  A    between atoms: N2_12  and  C10_13 
REMARK    8  A    between atoms: C10_13  and  C11_14 
ROOT
HETATM    1  C6  UNL     1      24.378  -0.347  53.414  1.00  0.00     0.108 A 
HETATM    2  C7  UNL     1      25.114   0.512  52.640  1.00  0.00     0.057 A 
HETATM    3  C8  UNL     1      26.316   1.092  52.959  1.00  0.00     0.041 A 
HETATM    4  C9  UNL     1      26.878   1.929  52.024  1.00  0.00     0.137 A 
HETATM    5  N3  UNL     1      28.054   2.454  52.420  1.00  0.00    -0.224 NA
HETATM    6  C13 UNL     1      28.621   2.189  53.607  1.00  0.00     0.235 A 
HETATM    7  N4  UNL     1      28.032   1.368  54.480  1.00  0.00    -0.241 NA
HETATM    8  C14 UNL     1      26.856   0.791  54.184  1.00  0.00     0.075 A 
HETATM    9  C15 UNL     1      26.188  -0.078  55.054  1.00  0.00     0.077 A 
HETATM   10  C16 UNL     1      24.961  -0.638  54.665  1.00  0.00     0.151 A 
HETATM   11  F1  UNL     1      24.530  -1.433  55.678  1.00  0.00    -0.203 F 
ENDROOT
BRANCH   1  12
HETATM   12  O1  UNL     1      23.240  -1.041  53.383  1.00  0.00    -0.348 OA
BRANCH  12  13
HETATM   13  C5  UNL     1      22.024  -0.955  53.937  1.00  0.00     0.177 C 
BRANCH  13  14
HETATM   14  C4  UNL     1      21.333   0.333  54.158  1.00  0.00     0.057 C 
BRANCH  14  15
HETATM   15  C3  UNL     1      20.613   0.968  53.034  1.00  0.00     0.273 C 
BRANCH  15  16
HETATM   16  N1  UNL     1      21.505   1.879  52.335  1.00  0.00     0.080 N 
HETATM   17  C1  UNL     1      20.948   3.210  52.213  1.00  0.00     0.309 C 
HETATM   18  C2  UNL     1      21.814   1.406  51.001  1.00  0.00     0.309 C 
ENDBRANCH  15  16
ENDBRANCH  14  15
ENDBRANCH  13  14
ENDBRANCH  12  13
ENDBRANCH   1  12
BRANCH   4  19
HETATM   19  N2  UNL     1      26.319   2.248  50.750  1.00  0.00    -0.374 N 
HETATM   20  H14 UNL     1      26.060   1.568  50.032  1.00  0.00     0.161 HD
BRANCH  19  21
HETATM   21  C10 UNL     1      26.110   3.649  50.465  1.00  0.00     0.127 C 
BRANCH  21  22
HETATM   22  C11 UNL     1      26.916   4.091  49.287  1.00  0.00     0.025 C 
HETATM   23  C12 UNL     1      27.167   5.233  48.640  1.00  0.00     0.177 C 
HETATM   24  I1  UNL     1      26.649   7.297  48.745  1.00  0.00    -0.188 I 
ENDBRANCH  21  22
ENDBRANCH  19  21
ENDBRANCH   4  19
TORSDOF 8
ENDMDL
MODEL 2
REMARK VINA RESULT:      -6.6      2.246      5.387
REMARK  8 active torsions:
REMARK  status: ('A' for Active; 'I' for Inactive)
REMARK    1  A    between atoms: N1_2  and  C3_4 
REMARK    2  A    between atoms: C3_4  and  C4_5 
REMARK    3  A    between atoms: C4_5  and  C5_6 
REMARK    4  A    between atoms: C5_6  and  O1_7 
REMARK    5  A    between atoms: O1_7  and  C6_8 
REMARK    6  A    between atoms: C9_11  and  N2_12 
REMARK    7  A    between atoms: N2_12  and  C10_13 
REMARK    8  A    between atoms: C10_13  and  C11_14 
ROOT
HETATM    1  C6  UNL     1      23.953   0.397  53.096  1.00  0.00     0.108 A 
HETATM    2  C7  UNL     1      23.819   1.730  52.808  1.00  0.00     0.057 A 
HETATM    3  C8  UNL     1      22.655   2.407  52.543  1.00  0.00     0.041 A 
HETATM    4  C9  UNL     1      22.756   3.753  52.277  1.00  0.00     0.137 A 
HETATM    5  N3  UNL     1      21.568   4.336  52.029  1.00  0.00    -0.224 NA
HETATM    6  C13 UNL     1      20.402   3.673  52.038  1.00  0.00     0.235 A 
HETATM    7  N4  UNL     1      20.358   2.365  52.302  1.00  0.00    -0.241 NA
HETATM    8  C14 UNL     1      21.487   1.686  52.564  1.00  0.00     0.075 A 
HETATM    9  C15 UNL     1      21.511   0.316  52.849  1.00  0.00     0.077 A 
HETATM   10  C16 UNL     1      22.736  -0.315  53.111  1.00  0.00     0.151 A 
HETATM   11  F1  UNL     1      22.481  -1.627  53.353  1.00  0.00    -0.203 F 
ENDROOT
BRANCH   1  12
HETATM   12  O1  UNL     1      24.894  -0.503  53.384  1.00  0.00    -0.348 OA
BRANCH  12  13
HETATM   13  C5  UNL     1      26.001  -0.985  52.805  1.00  0.00     0.177 C 
BRANCH  13  14
HETATM   14  C4  UNL     1      27.359  -0.717  53.323  1.00  0.00     0.057 C 
BRANCH  14  15
HETATM   15  C3  UNL     1      27.521   0.159  54.502  1.00  0.00     0.273 C 
BRANCH  15  16
HETATM   16  N1  UNL     1      28.667   1.034  54.308  1.00  0.00     0.080 N 
HETATM   17  C1  UNL     1      28.337   2.208  53.526  1.00  0.00     0.309 C 
HETATM   18  C2  UNL     1      29.755   0.349  53.641  1.00  0.00     0.309 C 
ENDBRANCH  15  16
ENDBRANCH  14  15
ENDBRANCH  13  14
ENDBRANCH  12  13
ENDBRANCH   1  12
BRANCH   4  19
HETATM   19  N2  UNL     1      23.968   4.506  52.251  1.00  0.00    -0.374 N 
HETATM   20  H14 UNL     1      24.632   4.583  53.026  1.00  0.00     0.161 HD
BRANCH  19  21
HETATM   21  C10 UNL     1      24.268   5.212  51.027  1.00  0.00     0.127 C 
BRANCH  21  22
HETATM   22  C11 UNL     1      24.789   4.283  49.978  1.00  0.00     0.025 C 
HETATM   23  C12 UNL     1      24.286   3.408  49.101  1.00  0.00     0.177 C 
HETATM   24  I1  UNL     1      22.396   2.638  48.492  1.00  0.00    -0.188 I 
ENDBRANCH  21  22
ENDBRANCH  19  21
ENDBRANCH   4  19
TORSDOF 8
ENDMDL
MODEL 3
REMARK VINA RESULT:      -6.6      2.577      6.198
REMARK  8 active torsions:
REMARK  status: ('A' for Active; 'I' for Inactive)
REMARK    1  A    between atoms: N1_2  and  C3_4 
REMARK    2  A    between atoms: C3_4  and  C4_5 
REMARK    3  A    between atoms: C4_5  and  C5_6 
REMARK    4  A    between atoms: C5_6  and  O1_7 
REMARK    5  A    between atoms: O1_7  and  C6_8 
REMARK    6  A    between atoms: C9_11  and  N2_12 
REMARK    7  A    between atoms: N2_12  and  C10_13 
REMARK    8  A    between atoms: C10_13  and  C11_14 
ROOT
HETATM    1  C6  UNL     1      23.365   0.208  53.240  1.00  0.00     0.108 A 
HETATM    2  C7  UNL     1      22.378   0.597  52.371  1.00  0.00     0.057 A 
HETATM    3  C8  UNL     1      21.053   0.241  52.410  1.00  0.00     0.041 A 
HETATM    4  C9  UNL     1      20.236   0.751  51.429  1.00  0.00     0.137 A 
HETATM    5  N3  UNL     1      18.956   0.352  51.544  1.00  0.00    -0.224 NA
HETATM    6  C13 UNL     1      18.518  -0.463  52.516  1.00  0.00     0.235 A 
HETATM    7  N4  UNL     1      19.354  -0.931  53.445  1.00  0.00    -0.241 NA
HETATM    8  C14 UNL     1      20.654  -0.594  53.424  1.00  0.00     0.075 A 
HETATM    9  C15 UNL     1      21.582  -1.049  54.367  1.00  0.00     0.077 A 
HETATM   10  C16 UNL     1      22.923  -0.648  54.269  1.00  0.00     0.151 A 
HETATM   11  F1  UNL     1      23.602  -1.224  55.295  1.00  0.00    -0.203 F 
ENDROOT
BRANCH   1  12
HETATM   12  O1  UNL     1      24.670   0.377  53.455  1.00  0.00    -0.348 OA
BRANCH  12  13
HETATM   13  C5  UNL     1      25.811   0.147  52.793  1.00  0.00     0.177 C 
BRANCH  13  14
HETATM   14  C4  UNL     1      27.020  -0.399  53.443  1.00  0.00     0.057 C 
BRANCH  14  15
HETATM   15  C3  UNL     1      27.500   0.210  54.701  1.00  0.00     0.273 C 
BRANCH  15  16
HETATM   16  N1  UNL     1      28.863   0.685  54.527  1.00  0.00     0.080 N 
HETATM   17  C1  UNL     1      28.915   1.991  53.902  1.00  0.00     0.309 C 
HETATM   18  C2  UNL     1      29.647  -0.224  53.717  1.00  0.00     0.309 C 
ENDBRANCH  15  16
ENDBRANCH  14  15
ENDBRANCH  13  14
ENDBRANCH  12  13
ENDBRANCH   1  12
BRANCH   4  19
HETATM   19  N2  UNL     1      20.647   1.617  50.372  1.00  0.00    -0.374 N 
HETATM   20  H14 UNL     1      20.696   2.638  50.429  1.00  0.00     0.161 HD
BRANCH  19  21
HETATM   21  C10 UNL     1      21.021   0.989  49.125  1.00  0.00     0.127 C 
BRANCH  21  22
HETATM   22  C11 UNL     1      21.855   1.902  48.285  1.00  0.00     0.025 C 
HETATM   23  C12 UNL     1      22.900   2.717  48.458  1.00  0.00     0.177 C 
HETATM   24  I1  UNL     1      24.200   3.368  50.015  1.00  0.00    -0.188 I 
ENDBRANCH  21  22
ENDBRANCH  19  21
ENDBRANCH   4  19
TORSDOF 8
ENDMDL
MODEL 4
REMARK VINA RESULT:      -6.5      2.674      5.711
REMARK  8 active torsions:
REMARK  status: ('A' for Active; 'I' for Inactive)
REMARK    1  A    between atoms: N1_2  and  C3_4 
REMARK    2  A    between atoms: C3_4  and  C4_5 
REMARK    3  A    between atoms: C4_5  and  C5_6 
REMARK    4  A    between atoms: C5_6  and  O1_7 
REMARK    5  A    between atoms: O1_7  and  C6_8 
REMARK    6  A    between atoms: C9_11  and  N2_12 
REMARK    7  A    between atoms: N2_12  and  C10_13 
REMARK    8  A    between atoms: C10_13  and  C11_14 
ROOT
HETATM    1  C6  UNL     1      25.868   1.027  52.108  1.00  0.00     0.108 A 
HETATM    2  C7  UNL     1      24.597   0.665  52.470  1.00  0.00     0.057 A 
HETATM    3  C8  UNL     1      24.226  -0.082  53.560  1.00  0.00     0.041 A 
HETATM    4  C9  UNL     1      22.883  -0.327  53.727  1.00  0.00     0.137 A 
HETATM    5  N3  UNL     1      22.610  -1.065  54.820  1.00  0.00    -0.224 NA
HETATM    6  C13 UNL     1      23.552  -1.518  55.661  1.00  0.00     0.235 A 
HETATM    7  N4  UNL     1      24.843  -1.252  55.453  1.00  0.00    -0.241 NA
HETATM    8  C14 UNL     1      25.225  -0.523  54.392  1.00  0.00     0.075 A 
HETATM    9  C15 UNL     1      26.560  -0.208  54.116  1.00  0.00     0.077 A 
HETATM   10  C16 UNL     1      26.871   0.560  52.983  1.00  0.00     0.151 A 
HETATM   11  F1  UNL     1      28.219   0.718  52.949  1.00  0.00    -0.203 F 
ENDROOT
BRANCH   1  12
HETATM   12  O1  UNL     1      26.513   1.710  51.162  1.00  0.00    -0.348 OA
BRANCH  12  13
HETATM   13  C5  UNL     1      26.661   2.993  50.807  1.00  0.00     0.177 C 
BRANCH  13  14
HETATM   14  C4  UNL     1      26.390   3.481  49.439  1.00  0.00     0.057 C 
BRANCH  14  15
HETATM   15  C3  UNL     1      27.187   4.605  48.903  1.00  0.00     0.273 C 
BRANCH  15  16
HETATM   16  N1  UNL     1      26.513   5.862  49.186  1.00  0.00     0.080 N 
HETATM   17  C1  UNL     1      25.118   5.839  48.797  1.00  0.00     0.309 C 
HETATM   18  C2  UNL     1      27.144   6.973  48.503  1.00  0.00     0.309 C 
ENDBRANCH  15  16
ENDBRANCH  14  15
ENDBRANCH  13  14
ENDBRANCH  12  13
ENDBRANCH   1  12
BRANCH   4  19
HETATM   19  N2  UNL     1      21.841   0.127  52.864  1.00  0.00    -0.374 N 
HETATM   20  H14 UNL     1      21.725  -0.146  51.885  1.00  0.00     0.161 HD
BRANCH  19  21
HETATM   21  C10 UNL     1      20.881   1.046  53.431  1.00  0.00     0.127 C 
BRANCH  21  22
HETATM   22  C11 UNL     1      20.553   2.148  52.476  1.00  0.00     0.025 C 
HETATM   23  C12 UNL     1      21.154   3.236  51.985  1.00  0.00     0.177 C 
HETATM   24  I1  UNL     1      23.011   4.267  52.147  1.00  0.00    -0.188 I 
ENDBRANCH  21  22
ENDBRANCH  19  21
ENDBRANCH   4  19
TORSDOF 8
ENDMDL
MODEL 5
REMARK VINA RESULT:      -6.5      2.373      2.844
REMARK  8 active torsions:
REMARK  status: ('A' for Active; 'I' for Inactive)
REMARK    1  A    between atoms: N1_2  and  C3_4 
REMARK    2  A    between atoms: C3_4  and  C4_5 
REMARK    3  A    between atoms: C4_5  and  C5_6 
REMARK    4  A    between atoms: C5_6  and  O1_7 
REMARK    5  A    between atoms: O1_7  and  C6_8 
REMARK    6  A    between atoms: C9_11  and  N2_12 
REMARK    7  A    between atoms: N2_12  and  C10_13 
REMARK    8  A    between atoms: C10_13  and  C11_14 
ROOT
HETATM    1  C6  UNL     1      23.397   0.751  53.021  1.00  0.00     0.108 A 
HETATM    2  C7  UNL     1      24.562   1.396  52.694  1.00  0.00     0.057 A 
HETATM    3  C8  UNL     1      25.836   1.041  53.060  1.00  0.00     0.041 A 
HETATM    4  C9  UNL     1      26.863   1.840  52.616  1.00  0.00     0.137 A 
HETATM    5  N3  UNL     1      28.077   1.420  53.022  1.00  0.00    -0.224 NA
HETATM    6  C13 UNL     1      28.267   0.331  53.782  1.00  0.00     0.235 A 
HETATM    7  N4  UNL     1      27.234  -0.411  54.187  1.00  0.00    -0.241 NA
HETATM    8  C14 UNL     1      25.980  -0.080  53.839  1.00  0.00     0.075 A 
HETATM    9  C15 UNL     1      24.855  -0.815  54.229  1.00  0.00     0.077 A 
HETATM   10  C16 UNL     1      23.579  -0.397  53.820  1.00  0.00     0.151 A 
HETATM   11  F1  UNL     1      22.675  -1.273  54.328  1.00  0.00    -0.203 F 
ENDROOT
BRANCH   1  12
HETATM   12  O1  UNL     1      22.081   0.843  52.827  1.00  0.00    -0.348 OA
BRANCH  12  13
HETATM   13  C5  UNL     1      21.204   0.502  51.874  1.00  0.00     0.177 C 
BRANCH  13  14
HETATM   14  C4  UNL     1      19.803   0.136  52.168  1.00  0.00     0.057 C 
BRANCH  14  15
HETATM   15  C3  UNL     1      19.507  -0.679  53.365  1.00  0.00     0.273 C 
BRANCH  15  16
HETATM   16  N1  UNL     1      18.105  -1.065  53.360  1.00  0.00     0.080 N 
HETATM   17  C1  UNL     1      17.922  -2.480  53.608  1.00  0.00     0.309 C 
HETATM   18  C2  UNL     1      17.469  -0.751  52.097  1.00  0.00     0.309 C 
ENDBRANCH  15  16
ENDBRANCH  14  15
ENDBRANCH  13  14
ENDBRANCH  12  13
ENDBRANCH   1  12
BRANCH   4  19
HETATM   19  N2  UNL     1      26.719   3.008  51.809  1.00  0.00    -0.374 N 
HETATM   20  H14 UNL     1      26.712   3.970  52.158  1.00  0.00     0.161 HD
BRANCH  19  21
HETATM   21  C10 UNL     1      26.572   2.801  50.386  1.00  0.00     0.127 C 
BRANCH  21  22
HETATM   22  C11 UNL     1      25.752   3.884  49.761  1.00  0.00     0.025 C 
HETATM   23  C12 UNL     1      24.509   4.029  49.293  1.00  0.00     0.177 C 
HETATM   24  I1  UNL     1      22.728   2.886  49.056  1.00  0.00    -0.188 I 
ENDBRANCH  21  22
ENDBRANCH  19  21
ENDBRANCH   4  19
TORSDOF 8
ENDMDL
MODEL 6
REMARK VINA RESULT:      -6.4      3.484      5.660
REMARK  8 active torsions:
REMARK  status: ('A' for Active; 'I' for Inactive)
REMARK    1  A    between atoms: N1_2  and  C3_4 
REMARK    2  A    between atoms: C3_4  and  C4_5 
REMARK    3  A    between atoms: C4_5  and  C5_6 
REMARK    4  A    between atoms: C5_6  and  O1_7 
REMARK    5  A    between atoms: O1_7  and  C6_8 
REMARK    6  A    between atoms: C9_11  and  N2_12 
REMARK    7  A    between atoms: N2_12  and  C10_13 
REMARK    8  A    between atoms: C10_13  and  C11_14 
ROOT
HETATM    1  C6  UNL     1      26.381   1.497  52.002  1.00  0.00     0.108 A 
HETATM    2  C7  UNL     1      25.193   0.910  52.352  1.00  0.00     0.057 A 
HETATM    3  C8  UNL     1      24.937   0.160  53.473  1.00  0.00     0.041 A 
HETATM    4  C9  UNL     1      23.664  -0.336  53.620  1.00  0.00     0.137 A 
HETATM    5  N3  UNL     1      23.502  -1.058  54.745  1.00  0.00    -0.224 NA
HETATM    6  C13 UNL     1      24.484  -1.273  55.634  1.00  0.00     0.235 A 
HETATM    7  N4  UNL     1      25.704  -0.768  55.444  1.00  0.00    -0.241 NA
HETATM    8  C14 UNL     1      25.973  -0.032  54.353  1.00  0.00     0.075 A 
HETATM    9  C15 UNL     1      27.230   0.526  54.093  1.00  0.00     0.077 A 
HETATM   10  C16 UNL     1      27.424   1.282  52.927  1.00  0.00     0.151 A 
HETATM   11  F1  UNL     1      28.716   1.703  52.918  1.00  0.00    -0.203 F 
ENDROOT
BRANCH   1  12
HETATM   12  O1  UNL     1      26.913   2.246  51.036  1.00  0.00    -0.348 OA
BRANCH  12  13
HETATM   13  C5  UNL     1      26.545   3.301  50.297  1.00  0.00     0.177 C 
BRANCH  13  14
HETATM   14  C4  UNL     1      25.203   3.427  49.692  1.00  0.00     0.057 C 
BRANCH  14  15
HETATM   15  C3  UNL     1      24.150   4.165  50.421  1.00  0.00     0.273 C 
BRANCH  15  16
HETATM   16  N1  UNL     1      23.097   3.247  50.822  1.00  0.00     0.080 N 
HETATM   17  C1  UNL     1      22.797   2.269  49.796  1.00  0.00     0.309 C 
HETATM   18  C2  UNL     1      21.868   3.947  51.137  1.00  0.00     0.309 C 
ENDBRANCH  15  16
ENDBRANCH  14  15
ENDBRANCH  13  14
ENDBRANCH  12  13
ENDBRANCH   1  12
BRANCH   4  19
HETATM   19  N2  UNL     1      22.584  -0.142  52.707  1.00  0.00    -0.374 N 
HETATM   20  H14 UNL     1      22.545  -0.510  51.753  1.00  0.00     0.161 HD
BRANCH  19  21
HETATM   21  C10 UNL     1      21.466   0.640  53.180  1.00  0.00     0.127 C 
BRANCH  21  22
HETATM   22  C11 UNL     1      20.287  -0.227  53.488  1.00  0.00     0.025 C 
HETATM   23  C12 UNL     1      19.085  -0.475  52.961  1.00  0.00     0.177 C 
HETATM   24  I1  UNL     1      17.891   0.131  51.304  1.00  0.00    -0.188 I 
ENDBRANCH  21  22
ENDBRANCH  19  21
ENDBRANCH   4  19
TORSDOF 8
ENDMDL
MODEL 7
REMARK VINA RESULT:      -6.4      2.230      5.221
REMARK  8 active torsions:
REMARK  status: ('A' for Active; 'I' for Inactive)
REMARK    1  A    between atoms: N1_2  and  C3_4 
REMARK    2  A    between atoms: C3_4  and  C4_5 
REMARK    3  A    between atoms: C4_5  and  C5_6 
REMARK    4  A    between atoms: C5_6  and  O1_7 
REMARK    5  A    between atoms: O1_7  and  C6_8 
REMARK    6  A    between atoms: C9_11  and  N2_12 
REMARK    7  A    between atoms: N2_12  and  C10_13 
REMARK    8  A    between atoms: C10_13  and  C11_14 
ROOT
HETATM    1  C6  UNL     1      23.963   0.738  52.866  1.00  0.00     0.108 A 
HETATM    2  C7  UNL     1      24.208   1.874  52.139  1.00  0.00     0.057 A 
HETATM    3  C8  UNL     1      23.429   2.402  51.139  1.00  0.00     0.041 A 
HETATM    4  C9  UNL     1      23.873   3.557  50.540  1.00  0.00     0.137 A 
HETATM    5  N3  UNL     1      23.049   4.004  49.573  1.00  0.00    -0.224 NA
HETATM    6  C13 UNL     1      21.911   3.385  49.226  1.00  0.00     0.235 A 
HETATM    7  N4  UNL     1      21.525   2.264  49.840  1.00  0.00    -0.241 NA
HETATM    8  C14 UNL     1      22.274   1.733  50.820  1.00  0.00     0.075 A 
HETATM    9  C15 UNL     1      21.927   0.562  51.503  1.00  0.00     0.077 A 
HETATM   10  C16 UNL     1      22.769   0.075  52.515  1.00  0.00     0.151 A 
HETATM   11  F1  UNL     1      22.207  -1.058  53.009  1.00  0.00    -0.203 F 
ENDROOT
BRANCH   1  12
HETATM   12  O1  UNL     1      24.497   0.011  53.848  1.00  0.00    -0.348 OA
BRANCH  12  13
HETATM   13  C5  UNL     1      25.463  -0.907  53.973  1.00  0.00     0.177 C 
BRANCH  13  14
HETATM   14  C4  UNL     1      26.537  -1.083  52.973  1.00  0.00     0.057 C 
BRANCH  14  15
HETATM   15  C3  UNL     1      27.734  -0.219  53.041  1.00  0.00     0.273 C 
BRANCH  15  16
HETATM   16  N1  UNL     1      28.818  -0.933  53.696  1.00  0.00     0.080 N 
HETATM   17  C1  UNL     1      30.088  -0.249  53.564  1.00  0.00     0.309 C 
HETATM   18  C2  UNL     1      28.979  -2.270  53.160  1.00  0.00     0.309 C 
ENDBRANCH  15  16
ENDBRANCH  14  15
ENDBRANCH  13  14
ENDBRANCH  12  13
ENDBRANCH   1  12
BRANCH   4  19
HETATM   19  N2  UNL     1      25.074   4.255  50.866  1.00  0.00    -0.374 N 
HETATM   20  H14 UNL     1      25.582   4.174  51.751  1.00  0.00     0.161 HD
BRANCH  19  21
HETATM   21  C10 UNL     1      25.604   5.144  49.858  1.00  0.00     0.127 C 
BRANCH  21  22
HETATM   22  C11 UNL     1      26.779   4.537  49.161  1.00  0.00     0.025 C 
HETATM   23  C12 UNL     1      27.872   4.966  48.523  1.00  0.00     0.177 C 
HETATM   24  I1  UNL     1      28.818   6.799  47.991  1.00  0.00    -0.188 I 
ENDBRANCH  21  22
ENDBRANCH  19  21
ENDBRANCH   4  19
TORSDOF 8
ENDMDL
MODEL 8
REMARK VINA RESULT:      -6.2      2.561      3.937
REMARK  8 active torsions:
REMARK  status: ('A' for Active; 'I' for Inactive)
REMARK    1  A    between atoms: N1_2  and  C3_4 
REMARK    2  A    between atoms: C3_4  and  C4_5 
REMARK    3  A    between atoms: C4_5  and  C5_6 
REMARK    4  A    between atoms: C5_6  and  O1_7 
REMARK    5  A    between atoms: O1_7  and  C6_8 
REMARK    6  A    between atoms: C9_11  and  N2_12 
REMARK    7  A    between atoms: N2_12  and  C10_13 
REMARK    8  A    between atoms: C10_13  and  C11_14 
ROOT
HETATM    1  C6  UNL     1      24.745   0.571  53.385  1.00  0.00     0.108 A 
HETATM    2  C7  UNL     1      24.242   1.777  52.970  1.00  0.00     0.057 A 
HETATM    3  C8  UNL     1      24.761   2.603  52.005  1.00  0.00     0.041 A 
HETATM    4  C9  UNL     1      24.087   3.775  51.751  1.00  0.00     0.137 A 
HETATM    5  N3  UNL     1      24.665   4.523  50.792  1.00  0.00    -0.224 NA
HETATM    6  C13 UNL     1      25.786   4.163  50.148  1.00  0.00     0.235 A 
HETATM    7  N4  UNL     1      26.402   3.014  50.433  1.00  0.00    -0.241 NA
HETATM    8  C14 UNL     1      25.909   2.193  51.374  1.00  0.00     0.075 A 
HETATM    9  C15 UNL     1      26.506   0.975  51.720  1.00  0.00     0.077 A 
HETATM   10  C16 UNL     1      25.923   0.178  52.717  1.00  0.00     0.151 A 
HETATM   11  F1  UNL     1      26.690  -0.934  52.857  1.00  0.00    -0.203 F 
ENDROOT
BRANCH   1  12
HETATM   12  O1  UNL     1      24.483  -0.410  54.249  1.00  0.00    -0.348 OA
BRANCH  12  13
HETATM   13  C5  UNL     1      23.423  -1.148  54.602  1.00  0.00     0.177 C 
BRANCH  13  14
HETATM   14  C4  UNL     1      22.068  -0.581  54.766  1.00  0.00     0.057 C 
BRANCH  14  15
HETATM   15  C3  UNL     1      20.915  -1.279  54.161  1.00  0.00     0.273 C 
BRANCH  15  16
HETATM   16  N1  UNL     1      20.320  -0.441  53.132  1.00  0.00     0.080 N 
HETATM   17  C1  UNL     1      20.566   0.968  53.359  1.00  0.00     0.309 C 
HETATM   18  C2  UNL     1      18.887  -0.632  53.049  1.00  0.00     0.309 C 
ENDBRANCH  15  16
ENDBRANCH  14  15
ENDBRANCH  13  14
ENDBRANCH  12  13
ENDBRANCH   1  12
BRANCH   4  19
HETATM   19  N2  UNL     1      22.896   4.207  52.406  1.00  0.00    -0.374 N 
HETATM   20  H14 UNL     1      22.639   3.985  53.371  1.00  0.00     0.161 HD
BRANCH  19  21
HETATM   21  C10 UNL     1      21.988   5.023  51.632  1.00  0.00     0.127 C 
BRANCH  21  22
HETATM   22  C11 UNL     1      20.808   4.232  51.167  1.00  0.00     0.025 C 
HETATM   23  C12 UNL     1      20.584   3.145  50.421  1.00  0.00     0.177 C 
HETATM   24  I1  UNL     1      21.680   1.691  49.317  1.00  0.00    -0.188 I 
ENDBRANCH  21  22
ENDBRANCH  19  21
ENDBRANCH   4  19
TORSDOF 8
ENDMDL
MODEL 9
REMARK VINA RESULT:      -6.1      2.908      5.525
REMARK  8 active torsions:
REMARK  status: ('A' for Active; 'I' for Inactive)
REMARK    1  A    between atoms: N1_2  and  C3_4 
REMARK    2  A    between atoms: C3_4  and  C4_5 
REMARK    3  A    between atoms: C4_5  and  C5_6 
REMARK    4  A    between atoms: C5_6  and  O1_7 
REMARK    5  A    between atoms: O1_7  and  C6_8 
REMARK    6  A    between atoms: C9_11  and  N2_12 
REMARK    7  A    between atoms: N2_12  and  C10_13 
REMARK    8  A    between atoms: C10_13  and  C11_14 
ROOT
HETATM    1  C6  UNL     1      25.037   1.632  52.442  1.00  0.00     0.108 A 
HETATM    2  C7  UNL     1      23.668   1.636  52.507  1.00  0.00     0.057 A 
HETATM    3  C8  UNL     1      22.865   0.725  53.147  1.00  0.00     0.041 A 
HETATM    4  C9  UNL     1      21.507   0.927  53.079  1.00  0.00     0.137 A 
HETATM    5  N3  UNL     1      20.798  -0.013  53.733  1.00  0.00    -0.224 NA
HETATM    6  C13 UNL     1      21.358  -1.043  54.385  1.00  0.00     0.235 A 
HETATM    7  N4  UNL     1      22.684  -1.193  54.420  1.00  0.00    -0.241 NA
HETATM    8  C14 UNL     1      23.485  -0.311  53.800  1.00  0.00     0.075 A 
HETATM    9  C15 UNL     1      24.881  -0.410  53.799  1.00  0.00     0.077 A 
HETATM   10  C16 UNL     1      25.643   0.556  53.124  1.00  0.00     0.151 A 
HETATM   11  F1  UNL     1      26.952   0.230  53.277  1.00  0.00    -0.203 F 
ENDROOT
BRANCH   1  12
HETATM   12  O1  UNL     1      26.045   2.339  51.929  1.00  0.00    -0.348 OA
BRANCH  12  13
HETATM   13  C5  UNL     1      26.538   2.602  50.713  1.00  0.00     0.177 C 
BRANCH  13  14
HETATM   14  C4  UNL     1      25.809   3.404  49.708  1.00  0.00     0.057 C 
BRANCH  14  15
HETATM   15  C3  UNL     1      25.633   4.854  49.931  1.00  0.00     0.273 C 
BRANCH  15  16
HETATM   16  N1  UNL     1      24.218   5.161  50.060  1.00  0.00     0.080 N 
HETATM   17  C1  UNL     1      23.862   6.404  49.406  1.00  0.00     0.309 C 
HETATM   18  C2  UNL     1      23.816   5.261  51.448  1.00  0.00     0.309 C 
ENDBRANCH  15  16
ENDBRANCH  14  15
ENDBRANCH  13  14
ENDBRANCH  12  13
ENDBRANCH   1  12
BRANCH   4  19
HETATM   19  N2  UNL     1      20.858   2.000  52.399  1.00  0.00    -0.374 N 
HETATM   20  H14 UNL     1      20.995   2.994  52.599  1.00  0.00     0.161 HD
BRANCH  19  21
HETATM   21  C10 UNL     1      19.937   1.640  51.346  1.00  0.00     0.127 C 
BRANCH  21  22
HETATM   22  C11 UNL     1      20.596   0.776  50.319  1.00  0.00     0.025 C 
HETATM   23  C12 UNL     1      21.342   0.946  49.223  1.00  0.00     0.177 C 
HETATM   24  I1  UNL     1      22.185   2.528  48.072  1.00  0.00    -0.188 I 
ENDBRANCH  21  22
ENDBRANCH  19  21
ENDBRANCH   4  19
TORSDOF 8
ENDMDL
