MODEL 1
REMARK VINA RESULT:      -8.0      0.000      0.000
REMARK  7 active torsions:
REMARK  status: ('A' for Active; 'I' for Inactive)
REMARK    1  A    between atoms: C2_2  and  N1_3 
REMARK    2  A    between atoms: C4_7  and  N4_8 
REMARK    3  A    between atoms: N4_8  and  C5_9 
REMARK    4  A    between atoms: C14_20  and  C15_21 
REMARK    5  A    between atoms: C15_21  and  O1_22 
REMARK    6  A    between atoms: O1_22  and  C16_23 
REMARK    7  A    between atoms: C16_23  and  C17_24 
ROOT
HETATM    1  N1  UNL     1      23.158   4.032  49.893  1.00  0.00    -0.241 N 
HETATM    2  N2  UNL     1      24.247   4.175  48.992  1.00  0.00    -0.161 NA
HETATM    3  C3  UNL     1      25.448   3.942  49.446  1.00  0.00     0.258 A 
HETATM    4  N3  UNL     1      25.691   3.559  50.787  1.00  0.00    -0.220 NA
HETATM    5  C4  UNL     1      24.785   3.400  51.685  1.00  0.00     0.158 A 
HETATM    6  C13 UNL     1      23.430   3.648  51.227  1.00  0.00     0.102 A 
HETATM    7  C14 UNL     1      22.409   3.514  52.046  1.00  0.00     0.035 C 
ENDROOT
BRANCH   5   8
HETATM    8  N4  UNL     1      25.089   3.010  53.028  1.00  0.00    -0.339 N 
HETATM    9  H5  UNL     1      24.542   3.520  53.752  1.00  0.00     0.167 HD
BRANCH   8  10
HETATM   10  C5  UNL     1      26.094   1.979  53.143  1.00  0.00     0.034 A 
HETATM   11  C6  UNL     1      27.377   2.295  53.524  1.00  0.00     0.032 A 
HETATM   12  C7  UNL     1      28.308   1.269  53.618  1.00  0.00     0.034 A 
HETATM   13  C8  UNL     1      27.879  -0.004  53.321  1.00  0.00     0.064 A 
HETATM   14  C9  UNL     1      26.587  -0.292  52.942  1.00  0.00     0.013 A 
HETATM   15  N6  UNL     1      28.599  -1.163  53.342  1.00  0.00    -0.274 N 
HETATM   16  C10 UNL     1      26.556  -1.655  52.736  1.00  0.00     0.152 A 
HETATM   17  C12 UNL     1      25.620   0.703  52.834  1.00  0.00     0.044 A 
HETATM   18  N5  UNL     1      27.798  -2.168  52.988  1.00  0.00    -0.184 NA
HETATM   19  C11 UNL     1      30.015  -1.255  53.697  1.00  0.00     0.180 C 
ENDBRANCH   8  10
ENDBRANCH   5   8
BRANCH   1  20
HETATM   20  C2  UNL     1      21.924   4.318  49.268  1.00  0.00     0.108 C 
HETATM   21  C1  UNL     1      21.652   5.046  48.172  1.00  0.00     0.032 C 
ENDBRANCH   1  20
BRANCH   7  22
HETATM   22  C15 UNL     1      20.946   3.581  52.259  1.00  0.00     0.197 C 
BRANCH  22  23
HETATM   23  O1  UNL     1      20.268   2.433  52.284  1.00  0.00    -0.385 OA
BRANCH  23  24
HETATM   24  C16 UNL     1      20.684   1.239  51.878  1.00  0.00     0.201 C 
BRANCH  24  25
HETATM   25  C17 UNL     1      20.914   0.115  52.816  1.00  0.00     0.173 C 
HETATM   26  C18 UNL     1      19.705  -0.368  53.512  1.00  0.00     0.303 C 
HETATM   27  N7  UNL     1      19.963  -1.677  54.155  1.00  0.00     0.088 N 
HETATM   28  C19 UNL     1      21.402  -1.821  54.349  1.00  0.00     0.295 C 
HETATM   29  H21 UNL     1      19.508  -1.638  55.090  1.00  0.00     0.316 HD
HETATM   30  C20 UNL     1      21.976  -0.500  54.749  1.00  0.00     0.198 C 
HETATM   31  O2  UNL     1      21.987   0.404  53.666  1.00  0.00    -0.380 OA
ENDBRANCH  24  25
ENDBRANCH  23  24
ENDBRANCH  22  23
ENDBRANCH   7  22
TORSDOF 7
ENDMDL
MODEL 2
REMARK VINA RESULT:      -7.9      2.644      5.656
REMARK  7 active torsions:
REMARK  status: ('A' for Active; 'I' for Inactive)
REMARK    1  A    between atoms: C2_2  and  N1_3 
REMARK    2  A    between atoms: C4_7  and  N4_8 
REMARK    3  A    between atoms: N4_8  and  C5_9 
REMARK    4  A    between atoms: C14_20  and  C15_21 
REMARK    5  A    between atoms: C15_21  and  O1_22 
REMARK    6  A    between atoms: O1_22  and  C16_23 
REMARK    7  A    between atoms: C16_23  and  C17_24 
ROOT
HETATM    1  N1  UNL     1      23.653   5.795  50.649  1.00  0.00    -0.241 N 
HETATM    2  N2  UNL     1      22.435   6.457  50.955  1.00  0.00    -0.161 NA
HETATM    3  C3  UNL     1      21.338   5.750  50.947  1.00  0.00     0.258 A 
HETATM    4  N3  UNL     1      21.329   4.366  50.648  1.00  0.00    -0.220 NA
HETATM    5  C4  UNL     1      22.369   3.667  50.358  1.00  0.00     0.158 A 
HETATM    6  C13 UNL     1      23.615   4.411  50.354  1.00  0.00     0.102 A 
HETATM    7  C14 UNL     1      24.754   3.812  50.080  1.00  0.00     0.035 C 
ENDROOT
BRANCH   5   8
HETATM    8  N4  UNL     1      22.301   2.268  50.064  1.00  0.00    -0.339 N 
HETATM    9  H5  UNL     1      22.273   2.050  49.047  1.00  0.00     0.167 HD
BRANCH   8  10
HETATM   10  C5  UNL     1      22.288   1.408  51.225  1.00  0.00     0.034 A 
HETATM   11  C6  UNL     1      23.450   1.149  51.913  1.00  0.00     0.032 A 
HETATM   12  C7  UNL     1      23.387   0.314  53.021  1.00  0.00     0.034 A 
HETATM   13  C8  UNL     1      22.156  -0.200  53.356  1.00  0.00     0.064 A 
HETATM   14  C9  UNL     1      21.008   0.076  52.648  1.00  0.00     0.013 A 
HETATM   15  N6  UNL     1      21.844  -1.034  54.391  1.00  0.00    -0.274 N 
HETATM   16  C10 UNL     1      20.002  -0.616  53.289  1.00  0.00     0.152 A 
HETATM   17  C12 UNL     1      21.023   0.907  51.532  1.00  0.00     0.044 A 
HETATM   18  N5  UNL     1      20.536  -1.288  54.353  1.00  0.00    -0.184 NA
HETATM   19  C11 UNL     1      22.808  -1.548  55.364  1.00  0.00     0.180 C 
ENDBRANCH   8  10
ENDBRANCH   5   8
BRANCH   1  20
HETATM   20  C2  UNL     1      24.753   6.680  50.692  1.00  0.00     0.108 C 
HETATM   21  C1  UNL     1      24.901   7.908  50.167  1.00  0.00     0.032 C 
ENDBRANCH   1  20
BRANCH   7  22
HETATM   22  C15 UNL     1      26.222   3.908  49.916  1.00  0.00     0.197 C 
BRANCH  22  23
HETATM   23  O1  UNL     1      26.989   3.251  50.786  1.00  0.00    -0.385 OA
BRANCH  23  24
HETATM   24  C16 UNL     1      26.738   2.083  51.366  1.00  0.00     0.201 C 
BRANCH  24  25
HETATM   25  C17 UNL     1      27.441   1.634  52.591  1.00  0.00     0.173 C 
HETATM   26  C18 UNL     1      26.603   1.596  53.805  1.00  0.00     0.303 C 
HETATM   27  N7  UNL     1      27.279   0.832  54.880  1.00  0.00     0.088 N 
HETATM   28  C19 UNL     1      28.712   0.817  54.604  1.00  0.00     0.295 C 
HETATM   29  H21 UNL     1      27.121   1.363  55.760  1.00  0.00     0.316 HD
HETATM   30  C20 UNL     1      29.120   2.148  54.061  1.00  0.00     0.198 C 
HETATM   31  O2  UNL     1      28.642   2.334  52.746  1.00  0.00    -0.380 OA
ENDBRANCH  24  25
ENDBRANCH  23  24
ENDBRANCH  22  23
ENDBRANCH   7  22
TORSDOF 7
ENDMDL
MODEL 3
REMARK VINA RESULT:      -7.9      0.584      1.344
REMARK  7 active torsions:
REMARK  status: ('A' for Active; 'I' for Inactive)
REMARK    1  A    between atoms: C2_2  and  N1_3 
REMARK    2  A    between atoms: C4_7  and  N4_8 
REMARK    3  A    between atoms: N4_8  and  C5_9 
REMARK    4  A    between atoms: C14_20  and  C15_21 
REMARK    5  A    between atoms: C15_21  and  O1_22 
REMARK    6  A    between atoms: O1_22  and  C16_23 
REMARK    7  A    between atoms: C16_23  and  C17_24 
ROOT
HETATM    1  N1  UNL     1      23.205   4.088  49.910  1.00  0.00    -0.241 N 
HETATM    2  N2  UNL     1      24.293   4.196  49.004  1.00  0.00    -0.161 NA
HETATM    3  C3  UNL     1      25.479   3.864  49.432  1.00  0.00     0.258 A 
HETATM    4  N3  UNL     1      25.708   3.407  50.753  1.00  0.00    -0.220 NA
HETATM    5  C4  UNL     1      24.802   3.270  51.654  1.00  0.00     0.158 A 
HETATM    6  C13 UNL     1      23.462   3.628  51.223  1.00  0.00     0.102 A 
HETATM    7  C14 UNL     1      22.442   3.528  52.048  1.00  0.00     0.035 C 
ENDROOT
BRANCH   5   8
HETATM    8  N4  UNL     1      25.091   2.802  52.975  1.00  0.00    -0.339 N 
HETATM    9  H5  UNL     1      24.622   3.345  53.730  1.00  0.00     0.167 HD
BRANCH   8  10
HETATM   10  C5  UNL     1      25.975   1.661  53.030  1.00  0.00     0.034 A 
HETATM   11  C6  UNL     1      25.542   0.424  52.612  1.00  0.00     0.032 A 
HETATM   12  C7  UNL     1      26.428  -0.644  52.687  1.00  0.00     0.034 A 
HETATM   13  C8  UNL     1      27.687  -0.387  53.178  1.00  0.00     0.064 A 
HETATM   14  C9  UNL     1      28.093   0.862  53.590  1.00  0.00     0.013 A 
HETATM   15  N6  UNL     1      28.721  -1.262  53.345  1.00  0.00    -0.274 N 
HETATM   16  C10 UNL     1      29.398   0.709  54.008  1.00  0.00     0.152 A 
HETATM   17  C12 UNL     1      27.240   1.961  53.534  1.00  0.00     0.044 A 
HETATM   18  N5  UNL     1      29.762  -0.599  53.848  1.00  0.00    -0.184 NA
HETATM   19  C11 UNL     1      28.666  -2.687  53.018  1.00  0.00     0.180 C 
ENDBRANCH   8  10
ENDBRANCH   5   8
BRANCH   1  20
HETATM   20  C2  UNL     1      21.987   4.483  49.313  1.00  0.00     0.108 C 
HETATM   21  C1  UNL     1      21.587   4.422  48.032  1.00  0.00     0.032 C 
ENDBRANCH   1  20
BRANCH   7  22
HETATM   22  C15 UNL     1      20.988   3.682  52.281  1.00  0.00     0.197 C 
BRANCH  22  23
HETATM   23  O1  UNL     1      20.274   2.580  52.507  1.00  0.00    -0.385 OA
BRANCH  23  24
HETATM   24  C16 UNL     1      20.495   1.360  52.032  1.00  0.00     0.201 C 
BRANCH  24  25
HETATM   25  C17 UNL     1      20.775   0.201  52.912  1.00  0.00     0.173 C 
HETATM   26  C18 UNL     1      19.578  -0.423  53.511  1.00  0.00     0.303 C 
HETATM   27  N7  UNL     1      19.915  -1.746  54.087  1.00  0.00     0.088 N 
HETATM   28  C19 UNL     1      21.350  -1.783  54.351  1.00  0.00     0.295 C 
HETATM   29  H21 UNL     1      19.414  -1.805  54.996  1.00  0.00     0.316 HD
HETATM   30  C20 UNL     1      21.788  -0.448  54.860  1.00  0.00     0.198 C 
HETATM   31  O2  UNL     1      21.775   0.522  53.835  1.00  0.00    -0.380 OA
ENDBRANCH  24  25
ENDBRANCH  23  24
ENDBRANCH  22  23
ENDBRANCH   7  22
TORSDOF 7
ENDMDL
MODEL 4
REMARK VINA RESULT:      -7.8      5.068      8.011
REMARK  7 active torsions:
REMARK  status: ('A' for Active; 'I' for Inactive)
REMARK    1  A    between atoms: C2_2  and  N1_3 
REMARK    2  A    between atoms: C4_7  and  N4_8 
REMARK    3  A    between atoms: N4_8  and  C5_9 
REMARK    4  A    between atoms: C14_20  and  C15_21 
REMARK    5  A    between atoms: C15_21  and  O1_22 
REMARK    6  A    between atoms: O1_22  and  C16_23 
REMARK    7  A    between atoms: C16_23  and  C17_24 
ROOT
HETATM    1  N1  UNL     1      25.913   7.011  49.917  1.00  0.00    -0.241 N 
HETATM    2  N2  UNL     1      24.816   7.458  50.699  1.00  0.00    -0.161 NA
HETATM    3  C3  UNL     1      23.987   6.559  51.156  1.00  0.00     0.258 A 
HETATM    4  N3  UNL     1      24.149   5.176  50.898  1.00  0.00    -0.220 NA
HETATM    5  C4  UNL     1      25.103   4.662  50.205  1.00  0.00     0.158 A 
HETATM    6  C13 UNL     1      26.052   5.624  49.674  1.00  0.00     0.102 A 
HETATM    7  C14 UNL     1      27.078   5.228  48.954  1.00  0.00     0.035 C 
ENDROOT
BRANCH   5   8
HETATM    8  N4  UNL     1      25.218   3.254  49.977  1.00  0.00    -0.339 N 
HETATM    9  H5  UNL     1      25.097   2.975  48.981  1.00  0.00     0.167 HD
BRANCH   8  10
HETATM   10  C5  UNL     1      25.486   2.471  51.161  1.00  0.00     0.034 A 
HETATM   11  C6  UNL     1      24.500   1.692  51.718  1.00  0.00     0.032 A 
HETATM   12  C7  UNL     1      24.805   0.959  52.859  1.00  0.00     0.034 A 
HETATM   13  C8  UNL     1      26.083   1.064  53.354  1.00  0.00     0.064 A 
HETATM   14  C9  UNL     1      27.051   1.854  52.775  1.00  0.00     0.013 A 
HETATM   15  N6  UNL     1      26.617   0.449  54.450  1.00  0.00    -0.274 N 
HETATM   16  C10 UNL     1      28.177   1.692  53.555  1.00  0.00     0.152 A 
HETATM   17  C12 UNL     1      26.792   2.605  51.633  1.00  0.00     0.044 A 
HETATM   18  N5  UNL     1      27.888   0.827  54.574  1.00  0.00    -0.184 NA
HETATM   19  C11 UNL     1      25.887  -0.470  55.324  1.00  0.00     0.180 C 
ENDBRANCH   8  10
ENDBRANCH   5   8
BRANCH   1  20
HETATM   20  C2  UNL     1      26.721   8.089  49.489  1.00  0.00     0.108 C 
HETATM   21  C1  UNL     1      27.154   9.170  50.158  1.00  0.00     0.032 C 
ENDBRANCH   1  20
BRANCH   7  22
HETATM   22  C15 UNL     1      28.296   5.583  48.190  1.00  0.00     0.197 C 
BRANCH  22  23
HETATM   23  O1  UNL     1      29.472   5.195  48.680  1.00  0.00    -0.385 OA
BRANCH  23  24
HETATM   24  C16 UNL     1      30.675   5.655  48.357  1.00  0.00     0.201 C 
BRANCH  24  25
HETATM   25  C17 UNL     1      31.836   4.762  48.130  1.00  0.00     0.173 C 
HETATM   26  C18 UNL     1      33.154   5.413  48.272  1.00  0.00     0.303 C 
HETATM   27  N7  UNL     1      34.228   4.397  48.360  1.00  0.00     0.088 N 
HETATM   28  C19 UNL     1      33.740   3.156  47.768  1.00  0.00     0.295 C 
HETATM   29  H21 UNL     1      35.014   4.751  47.777  1.00  0.00     0.316 HD
HETATM   30  C20 UNL     1      32.912   3.480  46.567  1.00  0.00     0.198 C 
HETATM   31  O2  UNL     1      31.676   4.052  46.935  1.00  0.00    -0.380 OA
ENDBRANCH  24  25
ENDBRANCH  23  24
ENDBRANCH  22  23
ENDBRANCH   7  22
TORSDOF 7
ENDMDL
MODEL 5
REMARK VINA RESULT:      -7.8      4.700      7.663
REMARK  7 active torsions:
REMARK  status: ('A' for Active; 'I' for Inactive)
REMARK    1  A    between atoms: C2_2  and  N1_3 
REMARK    2  A    between atoms: C4_7  and  N4_8 
REMARK    3  A    between atoms: N4_8  and  C5_9 
REMARK    4  A    between atoms: C14_20  and  C15_21 
REMARK    5  A    between atoms: C15_21  and  O1_22 
REMARK    6  A    between atoms: O1_22  and  C16_23 
REMARK    7  A    between atoms: C16_23  and  C17_24 
ROOT
HETATM    1  N1  UNL     1      25.264   6.708  50.222  1.00  0.00    -0.241 N 
HETATM    2  N2  UNL     1      24.225   7.079  51.116  1.00  0.00    -0.161 NA
HETATM    3  C3  UNL     1      23.515   6.127  51.656  1.00  0.00     0.258 A 
HETATM    4  N3  UNL     1      23.748   4.757  51.380  1.00  0.00    -0.220 NA
HETATM    5  C4  UNL     1      24.658   4.308  50.590  1.00  0.00     0.158 A 
HETATM    6  C13 UNL     1      25.475   5.332  49.965  1.00  0.00     0.102 A 
HETATM    7  C14 UNL     1      26.446   5.006  49.140  1.00  0.00     0.035 C 
ENDROOT
BRANCH   5   8
HETATM    8  N4  UNL     1      24.850   2.911  50.349  1.00  0.00    -0.339 N 
HETATM    9  H5  UNL     1      24.466   2.581  49.440  1.00  0.00     0.167 HD
BRANCH   8  10
HETATM   10  C5  UNL     1      25.543   2.207  51.403  1.00  0.00     0.034 A 
HETATM   11  C6  UNL     1      26.873   2.456  51.650  1.00  0.00     0.032 A 
HETATM   12  C7  UNL     1      27.497   1.752  52.672  1.00  0.00     0.034 A 
HETATM   13  C8  UNL     1      26.734   0.846  53.372  1.00  0.00     0.064 A 
HETATM   14  C9  UNL     1      25.404   0.616  53.102  1.00  0.00     0.013 A 
HETATM   15  N6  UNL     1      27.117   0.044  54.408  1.00  0.00    -0.274 N 
HETATM   16  C10 UNL     1      25.003  -0.345  54.006  1.00  0.00     0.152 A 
HETATM   17  C12 UNL     1      24.738   1.298  52.089  1.00  0.00     0.044 A 
HETATM   18  N5  UNL     1      26.068  -0.680  54.796  1.00  0.00    -0.184 NA
HETATM   19  C11 UNL     1      28.465   0.008  54.977  1.00  0.00     0.180 C 
ENDBRANCH   8  10
ENDBRANCH   5   8
BRANCH   1  20
HETATM   20  C2  UNL     1      25.943   7.837  49.713  1.00  0.00     0.108 C 
HETATM   21  C1  UNL     1      26.834   8.653  50.300  1.00  0.00     0.032 C 
ENDBRANCH   1  20
BRANCH   7  22
HETATM   22  C15 UNL     1      27.549   5.442  48.253  1.00  0.00     0.197 C 
BRANCH  22  23
HETATM   23  O1  UNL     1      28.789   5.074  48.575  1.00  0.00    -0.385 OA
BRANCH  23  24
HETATM   24  C16 UNL     1      29.922   5.693  48.268  1.00  0.00     0.201 C 
BRANCH  24  25
HETATM   25  C17 UNL     1      30.182   7.107  48.629  1.00  0.00     0.173 C 
HETATM   26  C18 UNL     1      30.141   8.052  47.495  1.00  0.00     0.303 C 
HETATM   27  N7  UNL     1      30.076   9.449  47.984  1.00  0.00     0.088 N 
HETATM   28  C19 UNL     1      30.590   9.484  49.350  1.00  0.00     0.295 C 
HETATM   29  H21 UNL     1      30.717  10.001  47.379  1.00  0.00     0.316 HD
HETATM   30  C20 UNL     1      31.753   8.552  49.458  1.00  0.00     0.198 C 
HETATM   31  O2  UNL     1      31.336   7.205  49.412  1.00  0.00    -0.380 OA
ENDBRANCH  24  25
ENDBRANCH  23  24
ENDBRANCH  22  23
ENDBRANCH   7  22
TORSDOF 7
ENDMDL
MODEL 6
REMARK VINA RESULT:      -7.5      1.900      5.074
REMARK  7 active torsions:
REMARK  status: ('A' for Active; 'I' for Inactive)
REMARK    1  A    between atoms: C2_2  and  N1_3 
REMARK    2  A    between atoms: C4_7  and  N4_8 
REMARK    3  A    between atoms: N4_8  and  C5_9 
REMARK    4  A    between atoms: C14_20  and  C15_21 
REMARK    5  A    between atoms: C15_21  and  O1_22 
REMARK    6  A    between atoms: O1_22  and  C16_23 
REMARK    7  A    between atoms: C16_23  and  C17_24 
ROOT
HETATM    1  N1  UNL     1      20.680  -0.664  53.745  1.00  0.00    -0.241 N 
HETATM    2  N2  UNL     1      21.202  -1.430  54.821  1.00  0.00    -0.161 NA
HETATM    3  C3  UNL     1      22.497  -1.463  54.974  1.00  0.00     0.258 A 
HETATM    4  N3  UNL     1      23.381  -0.769  54.113  1.00  0.00    -0.220 NA
HETATM    5  C4  UNL     1      23.021  -0.047  53.112  1.00  0.00     0.158 A 
HETATM    6  C13 UNL     1      21.586   0.020  52.900  1.00  0.00     0.102 A 
HETATM    7  C14 UNL     1      21.085   0.731  51.913  1.00  0.00     0.035 C 
ENDROOT
BRANCH   5   8
HETATM    8  N4  UNL     1      23.959   0.635  52.274  1.00  0.00    -0.339 N 
HETATM    9  H5  UNL     1      23.521   1.191  51.511  1.00  0.00     0.167 HD
BRANCH   8  10
HETATM   10  C5  UNL     1      25.344   0.437  52.635  1.00  0.00     0.034 A 
HETATM   11  C6  UNL     1      25.929  -0.800  52.503  1.00  0.00     0.032 A 
HETATM   12  C7  UNL     1      27.262  -0.941  52.866  1.00  0.00     0.034 A 
HETATM   13  C8  UNL     1      27.911   0.177  53.335  1.00  0.00     0.064 A 
HETATM   14  C9  UNL     1      27.300   1.404  53.458  1.00  0.00     0.013 A 
HETATM   15  N6  UNL     1      29.207   0.289  53.749  1.00  0.00    -0.274 N 
HETATM   16  C10 UNL     1      28.267   2.252  53.955  1.00  0.00     0.152 A 
HETATM   17  C12 UNL     1      25.967   1.593  53.107  1.00  0.00     0.044 A 
HETATM   18  N5  UNL     1      29.427   1.548  54.125  1.00  0.00    -0.184 NA
HETATM   19  C11 UNL     1      30.172  -0.811  53.766  1.00  0.00     0.180 C 
ENDBRANCH   8  10
ENDBRANCH   5   8
BRANCH   1  20
HETATM   20  C2  UNL     1      19.269  -0.723  53.699  1.00  0.00     0.108 C 
HETATM   21  C1  UNL     1      18.453  -1.704  53.281  1.00  0.00     0.032 C 
ENDBRANCH   1  20
BRANCH   7  22
HETATM   22  C15 UNL     1      19.889   1.211  51.184  1.00  0.00     0.197 C 
BRANCH  22  23
HETATM   23  O1  UNL     1      19.728   2.527  51.052  1.00  0.00    -0.385 OA
BRANCH  23  24
HETATM   24  C16 UNL     1      20.011   3.470  51.943  1.00  0.00     0.201 C 
BRANCH  24  25
HETATM   25  C17 UNL     1      21.245   4.287  51.874  1.00  0.00     0.173 C 
HETATM   26  C18 UNL     1      21.184   5.421  50.930  1.00  0.00     0.303 C 
HETATM   27  N7  UNL     1      22.306   6.358  51.168  1.00  0.00     0.088 N 
HETATM   28  C19 UNL     1      23.370   5.637  51.861  1.00  0.00     0.295 C 
HETATM   29  H21 UNL     1      22.657   6.638  50.230  1.00  0.00     0.316 HD
HETATM   30  C20 UNL     1      23.463   4.253  51.306  1.00  0.00     0.198 C 
HETATM   31  O2  UNL     1      22.364   3.465  51.707  1.00  0.00    -0.380 OA
ENDBRANCH  24  25
ENDBRANCH  23  24
ENDBRANCH  22  23
ENDBRANCH   7  22
TORSDOF 7
ENDMDL
MODEL 7
REMARK VINA RESULT:      -7.4      2.668      5.654
REMARK  7 active torsions:
REMARK  status: ('A' for Active; 'I' for Inactive)
REMARK    1  A    between atoms: C2_2  and  N1_3 
REMARK    2  A    between atoms: C4_7  and  N4_8 
REMARK    3  A    between atoms: N4_8  and  C5_9 
REMARK    4  A    between atoms: C14_20  and  C15_21 
REMARK    5  A    between atoms: C15_21  and  O1_22 
REMARK    6  A    between atoms: O1_22  and  C16_23 
REMARK    7  A    between atoms: C16_23  and  C17_24 
ROOT
HETATM    1  N1  UNL     1      21.142   0.866  51.299  1.00  0.00    -0.241 N 
HETATM    2  N2  UNL     1      20.559   0.066  52.317  1.00  0.00    -0.161 NA
HETATM    3  C3  UNL     1      21.192  -0.030  53.454  1.00  0.00     0.258 A 
HETATM    4  N3  UNL     1      22.421   0.629  53.697  1.00  0.00    -0.220 NA
HETATM    5  C4  UNL     1      23.037   1.376  52.851  1.00  0.00     0.158 A 
HETATM    6  C13 UNL     1      22.371   1.514  51.568  1.00  0.00     0.102 A 
HETATM    7  C14 UNL     1      22.893   2.256  50.616  1.00  0.00     0.035 C 
ENDROOT
BRANCH   5   8
HETATM    8  N4  UNL     1      24.280   2.019  53.151  1.00  0.00    -0.339 N 
HETATM    9  H5  UNL     1      24.200   3.047  53.298  1.00  0.00     0.167 HD
BRANCH   8  10
HETATM   10  C5  UNL     1      25.421   1.135  53.200  1.00  0.00     0.034 A 
HETATM   11  C6  UNL     1      25.322  -0.156  52.736  1.00  0.00     0.032 A 
HETATM   12  C7  UNL     1      26.446  -0.970  52.807  1.00  0.00     0.034 A 
HETATM   13  C8  UNL     1      27.589  -0.423  53.340  1.00  0.00     0.064 A 
HETATM   14  C9  UNL     1      27.659   0.874  53.798  1.00  0.00     0.013 A 
HETATM   15  N6  UNL     1      28.806  -1.016  53.513  1.00  0.00    -0.274 N 
HETATM   16  C10 UNL     1      28.952   1.039  54.248  1.00  0.00     0.152 A 
HETATM   17  C12 UNL     1      26.560   1.725  53.747  1.00  0.00     0.044 A 
HETATM   18  N5  UNL     1      29.636  -0.130  54.063  1.00  0.00    -0.184 NA
HETATM   19  C11 UNL     1      29.117  -2.397  53.146  1.00  0.00     0.180 C 
ENDBRANCH   8  10
ENDBRANCH   5   8
BRANCH   1  20
HETATM   20  C2  UNL     1      20.353   0.875  50.127  1.00  0.00     0.108 C 
HETATM   21  C1  UNL     1      19.029   1.038  49.972  1.00  0.00     0.032 C 
ENDBRANCH   1  20
BRANCH   7  22
HETATM   22  C15 UNL     1      22.795   2.799  49.242  1.00  0.00     0.197 C 
BRANCH  22  23
HETATM   23  O1  UNL     1      23.384   3.968  48.992  1.00  0.00    -0.385 OA
BRANCH  23  24
HETATM   24  C16 UNL     1      23.678   4.929  49.860  1.00  0.00     0.201 C 
BRANCH  24  25
HETATM   25  C17 UNL     1      24.815   5.858  49.666  1.00  0.00     0.173 C 
HETATM   26  C18 UNL     1      24.920   6.927  50.679  1.00  0.00     0.303 C 
HETATM   27  N7  UNL     1      26.245   7.587  50.603  1.00  0.00     0.088 N 
HETATM   28  C19 UNL     1      26.800   7.356  49.274  1.00  0.00     0.295 C 
HETATM   29  H21 UNL     1      26.070   8.607  50.712  1.00  0.00     0.316 HD
HETATM   30  C20 UNL     1      25.702   7.437  48.264  1.00  0.00     0.198 C 
HETATM   31  O2  UNL     1      24.847   6.318  48.345  1.00  0.00    -0.380 OA
ENDBRANCH  24  25
ENDBRANCH  23  24
ENDBRANCH  22  23
ENDBRANCH   7  22
TORSDOF 7
ENDMDL
MODEL 8
REMARK VINA RESULT:      -7.4      2.773      5.311
REMARK  7 active torsions:
REMARK  status: ('A' for Active; 'I' for Inactive)
REMARK    1  A    between atoms: C2_2  and  N1_3 
REMARK    2  A    between atoms: C4_7  and  N4_8 
REMARK    3  A    between atoms: N4_8  and  C5_9 
REMARK    4  A    between atoms: C14_20  and  C15_21 
REMARK    5  A    between atoms: C15_21  and  O1_22 
REMARK    6  A    between atoms: O1_22  and  C16_23 
REMARK    7  A    between atoms: C16_23  and  C17_24 
ROOT
HETATM    1  N1  UNL     1      23.097   2.691  50.099  1.00  0.00    -0.241 N 
HETATM    2  N2  UNL     1      21.844   2.237  50.587  1.00  0.00    -0.161 NA
HETATM    3  C3  UNL     1      21.752   1.950  51.857  1.00  0.00     0.258 A 
HETATM    4  N3  UNL     1      22.847   2.077  52.745  1.00  0.00    -0.220 NA
HETATM    5  C4  UNL     1      24.023   2.477  52.413  1.00  0.00     0.158 A 
HETATM    6  C13 UNL     1      24.175   2.809  51.008  1.00  0.00     0.102 A 
HETATM    7  C14 UNL     1      25.327   3.237  50.540  1.00  0.00     0.035 C 
ENDROOT
BRANCH   5   8
HETATM    8  N4  UNL     1      25.095   2.588  53.355  1.00  0.00    -0.339 N 
HETATM    9  H5  UNL     1      25.062   3.451  53.936  1.00  0.00     0.167 HD
BRANCH   8  10
HETATM   10  C5  UNL     1      26.028   1.485  53.338  1.00  0.00     0.034 A 
HETATM   11  C6  UNL     1      25.586   0.201  53.125  1.00  0.00     0.032 A 
HETATM   12  C7  UNL     1      26.521  -0.827  53.120  1.00  0.00     0.034 A 
HETATM   13  C8  UNL     1      27.836  -0.485  53.331  1.00  0.00     0.064 A 
HETATM   14  C9  UNL     1      28.251   0.811  53.542  1.00  0.00     0.013 A 
HETATM   15  N6  UNL     1      28.925  -1.306  53.370  1.00  0.00    -0.274 N 
HETATM   16  C10 UNL     1      29.618   0.740  53.708  1.00  0.00     0.152 A 
HETATM   17  C12 UNL     1      27.351   1.872  53.555  1.00  0.00     0.044 A 
HETATM   18  N5  UNL     1      30.009  -0.566  53.598  1.00  0.00    -0.184 NA
HETATM   19  C11 UNL     1      28.878  -2.757  53.189  1.00  0.00     0.180 C 
ENDBRANCH   8  10
ENDBRANCH   5   8
BRANCH   1  20
HETATM   20  C2  UNL     1      23.051   2.958  48.712  1.00  0.00     0.108 C 
HETATM   21  C1  UNL     1      22.578   4.026  48.048  1.00  0.00     0.032 C 
ENDBRANCH   1  20
BRANCH   7  22
HETATM   22  C15 UNL     1      26.122   3.710  49.384  1.00  0.00     0.197 C 
BRANCH  22  23
HETATM   23  O1  UNL     1      25.957   4.972  48.990  1.00  0.00    -0.385 OA
BRANCH  23  24
HETATM   24  C16 UNL     1      25.858   6.053  49.755  1.00  0.00     0.201 C 
BRANCH  24  25
HETATM   25  C17 UNL     1      24.651   6.913  49.768  1.00  0.00     0.173 C 
HETATM   26  C18 UNL     1      23.595   6.482  50.705  1.00  0.00     0.303 C 
HETATM   27  N7  UNL     1      22.597   7.560  50.895  1.00  0.00     0.088 N 
HETATM   28  C19 UNL     1      22.666   8.460  49.748  1.00  0.00     0.295 C 
HETATM   29  H21 UNL     1      21.664   7.099  50.893  1.00  0.00     0.316 HD
HETATM   30  C20 UNL     1      22.890   7.657  48.508  1.00  0.00     0.198 C 
HETATM   31  O2  UNL     1      24.201   7.138  48.463  1.00  0.00    -0.380 OA
ENDBRANCH  24  25
ENDBRANCH  23  24
ENDBRANCH  22  23
ENDBRANCH   7  22
TORSDOF 7
ENDMDL
MODEL 9
REMARK VINA RESULT:      -7.3      4.538      8.150
REMARK  7 active torsions:
REMARK  status: ('A' for Active; 'I' for Inactive)
REMARK    1  A    between atoms: C2_2  and  N1_3 
REMARK    2  A    between atoms: C4_7  and  N4_8 
REMARK    3  A    between atoms: N4_8  and  C5_9 
REMARK    4  A    between atoms: C14_20  and  C15_21 
REMARK    5  A    between atoms: C15_21  and  O1_22 
REMARK    6  A    between atoms: O1_22  and  C16_23 
REMARK    7  A    between atoms: C16_23  and  C17_24 
ROOT
HETATM    1  N1  UNL     1      23.507   4.725  49.917  1.00  0.00    -0.241 N 
HETATM    2  N2  UNL     1      22.353   5.551  49.959  1.00  0.00    -0.161 NA
HETATM    3  C3  UNL     1      22.518   6.818  50.221  1.00  0.00     0.258 A 
HETATM    4  N3  UNL     1      23.795   7.382  50.462  1.00  0.00    -0.220 NA
HETATM    5  C4  UNL     1      24.904   6.732  50.450  1.00  0.00     0.158 A 
HETATM    6  C13 UNL     1      24.770   5.315  50.161  1.00  0.00     0.102 A 
HETATM    7  C14 UNL     1      25.829   4.537  50.113  1.00  0.00     0.035 C 
ENDROOT
BRANCH   5   8
HETATM    8  N4  UNL     1      26.167   7.355  50.700  1.00  0.00    -0.339 N 
HETATM    9  H5  UNL     1      26.559   7.156  51.644  1.00  0.00     0.167 HD
BRANCH   8  10
HETATM   10  C5  UNL     1      26.677   8.144  49.603  1.00  0.00     0.034 A 
HETATM   11  C6  UNL     1      26.556   7.698  48.308  1.00  0.00     0.032 A 
HETATM   12  C7  UNL     1      27.065   8.492  47.287  1.00  0.00     0.034 A 
HETATM   13  C8  UNL     1      27.659   9.678  47.646  1.00  0.00     0.064 A 
HETATM   14  C9  UNL     1      27.768  10.100  48.952  1.00  0.00     0.013 A 
HETATM   15  N6  UNL     1      28.226  10.617  46.833  1.00  0.00    -0.274 N 
HETATM   16  C10 UNL     1      28.415  11.317  48.896  1.00  0.00     0.152 A 
HETATM   17  C12 UNL     1      27.274   9.339  50.007  1.00  0.00     0.044 A 
HETATM   18  N5  UNL     1      28.685  11.613  47.589  1.00  0.00    -0.184 NA
HETATM   19  C11 UNL     1      28.303  10.517  45.375  1.00  0.00     0.180 C 
ENDBRANCH   8  10
ENDBRANCH   5   8
BRANCH   1  20
HETATM   20  C2  UNL     1      23.178   3.382  49.627  1.00  0.00     0.108 C 
HETATM   21  C1  UNL     1      22.560   2.850  48.560  1.00  0.00     0.032 C 
ENDBRANCH   1  20
BRANCH   7  22
HETATM   22  C15 UNL     1      26.393   3.185  49.898  1.00  0.00     0.197 C 
BRANCH  22  23
HETATM   23  O1  UNL     1      27.040   2.612  50.912  1.00  0.00    -0.385 OA
BRANCH  23  24
HETATM   24  C16 UNL     1      26.520   2.127  52.033  1.00  0.00     0.201 C 
BRANCH  24  25
HETATM   25  C17 UNL     1      27.347   1.487  53.084  1.00  0.00     0.173 C 
HETATM   26  C18 UNL     1      28.539   2.260  53.488  1.00  0.00     0.303 C 
HETATM   27  N7  UNL     1      29.105   1.722  54.747  1.00  0.00     0.088 N 
HETATM   28  C19 UNL     1      28.659   0.341  54.900  1.00  0.00     0.295 C 
HETATM   29  H21 UNL     1      30.138   1.722  54.627  1.00  0.00     0.316 HD
HETATM   30  C20 UNL     1      28.663  -0.325  53.563  1.00  0.00     0.198 C 
HETATM   31  O2  UNL     1      27.616   0.157  52.747  1.00  0.00    -0.380 OA
ENDBRANCH  24  25
ENDBRANCH  23  24
ENDBRANCH  22  23
ENDBRANCH   7  22
TORSDOF 7
ENDMDL
