MODEL 1
REMARK VINA RESULT:      -7.9      0.000      0.000
REMARK  1 active torsions:
REMARK  status: ('A' for Active; 'I' for Inactive)
REMARK    1  A    between atoms: C8_10  and  N2_11 
ROOT
HETATM    1 CL1  UNL     1      29.728  -1.483  53.668  1.00  0.00    -0.088 Cl
HETATM    2  C1  UNL     1      28.326  -0.422  53.461  1.00  0.00     0.023 C 
HETATM    3  C2  UNL     1      27.083  -0.056  53.295  1.00  0.00     0.085 C 
HETATM    4  C3  UNL     1      25.782  -0.675  53.147  1.00  0.00     0.259 C 
HETATM    5  N1  UNL     1      24.638  -0.185  53.027  1.00  0.00    -0.413 NA
HETATM    6  C4  UNL     1      24.070   1.095  52.982  1.00  0.00     0.144 A 
HETATM    7  C5  UNL     1      25.165   2.188  53.117  1.00  0.00     0.078 A 
HETATM    8  C6  UNL     1      24.585   3.276  53.536  1.00  0.00     0.001 A 
HETATM    9  C7  UNL     1      24.237   2.203  52.613  1.00  0.00     0.070 A 
HETATM   10  C8  UNL     1      23.413   1.542  51.744  1.00  0.00     0.034 A 
HETATM   11  C14 UNL     1      25.628   2.038  51.910  1.00  0.00     0.162 A 
HETATM   12  N3  UNL     1      26.533   2.091  52.989  1.00  0.00    -0.372 N 
HETATM   13  C15 UNL     1      27.919   2.018  53.170  1.00  0.00     0.088 C 
HETATM   14  C16 UNL     1      28.683   0.990  53.365  1.00  0.00     0.037 C 
ENDROOT
BRANCH  10  15
HETATM   15  N2  UNL     1      22.681   1.726  50.545  1.00  0.00    -0.336 N 
HETATM   16  C9  UNL     1      21.769   0.710  50.192  1.00  0.00     0.092 A 
HETATM   17  C10 UNL     1      21.134   0.972  49.068  1.00  0.00    -0.004 A 
HETATM   18  C11 UNL     1      21.307   2.155  48.235  1.00  0.00     0.076 A 
HETATM   19  C12 UNL     1      22.290   3.102  48.748  1.00  0.00     0.008 A 
HETATM   20 BR1  UNL     1      22.564   4.681  47.695  1.00  0.00    -0.054 Br
HETATM   21  C13 UNL     1      22.970   2.934  49.852  1.00  0.00     0.111 A 
ENDBRANCH  10  15
TORSDOF 1
ENDMDL
MODEL 2
REMARK VINA RESULT:      -7.4      2.848      3.350
REMARK  1 active torsions:
REMARK  status: ('A' for Active; 'I' for Inactive)
REMARK    1  A    between atoms: C8_10  and  N2_11 
ROOT
HETATM    1 CL1  UNL     1      28.223  -1.617  53.057  1.00  0.00    -0.088 Cl
HETATM    2  C1  UNL     1      26.805  -0.567  52.911  1.00  0.00     0.023 C 
HETATM    3  C2  UNL     1      25.587  -0.124  53.081  1.00  0.00     0.085 C 
HETATM    4  C3  UNL     1      24.380  -0.516  53.778  1.00  0.00     0.259 C 
HETATM    5  N1  UNL     1      23.265   0.039  53.883  1.00  0.00    -0.413 NA
HETATM    6  C4  UNL     1      22.659   1.218  53.431  1.00  0.00     0.144 A 
HETATM    7  C5  UNL     1      23.648   2.048  52.567  1.00  0.00     0.078 A 
HETATM    8  C6  UNL     1      23.236   3.283  52.575  1.00  0.00     0.001 A 
HETATM    9  C7  UNL     1      22.594   1.974  52.528  1.00  0.00     0.070 A 
HETATM   10  C8  UNL     1      21.522   1.127  52.502  1.00  0.00     0.034 A 
HETATM   11  C14 UNL     1      23.573   1.270  51.526  1.00  0.00     0.162 A 
HETATM   12  N3  UNL     1      24.841   1.679  51.987  1.00  0.00    -0.372 N 
HETATM   13  C15 UNL     1      26.178   1.473  51.627  1.00  0.00     0.088 C 
HETATM   14  C16 UNL     1      27.010   0.550  51.995  1.00  0.00     0.037 C 
ENDROOT
BRANCH  10  15
HETATM   15  N2  UNL     1      20.348   0.838  51.763  1.00  0.00    -0.336 N 
HETATM   16  C9  UNL     1      20.275   1.353  50.452  1.00  0.00     0.092 A 
HETATM   17  C10 UNL     1      19.152   1.030  49.846  1.00  0.00    -0.004 A 
HETATM   18  C11 UNL     1      18.067   0.234  50.406  1.00  0.00     0.076 A 
HETATM   19  C12 UNL     1      18.308  -0.217  51.771  1.00  0.00     0.008 A 
HETATM   20 BR1  UNL     1      16.915  -1.269  52.566  1.00  0.00    -0.054 Br
HETATM   21  C13 UNL     1      19.388   0.050  52.457  1.00  0.00     0.111 A 
ENDBRANCH  10  15
TORSDOF 1
ENDMDL
MODEL 3
REMARK VINA RESULT:      -7.3      4.394      7.321
REMARK  1 active torsions:
REMARK  status: ('A' for Active; 'I' for Inactive)
REMARK    1  A    between atoms: C8_10  and  N2_11 
ROOT
HETATM    1 CL1  UNL     1      16.645   3.630  49.031  1.00  0.00    -0.088 Cl
HETATM    2  C1  UNL     1      17.658   2.660  50.113  1.00  0.00     0.023 C 
HETATM    3  C2  UNL     1      18.554   2.373  51.019  1.00  0.00     0.085 C 
HETATM    4  C3  UNL     1      19.492   3.070  51.874  1.00  0.00     0.259 C 
HETATM    5  N1  UNL     1      20.287   2.657  52.744  1.00  0.00    -0.413 NA
HETATM    6  C4  UNL     1      20.649   1.422  53.300  1.00  0.00     0.144 A 
HETATM    7  C5  UNL     1      19.839   0.268  52.650  1.00  0.00     0.078 A 
HETATM    8  C6  UNL     1      19.849  -0.735  53.480  1.00  0.00     0.001 A 
HETATM    9  C7  UNL     1      20.811   0.278  53.065  1.00  0.00     0.070 A 
HETATM   10  C8  UNL     1      22.017   0.921  53.098  1.00  0.00     0.034 A 
HETATM   11  C14 UNL     1      20.498   0.280  51.528  1.00  0.00     0.162 A 
HETATM   12  N3  UNL     1      19.090   0.254  51.495  1.00  0.00    -0.372 N 
HETATM   13  C15 UNL     1      18.087   0.240  50.518  1.00  0.00     0.088 C 
HETATM   14  C16 UNL     1      17.481   1.223  49.930  1.00  0.00     0.037 C 
ENDROOT
BRANCH  10  15
HETATM   15  N2  UNL     1      23.407   0.690  52.949  1.00  0.00    -0.336 N 
HETATM   16  C9  UNL     1      23.944  -0.430  53.617  1.00  0.00     0.092 A 
HETATM   17  C10 UNL     1      25.238  -0.564  53.416  1.00  0.00    -0.004 A 
HETATM   18  C11 UNL     1      26.080   0.308  52.607  1.00  0.00     0.076 A 
HETATM   19  C12 UNL     1      25.364   1.416  51.989  1.00  0.00     0.008 A 
HETATM   20 BR1  UNL     1      26.417   2.602  50.912  1.00  0.00    -0.054 Br
HETATM   21  C13 UNL     1      24.082   1.635  52.127  1.00  0.00     0.111 A 
ENDBRANCH  10  15
TORSDOF 1
ENDMDL
MODEL 4
REMARK VINA RESULT:      -7.3      3.958      5.967
REMARK  1 active torsions:
REMARK  status: ('A' for Active; 'I' for Inactive)
REMARK    1  A    between atoms: C8_10  and  N2_11 
ROOT
HETATM    1 CL1  UNL     1      17.548   1.727  51.529  1.00  0.00    -0.088 Cl
HETATM    2  C1  UNL     1      19.317   1.792  51.609  1.00  0.00     0.023 C 
HETATM    3  C2  UNL     1      20.515   2.276  51.798  1.00  0.00     0.085 C 
HETATM    4  C3  UNL     1      21.129   3.525  52.198  1.00  0.00     0.259 C 
HETATM    5  N1  UNL     1      22.324   3.843  52.375  1.00  0.00    -0.413 NA
HETATM    6  C4  UNL     1      23.576   3.219  52.293  1.00  0.00     0.144 A 
HETATM    7  C5  UNL     1      23.422   1.734  51.864  1.00  0.00     0.078 A 
HETATM    8  C6  UNL     1      24.491   1.100  52.250  1.00  0.00     0.001 A 
HETATM    9  C7  UNL     1      24.208   2.420  51.699  1.00  0.00     0.070 A 
HETATM   10  C8  UNL     1      24.539   3.678  51.280  1.00  0.00     0.034 A 
HETATM   11  C14 UNL     1      23.152   1.999  50.619  1.00  0.00     0.162 A 
HETATM   12  N3  UNL     1      22.342   1.079  51.314  1.00  0.00    -0.372 N 
HETATM   13  C15 UNL     1      21.219   0.290  51.039  1.00  0.00     0.088 C 
HETATM   14  C16 UNL     1      19.958   0.564  51.152  1.00  0.00     0.037 C 
ENDROOT
BRANCH  10  15
HETATM   15  N2  UNL     1      25.386   4.365  50.376  1.00  0.00    -0.336 N 
HETATM   16  C9  UNL     1      26.446   3.627  49.808  1.00  0.00     0.092 A 
HETATM   17  C10 UNL     1      27.173   4.347  48.979  1.00  0.00    -0.004 A 
HETATM   18  C11 UNL     1      26.963   5.750  48.643  1.00  0.00     0.076 A 
HETATM   19  C12 UNL     1      25.825   6.358  49.321  1.00  0.00     0.008 A 
HETATM   20 BR1  UNL     1      25.497   8.204  48.921  1.00  0.00    -0.054 Br
HETATM   21  C13 UNL     1      25.043   5.728  50.159  1.00  0.00     0.111 A 
ENDBRANCH  10  15
TORSDOF 1
ENDMDL
MODEL 5
REMARK VINA RESULT:      -7.3      4.228      6.063
REMARK  1 active torsions:
REMARK  status: ('A' for Active; 'I' for Inactive)
REMARK    1  A    between atoms: C8_10  and  N2_11 
ROOT
HETATM    1 CL1  UNL     1      26.674   9.118  50.225  1.00  0.00    -0.088 Cl
HETATM    2  C1  UNL     1      25.902   7.527  50.127  1.00  0.00     0.023 C 
HETATM    3  C2  UNL     1      25.127   6.522  50.438  1.00  0.00     0.085 C 
HETATM    4  C3  UNL     1      24.160   6.175  51.458  1.00  0.00     0.259 C 
HETATM    5  N1  UNL     1      23.448   5.160  51.616  1.00  0.00    -0.413 NA
HETATM    6  C4  UNL     1      23.228   3.947  50.950  1.00  0.00     0.144 A 
HETATM    7  C5  UNL     1      24.115   3.849  49.678  1.00  0.00     0.078 A 
HETATM    8  C6  UNL     1      23.560   2.986  48.877  1.00  0.00     0.001 A 
HETATM    9  C7  UNL     1      23.745   3.095  50.319  1.00  0.00     0.070 A 
HETATM   10  C8  UNL     1      23.597   2.688  51.616  1.00  0.00     0.034 A 
HETATM   11  C14 UNL     1      25.222   3.624  50.325  1.00  0.00     0.162 A 
HETATM   12  N3  UNL     1      25.210   4.595  49.304  1.00  0.00    -0.372 N 
HETATM   13  C15 UNL     1      26.124   5.482  48.722  1.00  0.00     0.088 C 
HETATM   14  C16 UNL     1      26.428   6.699  49.047  1.00  0.00     0.037 C 
ENDROOT
BRANCH  10  15
HETATM   15  N2  UNL     1      23.847   1.590  52.475  1.00  0.00    -0.336 N 
HETATM   16  C9  UNL     1      25.182   1.392  52.886  1.00  0.00     0.092 A 
HETATM   17  C10 UNL     1      25.314   0.353  53.684  1.00  0.00    -0.004 A 
HETATM   18  C11 UNL     1      24.247  -0.534  54.130  1.00  0.00     0.076 A 
HETATM   19  C12 UNL     1      22.931  -0.185  53.609  1.00  0.00     0.008 A 
HETATM   20 BR1  UNL     1      21.483  -1.315  54.159  1.00  0.00    -0.054 Br
HETATM   21  C13 UNL     1      22.696   0.826  52.814  1.00  0.00     0.111 A 
ENDBRANCH  10  15
TORSDOF 1
ENDMDL
MODEL 6
REMARK VINA RESULT:      -7.3      3.622      6.676
REMARK  1 active torsions:
REMARK  status: ('A' for Active; 'I' for Inactive)
REMARK    1  A    between atoms: C8_10  and  N2_11 
ROOT
HETATM    1 CL1  UNL     1      21.406   4.352  47.778  1.00  0.00    -0.088 Cl
HETATM    2  C1  UNL     1      22.054   3.495  49.185  1.00  0.00     0.023 C 
HETATM    3  C2  UNL     1      22.731   3.279  50.282  1.00  0.00     0.085 C 
HETATM    4  C3  UNL     1      23.623   4.004  51.164  1.00  0.00     0.259 C 
HETATM    5  N1  UNL     1      24.186   3.672  52.229  1.00  0.00    -0.413 NA
HETATM    6  C4  UNL     1      24.242   2.538  53.051  1.00  0.00     0.144 A 
HETATM    7  C5  UNL     1      23.367   1.395  52.470  1.00  0.00     0.078 A 
HETATM    8  C6  UNL     1      23.074   0.587  53.449  1.00  0.00     0.001 A 
HETATM    9  C7  UNL     1      24.247   1.359  53.053  1.00  0.00     0.070 A 
HETATM   10  C8  UNL     1      25.522   1.828  53.203  1.00  0.00     0.034 A 
HETATM   11  C14 UNL     1      24.191   1.093  51.509  1.00  0.00     0.162 A 
HETATM   12  N3  UNL     1      22.822   1.248  51.214  1.00  0.00    -0.372 N 
HETATM   13  C15 UNL     1      22.002   1.171  50.081  1.00  0.00     0.088 C 
HETATM   14  C16 UNL     1      21.672   2.087  49.226  1.00  0.00     0.037 C 
ENDROOT
BRANCH  10  15
HETATM   15  N2  UNL     1      26.858   1.389  53.364  1.00  0.00    -0.336 N 
HETATM   16  C9  UNL     1      27.823   2.374  53.662  1.00  0.00     0.092 A 
HETATM   17  C10 UNL     1      29.032   1.870  53.798  1.00  0.00    -0.004 A 
HETATM   18  C11 UNL     1      29.401   0.467  53.668  1.00  0.00     0.076 A 
HETATM   19  C12 UNL     1      28.282  -0.414  53.357  1.00  0.00     0.008 A 
HETATM   20 BR1  UNL     1      28.704  -2.275  53.171  1.00  0.00    -0.054 Br
HETATM   21  C13 UNL     1      27.048  -0.012  53.204  1.00  0.00     0.111 A 
ENDBRANCH  10  15
TORSDOF 1
ENDMDL
MODEL 7
REMARK VINA RESULT:      -7.1      4.396      6.603
REMARK  1 active torsions:
REMARK  status: ('A' for Active; 'I' for Inactive)
REMARK    1  A    between atoms: C8_10  and  N2_11 
ROOT
HETATM    1 CL1  UNL     1      20.426   8.493  50.073  1.00  0.00    -0.088 Cl
HETATM    2  C1  UNL     1      21.626   7.190  50.102  1.00  0.00     0.023 C 
HETATM    3  C2  UNL     1      22.124   5.984  50.034  1.00  0.00     0.085 C 
HETATM    4  C3  UNL     1      21.660   4.631  49.804  1.00  0.00     0.259 C 
HETATM    5  N1  UNL     1      22.273   3.545  49.730  1.00  0.00    -0.413 NA
HETATM    6  C4  UNL     1      23.602   3.108  49.818  1.00  0.00     0.144 A 
HETATM    7  C5  UNL     1      24.557   4.304  50.079  1.00  0.00     0.078 A 
HETATM    8  C6  UNL     1      25.748   3.948  49.690  1.00  0.00     0.001 A 
HETATM    9  C7  UNL     1      24.633   3.289  50.360  1.00  0.00     0.070 A 
HETATM   10  C8  UNL     1      23.991   2.223  50.927  1.00  0.00     0.034 A 
HETATM   11  C14 UNL     1      24.222   4.452  51.328  1.00  0.00     0.162 A 
HETATM   12  N3  UNL     1      24.277   5.587  50.494  1.00  0.00    -0.372 N 
HETATM   13  C15 UNL     1      24.052   6.963  50.619  1.00  0.00     0.088 C 
HETATM   14  C16 UNL     1      22.963   7.648  50.464  1.00  0.00     0.037 C 
ENDROOT
BRANCH  10  15
HETATM   15  N2  UNL     1      24.134   1.250  51.946  1.00  0.00    -0.336 N 
HETATM   16  C9  UNL     1      25.442   0.795  52.216  1.00  0.00     0.092 A 
HETATM   17  C10 UNL     1      25.474  -0.103  53.179  1.00  0.00    -0.004 A 
HETATM   18  C11 UNL     1      24.329  -0.613  53.921  1.00  0.00     0.076 A 
HETATM   19  C12 UNL     1      23.054  -0.037  53.513  1.00  0.00     0.008 A 
HETATM   20 BR1  UNL     1      21.507  -0.670  54.452  1.00  0.00    -0.054 Br
HETATM   21  C13 UNL     1      22.917   0.859  52.570  1.00  0.00     0.111 A 
ENDBRANCH  10  15
TORSDOF 1
ENDMDL
MODEL 8
REMARK VINA RESULT:      -7.0      3.801      6.496
REMARK  1 active torsions:
REMARK  status: ('A' for Active; 'I' for Inactive)
REMARK    1  A    between atoms: C8_10  and  N2_11 
ROOT
HETATM    1 CL1  UNL     1      22.763   7.834  49.273  1.00  0.00    -0.088 Cl
HETATM    2  C1  UNL     1      22.837   6.165  49.861  1.00  0.00     0.023 C 
HETATM    3  C2  UNL     1      23.007   5.164  50.683  1.00  0.00     0.085 C 
HETATM    4  C3  UNL     1      23.368   4.950  52.070  1.00  0.00     0.259 C 
HETATM    5  N1  UNL     1      23.460   3.907  52.752  1.00  0.00    -0.413 NA
HETATM    6  C4  UNL     1      23.274   2.532  52.555  1.00  0.00     0.144 A 
HETATM    7  C5  UNL     1      22.841   2.240  51.092  1.00  0.00     0.078 A 
HETATM    8  C6  UNL     1      22.243   1.083  51.083  1.00  0.00     0.001 A 
HETATM    9  C7  UNL     1      23.392   1.654  51.777  1.00  0.00     0.070 A 
HETATM   10  C8  UNL     1      24.433   1.632  52.663  1.00  0.00     0.034 A 
HETATM   11  C14 UNL     1      24.019   2.447  50.578  1.00  0.00     0.162 A 
HETATM   12  N3  UNL     1      22.893   3.045  49.976  1.00  0.00    -0.372 N 
HETATM   13  C15 UNL     1      22.639   3.883  48.884  1.00  0.00     0.088 C 
HETATM   14  C16 UNL     1      22.612   5.176  48.812  1.00  0.00     0.037 C 
ENDROOT
BRANCH  10  15
HETATM   15  N2  UNL     1      25.613   0.915  52.977  1.00  0.00    -0.336 N 
HETATM   16  C9  UNL     1      25.573  -0.485  52.814  1.00  0.00     0.092 A 
HETATM   17  C10 UNL     1      26.714  -1.062  53.127  1.00  0.00    -0.004 A 
HETATM   18  C11 UNL     1      27.921  -0.391  53.593  1.00  0.00     0.076 A 
HETATM   19  C12 UNL     1      27.788   1.056  53.705  1.00  0.00     0.008 A 
HETATM   20 BR1  UNL     1      29.342   1.999  54.316  1.00  0.00    -0.054 Br
HETATM   21  C13 UNL     1      26.699   1.722  53.419  1.00  0.00     0.111 A 
ENDBRANCH  10  15
TORSDOF 1
ENDMDL
MODEL 9
REMARK VINA RESULT:      -6.9      4.074      5.682
REMARK  1 active torsions:
REMARK  status: ('A' for Active; 'I' for Inactive)
REMARK    1  A    between atoms: C8_10  and  N2_11 
ROOT
HETATM    1 CL1  UNL     1      23.171   7.196  47.922  1.00  0.00    -0.088 Cl
HETATM    2  C1  UNL     1      23.366   5.942  49.158  1.00  0.00     0.023 C 
HETATM    3  C2  UNL     1      23.422   4.753  49.696  1.00  0.00     0.085 C 
HETATM    4  C3  UNL     1      23.271   3.371  49.288  1.00  0.00     0.259 C 
HETATM    5  N1  UNL     1      23.389   2.301  49.922  1.00  0.00    -0.413 NA
HETATM    6  C4  UNL     1      23.705   1.914  51.232  1.00  0.00     0.144 A 
HETATM    7  C5  UNL     1      23.976   3.157  52.122  1.00  0.00     0.078 A 
HETATM    8  C6  UNL     1      24.697   2.766  53.134  1.00  0.00     0.001 A 
HETATM    9  C7  UNL     1      23.590   2.205  52.369  1.00  0.00     0.070 A 
HETATM   10  C8  UNL     1      22.682   1.236  52.043  1.00  0.00     0.034 A 
HETATM   11  C14 UNL     1      22.726   3.505  52.221  1.00  0.00     0.162 A 
HETATM   12  N3  UNL     1      23.687   4.485  51.900  1.00  0.00    -0.372 N 
HETATM   13  C15 UNL     1      23.698   5.857  51.624  1.00  0.00     0.088 C 
HETATM   14  C16 UNL     1      23.566   6.483  50.497  1.00  0.00     0.037 C 
ENDROOT
BRANCH  10  15
HETATM   15  N2  UNL     1      21.644   0.450  52.599  1.00  0.00    -0.336 N 
HETATM   16  C9  UNL     1      21.965  -0.323  53.734  1.00  0.00     0.092 A 
HETATM   17  C10 UNL     1      20.937  -1.014  54.181  1.00  0.00    -0.004 A 
HETATM   18  C11 UNL     1      19.594  -1.025  53.616  1.00  0.00     0.076 A 
HETATM   19  C12 UNL     1      19.437  -0.170  52.446  1.00  0.00     0.008 A 
HETATM   20 BR1  UNL     1      17.691  -0.142  51.654  1.00  0.00    -0.054 Br
HETATM   21  C13 UNL     1      20.394   0.554  51.927  1.00  0.00     0.111 A 
ENDBRANCH  10  15
TORSDOF 1
ENDMDL
