MODEL 1
REMARK VINA RESULT:      -7.3      0.000      0.000
REMARK  9 active torsions:
REMARK  status: ('A' for Active; 'I' for Inactive)
REMARK    1  A    between atoms: C2_2  and  N1_3 
REMARK    2  A    between atoms: N1_3  and  C3_4 
REMARK    3  A    between atoms: C3_4  and  C4_5 
REMARK    4  A    between atoms: C4_5  and  C5_6 
REMARK    5  A    between atoms: N3_8  and  C6_9 
REMARK    6  A    between atoms: C6_9  and  C7_10 
REMARK    7  A    between atoms: C7_10  and  O1_11 
REMARK    8  A    between atoms: C9_13  and  C10_14 
REMARK    9  A    between atoms: C18_22  and  N4_23 
ROOT
HETATM    1  C5  UNL     1      25.177   0.079  52.936  1.00  0.00     0.069 A 
HETATM    2  N2  UNL     1      24.214  -0.497  53.674  1.00  0.00    -0.176 NA
HETATM    3  N3  UNL     1      23.078   0.147  53.603  1.00  0.00    -0.278 N 
HETATM    4  C8  UNL     1      23.270   1.198  52.787  1.00  0.00     0.126 A 
HETATM    5  C9  UNL     1      24.600   1.181  52.345  1.00  0.00     0.018 A 
ENDROOT
BRANCH   5   6
HETATM    6  C10 UNL     1      25.122   2.194  51.445  1.00  0.00    -0.022 A 
HETATM    7  C11 UNL     1      26.348   2.368  50.861  1.00  0.00     0.013 A 
HETATM    8  C12 UNL     1      26.619   3.436  50.036  1.00  0.00     0.011 A 
HETATM    9  C13 UNL     1      25.682   4.403  49.740  1.00  0.00    -0.025 A 
HETATM   10  C14 UNL     1      24.431   4.270  50.304  1.00  0.00    -0.049 A 
HETATM   11  C18 UNL     1      25.780   5.604  48.894  1.00  0.00     0.172 C 
HETATM   12  C15 UNL     1      24.186   3.193  51.127  1.00  0.00     0.020 A 
HETATM   13  C16 UNL     1      23.637   5.428  49.824  1.00  0.00     0.042 C 
HETATM   14  C17 UNL     1      24.324   5.860  48.570  1.00  0.00     0.039 C 
BRANCH  11  15
HETATM   15  N4  UNL     1      26.221   6.762  49.644  1.00  0.00    -0.131 NA
HETATM   16  O2  UNL     1      26.456   7.788  49.061  1.00  0.00    -0.066 OA
ENDBRANCH  11  15
ENDBRANCH   5   6
BRANCH   1  17
HETATM   17  C4  UNL     1      26.572  -0.396  52.786  1.00  0.00     0.091 C 
BRANCH  17  18
HETATM   18  C3  UNL     1      27.456   0.065  53.862  1.00  0.00     0.138 C 
BRANCH  18  19
HETATM   19  N1  UNL     1      28.161   0.638  54.758  1.00  0.00    -0.295 NA
BRANCH  19  20
HETATM   20  C2  UNL     1      29.229   1.472  54.382  1.00  0.00     0.100 C 
HETATM   21  C1  UNL     1      28.686   2.465  53.669  1.00  0.00     0.031 C 
ENDBRANCH  19  20
ENDBRANCH  18  19
ENDBRANCH  17  18
ENDBRANCH   1  17
BRANCH   3  22
HETATM   22  C6  UNL     1      21.913  -0.318  54.334  1.00  0.00     0.176 C 
BRANCH  22  23
HETATM   23  C7  UNL     1      21.997  -1.791  54.645  1.00  0.00     0.185 C 
BRANCH  23  24
HETATM   24  O1  UNL     1      22.805  -1.897  55.797  1.00  0.00    -0.399 OA
HETATM   25  H11 UNL     1      23.422  -2.664  55.726  1.00  0.00     0.209 HD
ENDBRANCH  23  24
ENDBRANCH  22  23
ENDBRANCH   3  22
TORSDOF 9
ENDMDL
MODEL 2
REMARK VINA RESULT:      -7.1      3.444      5.117
REMARK  9 active torsions:
REMARK  status: ('A' for Active; 'I' for Inactive)
REMARK    1  A    between atoms: C2_2  and  N1_3 
REMARK    2  A    between atoms: N1_3  and  C3_4 
REMARK    3  A    between atoms: C3_4  and  C4_5 
REMARK    4  A    between atoms: C4_5  and  C5_6 
REMARK    5  A    between atoms: N3_8  and  C6_9 
REMARK    6  A    between atoms: C6_9  and  C7_10 
REMARK    7  A    between atoms: C7_10  and  O1_11 
REMARK    8  A    between atoms: C9_13  and  C10_14 
REMARK    9  A    between atoms: C18_22  and  N4_23 
ROOT
HETATM    1  C5  UNL     1      25.822  -0.390  54.222  1.00  0.00     0.069 A 
HETATM    2  N2  UNL     1      27.015  -1.003  54.168  1.00  0.00    -0.176 NA
HETATM    3  N3  UNL     1      27.788  -0.512  53.234  1.00  0.00    -0.278 N 
HETATM    4  C8  UNL     1      27.098   0.471  52.629  1.00  0.00     0.126 A 
HETATM    5  C9  UNL     1      25.840   0.572  53.238  1.00  0.00     0.018 A 
ENDROOT
BRANCH   5   6
HETATM    6  C10 UNL     1      24.855   1.549  52.806  1.00  0.00    -0.022 A 
HETATM    7  C11 UNL     1      24.532   2.798  53.261  1.00  0.00     0.013 A 
HETATM    8  C12 UNL     1      23.529   3.548  52.689  1.00  0.00     0.011 A 
HETATM    9  C13 UNL     1      22.781   3.097  51.622  1.00  0.00    -0.025 A 
HETATM   10  C14 UNL     1      23.070   1.843  51.128  1.00  0.00    -0.049 A 
HETATM   11  C18 UNL     1      21.681   3.740  50.884  1.00  0.00     0.172 C 
HETATM   12  C15 UNL     1      24.078   1.114  51.719  1.00  0.00     0.020 A 
HETATM   13  C16 UNL     1      22.130   1.617  50.002  1.00  0.00     0.042 C 
HETATM   14  C17 UNL     1      21.723   2.987  49.572  1.00  0.00     0.039 C 
BRANCH  11  15
HETATM   15  N4  UNL     1      20.389   3.437  51.465  1.00  0.00    -0.131 NA
HETATM   16  O2  UNL     1      20.251   3.497  52.659  1.00  0.00    -0.066 OA
ENDBRANCH  11  15
ENDBRANCH   5   6
BRANCH   1  17
HETATM   17  C4  UNL     1      24.720  -0.693  55.166  1.00  0.00     0.091 C 
BRANCH  17  18
HETATM   18  C3  UNL     1      23.446  -0.972  54.494  1.00  0.00     0.138 C 
BRANCH  18  19
HETATM   19  N1  UNL     1      22.433  -1.348  53.816  1.00  0.00    -0.295 NA
BRANCH  19  20
HETATM   20  C2  UNL     1      21.141  -0.958  54.212  1.00  0.00     0.100 C 
HETATM   21  C1  UNL     1      21.069   0.358  53.987  1.00  0.00     0.031 C 
ENDBRANCH  19  20
ENDBRANCH  18  19
ENDBRANCH  17  18
ENDBRANCH   1  17
BRANCH   3  22
HETATM   22  C6  UNL     1      29.121  -1.043  53.014  1.00  0.00     0.176 C 
BRANCH  22  23
HETATM   23  C7  UNL     1      29.231  -2.481  53.455  1.00  0.00     0.185 C 
BRANCH  23  24
HETATM   24  O1  UNL     1      28.215  -3.176  52.764  1.00  0.00    -0.399 OA
HETATM   25  H11 UNL     1      27.414  -3.284  53.331  1.00  0.00     0.209 HD
ENDBRANCH  23  24
ENDBRANCH  22  23
ENDBRANCH   3  22
TORSDOF 9
ENDMDL
MODEL 3
REMARK VINA RESULT:      -7.0      2.074      7.894
REMARK  9 active torsions:
REMARK  status: ('A' for Active; 'I' for Inactive)
REMARK    1  A    between atoms: C2_2  and  N1_3 
REMARK    2  A    between atoms: N1_3  and  C3_4 
REMARK    3  A    between atoms: C3_4  and  C4_5 
REMARK    4  A    between atoms: C4_5  and  C5_6 
REMARK    5  A    between atoms: N3_8  and  C6_9 
REMARK    6  A    between atoms: C6_9  and  C7_10 
REMARK    7  A    between atoms: C7_10  and  O1_11 
REMARK    8  A    between atoms: C9_13  and  C10_14 
REMARK    9  A    between atoms: C18_22  and  N4_23 
ROOT
HETATM    1  C5  UNL     1      24.798   4.834  49.622  1.00  0.00     0.069 A 
HETATM    2  N2  UNL     1      25.612   5.641  48.923  1.00  0.00    -0.176 NA
HETATM    3  N3  UNL     1      26.856   5.237  48.943  1.00  0.00    -0.278 N 
HETATM    4  C8  UNL     1      26.894   4.114  49.681  1.00  0.00     0.126 A 
HETATM    5  C9  UNL     1      25.595   3.831  50.128  1.00  0.00     0.018 A 
ENDROOT
BRANCH   5   6
HETATM    6  C10 UNL     1      25.303   2.673  50.955  1.00  0.00    -0.022 A 
HETATM    7  C11 UNL     1      24.139   2.185  51.484  1.00  0.00     0.013 A 
HETATM    8  C12 UNL     1      24.110   1.054  52.267  1.00  0.00     0.011 A 
HETATM    9  C13 UNL     1      25.244   0.332  52.572  1.00  0.00    -0.025 A 
HETATM   10  C14 UNL     1      26.442   0.784  52.061  1.00  0.00    -0.049 A 
HETATM   11  C18 UNL     1      25.416  -0.885  53.382  1.00  0.00     0.172 C 
HETATM   12  C15 UNL     1      26.444   1.920  51.282  1.00  0.00     0.020 A 
HETATM   13  C16 UNL     1      27.478  -0.164  52.539  1.00  0.00     0.042 C 
HETATM   14  C17 UNL     1      26.727  -1.418  52.847  1.00  0.00     0.039 C 
BRANCH  11  15
HETATM   15  N4  UNL     1      25.660  -0.579  54.777  1.00  0.00    -0.131 NA
HETATM   16  O2  UNL     1      25.203  -1.298  55.627  1.00  0.00    -0.066 OA
ENDBRANCH  11  15
ENDBRANCH   5   6
BRANCH   1  17
HETATM   17  C4  UNL     1      23.336   4.995  49.795  1.00  0.00     0.091 C 
BRANCH  17  18
HETATM   18  C3  UNL     1      22.558   4.427  48.689  1.00  0.00     0.138 C 
BRANCH  18  19
HETATM   19  N1  UNL     1      22.048   3.904  47.643  1.00  0.00    -0.295 NA
BRANCH  19  20
HETATM   20  C2  UNL     1      21.354   2.684  47.735  1.00  0.00     0.100 C 
HETATM   21  C1  UNL     1      22.249   1.785  48.159  1.00  0.00     0.031 C 
ENDBRANCH  19  20
ENDBRANCH  18  19
ENDBRANCH  17  18
ENDBRANCH   1  17
BRANCH   3  22
HETATM   22  C6  UNL     1      27.891   5.979  48.247  1.00  0.00     0.176 C 
BRANCH  22  23
HETATM   23  C7  UNL     1      27.673   7.468  48.340  1.00  0.00     0.185 C 
BRANCH  23  24
HETATM   24  O1  UNL     1      27.510   7.749  49.714  1.00  0.00    -0.399 OA
HETATM   25  H11 UNL     1      26.709   7.298  50.073  1.00  0.00     0.209 HD
ENDBRANCH  23  24
ENDBRANCH  22  23
ENDBRANCH   3  22
TORSDOF 9
ENDMDL
MODEL 4
REMARK VINA RESULT:      -6.9      3.647      6.634
REMARK  9 active torsions:
REMARK  status: ('A' for Active; 'I' for Inactive)
REMARK    1  A    between atoms: C2_2  and  N1_3 
REMARK    2  A    between atoms: N1_3  and  C3_4 
REMARK    3  A    between atoms: C3_4  and  C4_5 
REMARK    4  A    between atoms: C4_5  and  C5_6 
REMARK    5  A    between atoms: N3_8  and  C6_9 
REMARK    6  A    between atoms: C6_9  and  C7_10 
REMARK    7  A    between atoms: C7_10  and  O1_11 
REMARK    8  A    between atoms: C9_13  and  C10_14 
REMARK    9  A    between atoms: C18_22  and  N4_23 
ROOT
HETATM    1  C5  UNL     1      20.978   3.333  52.284  1.00  0.00     0.069 A 
HETATM    2  N2  UNL     1      19.717   3.582  51.897  1.00  0.00    -0.176 NA
HETATM    3  N3  UNL     1      18.989   2.497  51.834  1.00  0.00    -0.278 N 
HETATM    4  C8  UNL     1      19.781   1.470  52.191  1.00  0.00     0.126 A 
HETATM    5  C9  UNL     1      21.056   1.972  52.484  1.00  0.00     0.018 A 
ENDROOT
BRANCH   5   6
HETATM    6  C10 UNL     1      22.145   1.106  52.903  1.00  0.00    -0.022 A 
HETATM    7  C11 UNL     1      22.200   0.042  53.762  1.00  0.00     0.013 A 
HETATM    8  C12 UNL     1      23.373  -0.630  54.018  1.00  0.00     0.011 A 
HETATM    9  C13 UNL     1      24.572  -0.282  53.431  1.00  0.00    -0.025 A 
HETATM   10  C14 UNL     1      24.566   0.784  52.557  1.00  0.00    -0.049 A 
HETATM   11  C18 UNL     1      25.915  -0.868  53.577  1.00  0.00     0.172 C 
HETATM   12  C15 UNL     1      23.378   1.439  52.319  1.00  0.00     0.020 A 
HETATM   13  C16 UNL     1      25.963   0.934  52.082  1.00  0.00     0.042 C 
HETATM   14  C17 UNL     1      26.581  -0.408  52.298  1.00  0.00     0.039 C 
BRANCH  11  15
HETATM   15  N4  UNL     1      26.664  -0.248  54.651  1.00  0.00    -0.131 NA
HETATM   16  O2  UNL     1      27.831  -0.511  54.784  1.00  0.00    -0.066 OA
ENDBRANCH  11  15
ENDBRANCH   5   6
BRANCH   1  17
HETATM   17  C4  UNL     1      22.056   4.333  52.466  1.00  0.00     0.091 C 
BRANCH  17  18
HETATM   18  C3  UNL     1      22.704   4.718  51.207  1.00  0.00     0.138 C 
BRANCH  18  19
HETATM   19  N1  UNL     1      23.318   4.872  50.100  1.00  0.00    -0.295 NA
BRANCH  19  20
HETATM   20  C2  UNL     1      23.937   3.771  49.482  1.00  0.00     0.100 C 
HETATM   21  C1  UNL     1      22.943   2.995  49.035  1.00  0.00     0.031 C 
ENDBRANCH  19  20
ENDBRANCH  18  19
ENDBRANCH  17  18
ENDBRANCH   1  17
BRANCH   3  22
HETATM   22  C6  UNL     1      17.596   2.558  51.432  1.00  0.00     0.176 C 
BRANCH  22  23
HETATM   23  C7  UNL     1      17.107   3.980  51.316  1.00  0.00     0.185 C 
BRANCH  23  24
HETATM   24  O1  UNL     1      16.584   4.313  52.584  1.00  0.00    -0.399 OA
HETATM   25  H11 UNL     1      16.929   5.184  52.890  1.00  0.00     0.209 HD
ENDBRANCH  23  24
ENDBRANCH  22  23
ENDBRANCH   3  22
TORSDOF 9
ENDMDL
MODEL 5
REMARK VINA RESULT:      -6.9      3.118      7.020
REMARK  9 active torsions:
REMARK  status: ('A' for Active; 'I' for Inactive)
REMARK    1  A    between atoms: C2_2  and  N1_3 
REMARK    2  A    between atoms: N1_3  and  C3_4 
REMARK    3  A    between atoms: C3_4  and  C4_5 
REMARK    4  A    between atoms: C4_5  and  C5_6 
REMARK    5  A    between atoms: N3_8  and  C6_9 
REMARK    6  A    between atoms: C6_9  and  C7_10 
REMARK    7  A    between atoms: C7_10  and  O1_11 
REMARK    8  A    between atoms: C9_13  and  C10_14 
REMARK    9  A    between atoms: C18_22  and  N4_23 
ROOT
HETATM    1  C5  UNL     1      24.354   0.510  52.611  1.00  0.00     0.069 A 
HETATM    2  N2  UNL     1      25.123   1.366  51.919  1.00  0.00    -0.176 NA
HETATM    3  N3  UNL     1      24.420   2.264  51.278  1.00  0.00    -0.278 N 
HETATM    4  C8  UNL     1      23.126   2.013  51.542  1.00  0.00     0.126 A 
HETATM    5  C9  UNL     1      23.052   0.899  52.390  1.00  0.00     0.018 A 
ENDROOT
BRANCH   5   6
HETATM    6  C10 UNL     1      21.781   0.375  52.860  1.00  0.00    -0.022 A 
HETATM    7  C11 UNL     1      21.380  -0.133  54.065  1.00  0.00     0.013 A 
HETATM    8  C12 UNL     1      20.100  -0.593  54.275  1.00  0.00     0.011 A 
HETATM    9  C13 UNL     1      19.134  -0.575  53.292  1.00  0.00    -0.025 A 
HETATM   10  C14 UNL     1      19.490  -0.072  52.059  1.00  0.00    -0.049 A 
HETATM   11  C18 UNL     1      17.730  -1.017  53.321  1.00  0.00     0.172 C 
HETATM   12  C15 UNL     1      20.778   0.381  51.875  1.00  0.00     0.020 A 
HETATM   13  C16 UNL     1      18.280  -0.171  51.207  1.00  0.00     0.042 C 
HETATM   14  C17 UNL     1      17.143  -0.222  52.174  1.00  0.00     0.039 C 
BRANCH  11  15
HETATM   15  N4  UNL     1      17.591  -2.408  52.941  1.00  0.00    -0.131 NA
HETATM   16  O2  UNL     1      17.738  -3.264  53.774  1.00  0.00    -0.066 OA
ENDBRANCH  11  15
ENDBRANCH   5   6
BRANCH   1  17
HETATM   17  C4  UNL     1      24.828  -0.616  53.449  1.00  0.00     0.091 C 
BRANCH  17  18
HETATM   18  C3  UNL     1      26.212  -0.453  53.906  1.00  0.00     0.138 C 
BRANCH  18  19
HETATM   19  N1  UNL     1      27.460  -0.434  54.168  1.00  0.00    -0.295 NA
BRANCH  19  20
HETATM   20  C2  UNL     1      28.377  -0.990  53.258  1.00  0.00     0.100 C 
HETATM   21  C1  UNL     1      29.587  -0.798  53.792  1.00  0.00     0.031 C 
ENDBRANCH  19  20
ENDBRANCH  18  19
ENDBRANCH  17  18
ENDBRANCH   1  17
BRANCH   3  22
HETATM   22  C6  UNL     1      25.069   3.279  50.469  1.00  0.00     0.176 C 
BRANCH  22  23
HETATM   23  C7  UNL     1      26.483   2.894  50.114  1.00  0.00     0.185 C 
BRANCH  23  24
HETATM   24  O1  UNL     1      27.279   3.290  51.210  1.00  0.00    -0.399 OA
HETATM   25  H11 UNL     1      27.018   4.187  51.528  1.00  0.00     0.209 HD
ENDBRANCH  23  24
ENDBRANCH  22  23
ENDBRANCH   3  22
TORSDOF 9
ENDMDL
MODEL 6
REMARK VINA RESULT:      -6.8      2.602      7.499
REMARK  9 active torsions:
REMARK  status: ('A' for Active; 'I' for Inactive)
REMARK    1  A    between atoms: C2_2  and  N1_3 
REMARK    2  A    between atoms: N1_3  and  C3_4 
REMARK    3  A    between atoms: C3_4  and  C4_5 
REMARK    4  A    between atoms: C4_5  and  C5_6 
REMARK    5  A    between atoms: N3_8  and  C6_9 
REMARK    6  A    between atoms: C6_9  and  C7_10 
REMARK    7  A    between atoms: C7_10  and  O1_11 
REMARK    8  A    between atoms: C9_13  and  C10_14 
REMARK    9  A    between atoms: C18_22  and  N4_23 
ROOT
HETATM    1  C5  UNL     1      22.315   4.494  51.096  1.00  0.00     0.069 A 
HETATM    2  N2  UNL     1      22.630   5.620  50.436  1.00  0.00    -0.176 NA
HETATM    3  N3  UNL     1      23.915   5.731  50.221  1.00  0.00    -0.278 N 
HETATM    4  C8  UNL     1      24.500   4.643  50.752  1.00  0.00     0.126 A 
HETATM    5  C9  UNL     1      23.504   3.834  51.317  1.00  0.00     0.018 A 
ENDROOT
BRANCH   5   6
HETATM    6  C10 UNL     1      23.818   2.577  51.974  1.00  0.00    -0.022 A 
HETATM    7  C11 UNL     1      23.070   1.721  52.736  1.00  0.00     0.013 A 
HETATM    8  C12 UNL     1      23.600   0.571  53.275  1.00  0.00     0.011 A 
HETATM    9  C13 UNL     1      24.914   0.198  53.087  1.00  0.00    -0.025 A 
HETATM   10  C14 UNL     1      25.707   1.029  52.325  1.00  0.00    -0.049 A 
HETATM   11  C18 UNL     1      25.656  -0.976  53.576  1.00  0.00     0.172 C 
HETATM   12  C15 UNL     1      25.153   2.174  51.798  1.00  0.00     0.020 A 
HETATM   13  C16 UNL     1      27.049   0.397  52.287  1.00  0.00     0.042 C 
HETATM   14  C17 UNL     1      26.794  -1.045  52.581  1.00  0.00     0.039 C 
BRANCH  11  15
HETATM   15  N4  UNL     1      26.277  -0.728  54.861  1.00  0.00    -0.131 NA
HETATM   16  O2  UNL     1      25.637  -0.893  55.867  1.00  0.00    -0.066 OA
ENDBRANCH  11  15
ENDBRANCH   5   6
BRANCH   1  17
HETATM   17  C4  UNL     1      20.956   4.056  51.489  1.00  0.00     0.091 C 
BRANCH  17  18
HETATM   18  C3  UNL     1      20.287   3.254  50.459  1.00  0.00     0.138 C 
BRANCH  18  19
HETATM   19  N1  UNL     1      19.878   2.492  49.521  1.00  0.00    -0.295 NA
BRANCH  19  20
HETATM   20  C2  UNL     1      20.807   1.807  48.718  1.00  0.00     0.100 C 
HETATM   21  C1  UNL     1      21.466   0.983  49.541  1.00  0.00     0.031 C 
ENDBRANCH  19  20
ENDBRANCH  18  19
ENDBRANCH  17  18
ENDBRANCH   1  17
BRANCH   3  22
HETATM   22  C6  UNL     1      24.456   6.884  49.523  1.00  0.00     0.176 C 
BRANCH  22  23
HETATM   23  C7  UNL     1      24.071   8.178  50.195  1.00  0.00     0.185 C 
BRANCH  23  24
HETATM   24  O1  UNL     1      24.166   7.936  51.582  1.00  0.00    -0.399 OA
HETATM   25  H11 UNL     1      25.103   7.778  51.849  1.00  0.00     0.209 HD
ENDBRANCH  23  24
ENDBRANCH  22  23
ENDBRANCH   3  22
TORSDOF 9
ENDMDL
MODEL 7
REMARK VINA RESULT:      -6.7      2.977      6.740
REMARK  9 active torsions:
REMARK  status: ('A' for Active; 'I' for Inactive)
REMARK    1  A    between atoms: C2_2  and  N1_3 
REMARK    2  A    between atoms: N1_3  and  C3_4 
REMARK    3  A    between atoms: C3_4  and  C4_5 
REMARK    4  A    between atoms: C4_5  and  C5_6 
REMARK    5  A    between atoms: N3_8  and  C6_9 
REMARK    6  A    between atoms: C6_9  and  C7_10 
REMARK    7  A    between atoms: C7_10  and  O1_11 
REMARK    8  A    between atoms: C9_13  and  C10_14 
REMARK    9  A    between atoms: C18_22  and  N4_23 
ROOT
HETATM    1  C5  UNL     1      25.152   1.307  53.074  1.00  0.00     0.069 A 
HETATM    2  N2  UNL     1      26.413   0.863  52.947  1.00  0.00    -0.176 NA
HETATM    3  N3  UNL     1      26.500  -0.437  53.063  1.00  0.00    -0.278 N 
HETATM    4  C8  UNL     1      25.255  -0.897  53.276  1.00  0.00     0.126 A 
HETATM    5  C9  UNL     1      24.373   0.192  53.288  1.00  0.00     0.018 A 
ENDROOT
BRANCH   5   6
HETATM    6  C10 UNL     1      22.945   0.022  53.498  1.00  0.00    -0.022 A 
HETATM    7  C11 UNL     1      22.205  -0.288  54.606  1.00  0.00     0.013 A 
HETATM    8  C12 UNL     1      20.835  -0.412  54.558  1.00  0.00     0.011 A 
HETATM    9  C13 UNL     1      20.113  -0.233  53.397  1.00  0.00    -0.025 A 
HETATM   10  C14 UNL     1      20.816   0.082  52.253  1.00  0.00    -0.049 A 
HETATM   11  C18 UNL     1      18.665  -0.323  53.147  1.00  0.00     0.172 C 
HETATM   12  C15 UNL     1      22.186   0.199  52.329  1.00  0.00     0.020 A 
HETATM   13  C16 UNL     1      19.807   0.216  51.174  1.00  0.00     0.042 C 
HETATM   14  C17 UNL     1      18.528   0.506  51.888  1.00  0.00     0.039 C 
BRANCH  11  15
HETATM   15  N4  UNL     1      18.261  -1.663  52.775  1.00  0.00    -0.131 NA
HETATM   16  O2  UNL     1      17.961  -2.449  53.637  1.00  0.00    -0.066 OA
ENDBRANCH  11  15
ENDBRANCH   5   6
BRANCH   1  17
HETATM   17  C4  UNL     1      24.703   2.716  52.987  1.00  0.00     0.091 C 
BRANCH  17  18
HETATM   18  C3  UNL     1      24.600   3.204  51.607  1.00  0.00     0.138 C 
BRANCH  18  19
HETATM   19  N1  UNL     1      24.370   3.738  50.471  1.00  0.00    -0.295 NA
BRANCH  19  20
HETATM   20  C2  UNL     1      25.437   4.016  49.599  1.00  0.00     0.100 C 
HETATM   21  C1  UNL     1      26.412   3.160  49.927  1.00  0.00     0.031 C 
ENDBRANCH  19  20
ENDBRANCH  18  19
ENDBRANCH  17  18
ENDBRANCH   1  17
BRANCH   3  22
HETATM   22  C6  UNL     1      27.782  -1.109  52.959  1.00  0.00     0.176 C 
BRANCH  22  23
HETATM   23  C7  UNL     1      28.828  -0.461  53.830  1.00  0.00     0.185 C 
BRANCH  23  24
HETATM   24  O1  UNL     1      28.222  -0.281  55.092  1.00  0.00    -0.399 OA
HETATM   25  H11 UNL     1      28.205  -1.127  55.600  1.00  0.00     0.209 HD
ENDBRANCH  23  24
ENDBRANCH  22  23
ENDBRANCH   3  22
TORSDOF 9
ENDMDL
MODEL 8
REMARK VINA RESULT:      -6.6      2.913      6.029
REMARK  9 active torsions:
REMARK  status: ('A' for Active; 'I' for Inactive)
REMARK    1  A    between atoms: C2_2  and  N1_3 
REMARK    2  A    between atoms: N1_3  and  C3_4 
REMARK    3  A    between atoms: C3_4  and  C4_5 
REMARK    4  A    between atoms: C4_5  and  C5_6 
REMARK    5  A    between atoms: N3_8  and  C6_9 
REMARK    6  A    between atoms: C6_9  and  C7_10 
REMARK    7  A    between atoms: C7_10  and  O1_11 
REMARK    8  A    between atoms: C9_13  and  C10_14 
REMARK    9  A    between atoms: C18_22  and  N4_23 
ROOT
HETATM    1  C5  UNL     1      26.397   2.546  51.192  1.00  0.00     0.069 A 
HETATM    2  N2  UNL     1      27.530   2.417  51.902  1.00  0.00    -0.176 NA
HETATM    3  N3  UNL     1      27.367   1.688  52.975  1.00  0.00    -0.278 N 
HETATM    4  C8  UNL     1      26.079   1.304  52.999  1.00  0.00     0.126 A 
HETATM    5  C9  UNL     1      25.434   1.836  51.874  1.00  0.00     0.018 A 
ENDROOT
BRANCH   5   6
HETATM    6  C10 UNL     1      24.025   1.600  51.613  1.00  0.00    -0.022 A 
HETATM    7  C11 UNL     1      23.261   1.725  50.485  1.00  0.00     0.013 A 
HETATM    8  C12 UNL     1      21.912   1.451  50.482  1.00  0.00     0.011 A 
HETATM    9  C13 UNL     1      21.237   1.032  51.609  1.00  0.00    -0.025 A 
HETATM   10  C14 UNL     1      21.965   0.890  52.771  1.00  0.00    -0.049 A 
HETATM   11  C18 UNL     1      19.816   0.696  51.804  1.00  0.00     0.172 C 
HETATM   12  C15 UNL     1      23.313   1.172  52.746  1.00  0.00     0.020 A 
HETATM   13  C16 UNL     1      21.004   0.436  53.806  1.00  0.00     0.042 C 
HETATM   14  C17 UNL     1      19.885  -0.182  53.035  1.00  0.00     0.039 C 
BRANCH  11  15
HETATM   15  N4  UNL     1      19.034   1.851  52.194  1.00  0.00    -0.131 NA
HETATM   16  O2  UNL     1      18.878   2.750  51.407  1.00  0.00    -0.066 OA
ENDBRANCH  11  15
ENDBRANCH   5   6
BRANCH   1  17
HETATM   17  C4  UNL     1      26.235   3.296  49.925  1.00  0.00     0.091 C 
BRANCH  17  18
HETATM   18  C3  UNL     1      25.604   4.608  50.108  1.00  0.00     0.138 C 
BRANCH  18  19
HETATM   19  N1  UNL     1      25.160   5.803  50.119  1.00  0.00    -0.295 NA
BRANCH  19  20
HETATM   20  C2  UNL     1      24.343   6.238  51.179  1.00  0.00     0.100 C 
HETATM   21  C1  UNL     1      23.399   5.301  51.322  1.00  0.00     0.031 C 
ENDBRANCH  19  20
ENDBRANCH  18  19
ENDBRANCH  17  18
ENDBRANCH   1  17
BRANCH   3  22
HETATM   22  C6  UNL     1      28.475   1.433  53.877  1.00  0.00     0.176 C 
BRANCH  22  23
HETATM   23  C7  UNL     1      28.186   0.286  54.812  1.00  0.00     0.185 C 
BRANCH  23  24
HETATM   24  O1  UNL     1      28.648  -0.875  54.154  1.00  0.00    -0.399 OA
HETATM   25  H11 UNL     1      29.586  -0.769  53.870  1.00  0.00     0.209 HD
ENDBRANCH  23  24
ENDBRANCH  22  23
ENDBRANCH   3  22
TORSDOF 9
ENDMDL
MODEL 9
REMARK VINA RESULT:      -6.6      2.098      6.842
REMARK  9 active torsions:
REMARK  status: ('A' for Active; 'I' for Inactive)
REMARK    1  A    between atoms: C2_2  and  N1_3 
REMARK    2  A    between atoms: N1_3  and  C3_4 
REMARK    3  A    between atoms: C3_4  and  C4_5 
REMARK    4  A    between atoms: C4_5  and  C5_6 
REMARK    5  A    between atoms: N3_8  and  C6_9 
REMARK    6  A    between atoms: C6_9  and  C7_10 
REMARK    7  A    between atoms: C7_10  and  O1_11 
REMARK    8  A    between atoms: C9_13  and  C10_14 
REMARK    9  A    between atoms: C18_22  and  N4_23 
ROOT
HETATM    1  C5  UNL     1      25.130   3.508  50.739  1.00  0.00     0.069 A 
HETATM    2  N2  UNL     1      25.308   4.834  50.626  1.00  0.00    -0.176 NA
HETATM    3  N3  UNL     1      24.228   5.511  50.917  1.00  0.00    -0.278 N 
HETATM    4  C8  UNL     1      23.278   4.616  51.242  1.00  0.00     0.126 A 
HETATM    5  C9  UNL     1      23.823   3.329  51.137  1.00  0.00     0.018 A 
ENDROOT
BRANCH   5   6
HETATM    6  C10 UNL     1      23.042   2.139  51.425  1.00  0.00    -0.022 A 
HETATM    7  C11 UNL     1      22.183   1.392  50.665  1.00  0.00     0.013 A 
HETATM    8  C12 UNL     1      21.532   0.289  51.168  1.00  0.00     0.011 A 
HETATM    9  C13 UNL     1      21.698  -0.143  52.467  1.00  0.00    -0.025 A 
HETATM   10  C14 UNL     1      22.555   0.578  53.272  1.00  0.00    -0.049 A 
HETATM   11  C18 UNL     1      21.098  -1.281  53.182  1.00  0.00     0.172 C 
HETATM   12  C15 UNL     1      23.193   1.678  52.743  1.00  0.00     0.020 A 
HETATM   13  C16 UNL     1      22.544  -0.097  54.594  1.00  0.00     0.042 C 
HETATM   14  C17 UNL     1      22.096  -1.491  54.300  1.00  0.00     0.039 C 
BRANCH  11  15
HETATM   15  N4  UNL     1      19.855  -0.920  53.832  1.00  0.00    -0.131 NA
HETATM   16  O2  UNL     1      18.839  -0.892  53.188  1.00  0.00    -0.066 OA
ENDBRANCH  11  15
ENDBRANCH   5   6
BRANCH   1  17
HETATM   17  C4  UNL     1      26.147   2.459  50.493  1.00  0.00     0.091 C 
BRANCH  17  18
HETATM   18  C3  UNL     1      26.750   1.940  51.726  1.00  0.00     0.138 C 
BRANCH  18  19
HETATM   19  N1  UNL     1      27.203   1.322  52.746  1.00  0.00    -0.295 NA
BRANCH  19  20
HETATM   20  C2  UNL     1      27.345  -0.077  52.712  1.00  0.00     0.100 C 
HETATM   21  C1  UNL     1      26.103  -0.572  52.706  1.00  0.00     0.031 C 
ENDBRANCH  19  20
ENDBRANCH  18  19
ENDBRANCH  17  18
ENDBRANCH   1  17
BRANCH   3  22
HETATM   22  C6  UNL     1      24.218   6.961  50.852  1.00  0.00     0.176 C 
BRANCH  22  23
HETATM   23  C7  UNL     1      25.323   7.490  49.974  1.00  0.00     0.185 C 
BRANCH  23  24
HETATM   24  O1  UNL     1      26.417   7.731  50.833  1.00  0.00    -0.399 OA
HETATM   25  H11 UNL     1      26.185   8.400  51.520  1.00  0.00     0.209 HD
ENDBRANCH  23  24
ENDBRANCH  22  23
ENDBRANCH   3  22
TORSDOF 9
ENDMDL
