MODEL 1
REMARK VINA RESULT:      -8.3      0.000      0.000
REMARK  7 active torsions:
REMARK  status: ('A' for Active; 'I' for Inactive)
REMARK    1  A    between atoms: C2_2  and  C3_3 
REMARK    2  A    between atoms: C14_16  and  C15_17 
REMARK    3  A    between atoms: C16_18  and  O3_19 
REMARK    4  A    between atoms: C17_20  and  O4_21 
REMARK    5  A    between atoms: O4_21  and  C18_22 
REMARK    6  A    between atoms: C18_22  and  C19_23 
REMARK    7  A    between atoms: C19_23  and  N1_24 
ROOT
HETATM    1  C3  UNL     1      21.740   4.638  46.364  1.00  0.00     0.005 C 
HETATM    2  C4  UNL     1      22.313   4.241  47.488  1.00  0.00    -0.043 C 
HETATM    3  C5  UNL     1      22.323   2.751  47.726  1.00  0.00     0.115 C 
HETATM    4  C6  UNL     1      21.357   2.385  48.838  1.00  0.00     0.135 C 
HETATM    5  O1  UNL     1      20.370   1.703  48.605  1.00  0.00    -0.297 OA
HETATM    6  C7  UNL     1      21.430   2.766  50.324  1.00  0.00     0.116 C 
HETATM    7  C8  UNL     1      22.653   3.614  50.362  1.00  0.00    -0.021 C 
HETATM    8  C9  UNL     1      23.009   4.829  49.787  1.00  0.00     0.060 A 
HETATM    9  C10 UNL     1      23.783   6.011  50.378  1.00  0.00     0.054 A 
HETATM   10  C11 UNL     1      24.584   5.161  49.644  1.00  0.00     0.112 A 
HETATM   11  O2  UNL     1      24.317   5.458  48.224  1.00  0.00    -0.363 OA
HETATM   12  C12 UNL     1      22.813   5.311  48.287  1.00  0.00     0.169 C 
HETATM   13  C13 UNL     1      25.560   4.092  50.066  1.00  0.00     0.014 C 
HETATM   14  C14 UNL     1      26.752   4.111  49.603  1.00  0.00     0.015 C 
HETATM   15  C17 UNL     1      25.065   3.028  51.017  1.00  0.00     0.111 C 
HETATM   16  C25 UNL     1      23.689   2.829  51.189  1.00  0.00     0.105 C 
HETATM   17  O5  UNL     1      23.263   1.978  52.053  1.00  0.00    -0.353 OA
HETATM   18  C26 UNL     1      22.833   1.117  52.927  1.00  0.00     0.210 C 
ENDROOT
BRANCH  15  19
HETATM   19  O4  UNL     1      25.907   2.289  51.687  1.00  0.00    -0.346 OA
BRANCH  19  20
HETATM   20  C18 UNL     1      26.620   1.169  51.398  1.00  0.00     0.195 C 
BRANCH  20  21
HETATM   21  C19 UNL     1      26.336   0.001  52.337  1.00  0.00     0.143 C 
BRANCH  21  22
HETATM   22  N1  UNL     1      27.393  -0.424  53.151  1.00  0.00    -0.410 N 
HETATM   23  C20 UNL     1      27.964  -1.702  52.925  1.00  0.00     0.117 C 
HETATM   24  C21 UNL     1      29.411  -1.637  53.438  1.00  0.00     0.019 C 
HETATM   25  C22 UNL     1      29.803  -0.165  53.638  1.00  0.00     0.003 C 
HETATM   26  C23 UNL     1      28.957   0.435  54.749  1.00  0.00     0.019 C 
HETATM   27  C24 UNL     1      27.497   0.081  54.474  1.00  0.00     0.117 C 
ENDBRANCH  21  22
ENDBRANCH  20  21
ENDBRANCH  19  20
ENDBRANCH  15  19
BRANCH  14  28
HETATM   28  C15 UNL     1      27.131   5.142  48.710  1.00  0.00     0.025 C 
HETATM   29  C16 UNL     1      28.363   5.478  48.420  1.00  0.00     0.131 C 
BRANCH  29  30
HETATM   30  O3  UNL     1      28.837   6.434  47.590  1.00  0.00    -0.373 OA
HETATM   31  H14 UNL     1      29.569   6.347  46.910  1.00  0.00     0.216 HD
ENDBRANCH  29  30
ENDBRANCH  14  28
BRANCH   1  32
HETATM   32  C2  UNL     1      21.562   5.992  45.834  1.00  0.00    -0.010 C 
HETATM   33  C1  UNL     1      22.442   6.563  45.035  1.00  0.00     0.011 C 
ENDBRANCH   1  32
TORSDOF 7
ENDMDL
MODEL 2
REMARK VINA RESULT:      -8.3      1.914      4.833
REMARK  7 active torsions:
REMARK  status: ('A' for Active; 'I' for Inactive)
REMARK    1  A    between atoms: C2_2  and  C3_3 
REMARK    2  A    between atoms: C14_16  and  C15_17 
REMARK    3  A    between atoms: C16_18  and  O3_19 
REMARK    4  A    between atoms: C17_20  and  O4_21 
REMARK    5  A    between atoms: O4_21  and  C18_22 
REMARK    6  A    between atoms: C18_22  and  C19_23 
REMARK    7  A    between atoms: C19_23  and  N1_24 
ROOT
HETATM    1  C3  UNL     1      18.951   4.653  50.147  1.00  0.00     0.005 C 
HETATM    2  C4  UNL     1      20.202   4.229  50.213  1.00  0.00    -0.043 C 
HETATM    3  C5  UNL     1      21.220   5.260  50.635  1.00  0.00     0.115 C 
HETATM    4  C6  UNL     1      22.090   5.660  49.457  1.00  0.00     0.135 C 
HETATM    5  O1  UNL     1      22.053   6.798  49.015  1.00  0.00    -0.297 OA
HETATM    6  C7  UNL     1      23.085   4.791  48.673  1.00  0.00     0.116 C 
HETATM    7  C8  UNL     1      22.927   3.469  49.340  1.00  0.00    -0.021 C 
HETATM    8  C9  UNL     1      21.877   2.568  49.470  1.00  0.00     0.060 A 
HETATM    9  C10 UNL     1      21.873   1.039  49.393  1.00  0.00     0.054 A 
HETATM   10  C11 UNL     1      21.940   1.509  50.688  1.00  0.00     0.112 A 
HETATM   11  O2  UNL     1      20.579   1.948  51.045  1.00  0.00    -0.363 OA
HETATM   12  C12 UNL     1      20.364   2.859  49.856  1.00  0.00     0.169 C 
HETATM   13  C13 UNL     1      23.094   1.627  51.651  1.00  0.00     0.014 C 
HETATM   14  C14 UNL     1      22.988   1.129  52.824  1.00  0.00     0.015 C 
HETATM   15  C17 UNL     1      24.331   2.353  51.176  1.00  0.00     0.111 C 
HETATM   16  C25 UNL     1      24.262   3.193  50.057  1.00  0.00     0.105 C 
HETATM   17  O5  UNL     1      25.327   3.753  49.604  1.00  0.00    -0.353 OA
HETATM   18  C26 UNL     1      26.404   4.319  49.146  1.00  0.00     0.210 C 
ENDROOT
BRANCH  15  19
HETATM   19  O4  UNL     1      25.471   2.206  51.797  1.00  0.00    -0.346 OA
BRANCH  19  20
HETATM   20  C18 UNL     1      26.582   1.458  51.570  1.00  0.00     0.195 C 
BRANCH  20  21
HETATM   21  C19 UNL     1      26.469   0.022  52.073  1.00  0.00     0.143 C 
BRANCH  21  22
HETATM   22  N1  UNL     1      27.442  -0.403  52.985  1.00  0.00    -0.410 N 
HETATM   23  C20 UNL     1      28.009  -1.694  52.833  1.00  0.00     0.117 C 
HETATM   24  C21 UNL     1      29.406  -1.641  53.472  1.00  0.00     0.019 C 
HETATM   25  C22 UNL     1      29.802  -0.172  53.682  1.00  0.00     0.003 C 
HETATM   26  C23 UNL     1      28.869   0.460  54.703  1.00  0.00     0.019 C 
HETATM   27  C24 UNL     1      27.434   0.123  54.304  1.00  0.00     0.117 C 
ENDBRANCH  21  22
ENDBRANCH  20  21
ENDBRANCH  19  20
ENDBRANCH  15  19
BRANCH  14  28
HETATM   28  C15 UNL     1      21.790   0.471  53.191  1.00  0.00     0.025 C 
HETATM   29  C16 UNL     1      21.614  -0.231  54.282  1.00  0.00     0.131 C 
BRANCH  29  30
HETATM   30  O3  UNL     1      20.525  -0.896  54.729  1.00  0.00    -0.373 OA
HETATM   31  H14 UNL     1      19.960  -1.555  54.225  1.00  0.00     0.216 HD
ENDBRANCH  29  30
ENDBRANCH  14  28
BRANCH   1  32
HETATM   32  C2  UNL     1      17.736   3.922  49.777  1.00  0.00    -0.010 C 
HETATM   33  C1  UNL     1      17.153   4.062  48.603  1.00  0.00     0.011 C 
ENDBRANCH   1  32
TORSDOF 7
ENDMDL
MODEL 3
REMARK VINA RESULT:      -8.3      2.992      7.307
REMARK  7 active torsions:
REMARK  status: ('A' for Active; 'I' for Inactive)
REMARK    1  A    between atoms: C2_2  and  C3_3 
REMARK    2  A    between atoms: C14_16  and  C15_17 
REMARK    3  A    between atoms: C16_18  and  O3_19 
REMARK    4  A    between atoms: C17_20  and  O4_21 
REMARK    5  A    between atoms: O4_21  and  C18_22 
REMARK    6  A    between atoms: C18_22  and  C19_23 
REMARK    7  A    between atoms: C19_23  and  N1_24 
ROOT
HETATM    1  C3  UNL     1      24.880   0.464  53.124  1.00  0.00     0.005 C 
HETATM    2  C4  UNL     1      23.921   1.132  52.505  1.00  0.00    -0.043 C 
HETATM    3  C5  UNL     1      22.576   1.129  53.188  1.00  0.00     0.115 C 
HETATM    4  C6  UNL     1      21.593   0.264  52.420  1.00  0.00     0.135 C 
HETATM    5  O1  UNL     1      21.142  -0.756  52.918  1.00  0.00    -0.297 OA
HETATM    6  C7  UNL     1      21.033   0.488  51.008  1.00  0.00     0.116 C 
HETATM    7  C8  UNL     1      21.742   1.730  50.591  1.00  0.00    -0.021 C 
HETATM    8  C9  UNL     1      23.075   2.059  50.374  1.00  0.00     0.060 A 
HETATM    9  C10 UNL     1      23.713   2.914  49.275  1.00  0.00     0.054 A 
HETATM   10  C11 UNL     1      23.486   3.620  50.438  1.00  0.00     0.112 A 
HETATM   11  O2  UNL     1      24.548   3.226  51.382  1.00  0.00    -0.363 OA
HETATM   12  C12 UNL     1      24.337   1.731  51.280  1.00  0.00     0.169 C 
HETATM   13  C13 UNL     1      22.409   4.606  50.815  1.00  0.00     0.014 C 
HETATM   14  C14 UNL     1      22.739   5.748  51.285  1.00  0.00     0.015 C 
HETATM   15  C17 UNL     1      20.972   4.178  50.628  1.00  0.00     0.111 C 
HETATM   16  C25 UNL     1      20.659   2.820  50.481  1.00  0.00     0.105 C 
HETATM   17  O5  UNL     1      19.449   2.458  50.247  1.00  0.00    -0.353 OA
HETATM   18  C26 UNL     1      18.224   2.093  50.010  1.00  0.00     0.210 C 
ENDROOT
BRANCH  15  19
HETATM   19  O4  UNL     1      20.011   5.063  50.600  1.00  0.00    -0.346 OA
BRANCH  19  20
HETATM   20  C18 UNL     1      19.362   5.723  49.606  1.00  0.00     0.195 C 
BRANCH  20  21
HETATM   21  C19 UNL     1      20.028   7.034  49.202  1.00  0.00     0.143 C 
BRANCH  21  22
HETATM   22  N1  UNL     1      20.989   6.964  48.186  1.00  0.00    -0.410 N 
HETATM   23  C20 UNL     1      21.712   8.135  47.843  1.00  0.00     0.117 C 
HETATM   24  C21 UNL     1      23.053   7.669  47.254  1.00  0.00     0.019 C 
HETATM   25  C22 UNL     1      23.260   6.187  47.599  1.00  0.00     0.003 C 
HETATM   26  C23 UNL     1      22.202   5.352  46.895  1.00  0.00     0.019 C 
HETATM   27  C24 UNL     1      20.842   5.997  47.157  1.00  0.00     0.117 C 
ENDBRANCH  21  22
ENDBRANCH  20  21
ENDBRANCH  19  20
ENDBRANCH  15  19
BRANCH  14  28
HETATM   28  C15 UNL     1      24.110   6.065  51.434  1.00  0.00     0.025 C 
HETATM   29  C16 UNL     1      24.732   7.046  50.828  1.00  0.00     0.131 C 
BRANCH  29  30
HETATM   30  O3  UNL     1      26.024   7.437  50.894  1.00  0.00    -0.373 OA
HETATM   31  H14 UNL     1      26.838   6.908  50.639  1.00  0.00     0.216 HD
ENDBRANCH  29  30
ENDBRANCH  14  28
BRANCH   1  32
HETATM   32  C2  UNL     1      26.281   0.270  52.739  1.00  0.00    -0.010 C 
HETATM   33  C1  UNL     1      26.778  -0.915  52.445  1.00  0.00     0.011 C 
ENDBRANCH   1  32
TORSDOF 7
ENDMDL
MODEL 4
REMARK VINA RESULT:      -8.3      3.277      7.666
REMARK  7 active torsions:
REMARK  status: ('A' for Active; 'I' for Inactive)
REMARK    1  A    between atoms: C2_2  and  C3_3 
REMARK    2  A    between atoms: C14_16  and  C15_17 
REMARK    3  A    between atoms: C16_18  and  O3_19 
REMARK    4  A    between atoms: C17_20  and  O4_21 
REMARK    5  A    between atoms: O4_21  and  C18_22 
REMARK    6  A    between atoms: C18_22  and  C19_23 
REMARK    7  A    between atoms: C19_23  and  N1_24 
ROOT
HETATM    1  C3  UNL     1      25.029  -0.311  53.944  1.00  0.00     0.005 C 
HETATM    2  C4  UNL     1      23.899   0.203  53.488  1.00  0.00    -0.043 C 
HETATM    3  C5  UNL     1      22.710   0.093  54.413  1.00  0.00     0.115 C 
HETATM    4  C6  UNL     1      21.718  -0.926  53.882  1.00  0.00     0.135 C 
HETATM    5  O1  UNL     1      21.494  -1.956  54.500  1.00  0.00    -0.297 OA
HETATM    6  C7  UNL     1      20.888  -0.860  52.592  1.00  0.00     0.116 C 
HETATM    7  C8  UNL     1      21.351   0.424  51.995  1.00  0.00    -0.021 C 
HETATM    8  C9  UNL     1      22.571   0.885  51.516  1.00  0.00     0.060 A 
HETATM    9  C10 UNL     1      22.889   1.733  50.281  1.00  0.00     0.054 A 
HETATM   10  C11 UNL     1      22.792   2.484  51.434  1.00  0.00     0.112 A 
HETATM   11  O2  UNL     1      24.048   2.275  52.177  1.00  0.00    -0.363 OA
HETATM   12  C12 UNL     1      24.008   0.763  52.182  1.00  0.00     0.169 C 
HETATM   13  C13 UNL     1      21.689   3.365  51.963  1.00  0.00     0.014 C 
HETATM   14  C14 UNL     1      21.956   4.566  52.312  1.00  0.00     0.015 C 
HETATM   15  C17 UNL     1      20.305   2.767  52.070  1.00  0.00     0.111 C 
HETATM   16  C25 UNL     1      20.141   1.375  52.044  1.00  0.00     0.105 C 
HETATM   17  O5  UNL     1      18.961   0.865  52.057  1.00  0.00    -0.353 OA
HETATM   18  C26 UNL     1      17.768   0.349  52.071  1.00  0.00     0.210 C 
ENDROOT
BRANCH  15  19
HETATM   19  O4  UNL     1      19.254   3.534  52.184  1.00  0.00    -0.346 OA
BRANCH  19  20
HETATM   20  C18 UNL     1      18.408   4.118  51.297  1.00  0.00     0.195 C 
BRANCH  20  21
HETATM   21  C19 UNL     1      18.630   3.676  49.854  1.00  0.00     0.143 C 
BRANCH  21  22
HETATM   22  N1  UNL     1      19.501   4.456  49.084  1.00  0.00    -0.410 N 
HETATM   23  C20 UNL     1      19.717   5.809  49.450  1.00  0.00     0.117 C 
HETATM   24  C21 UNL     1      21.107   6.195  48.919  1.00  0.00     0.019 C 
HETATM   25  C22 UNL     1      21.870   4.915  48.546  1.00  0.00     0.003 C 
HETATM   26  C23 UNL     1      21.170   4.232  47.381  1.00  0.00     0.019 C 
HETATM   27  C24 UNL     1      19.681   4.146  47.710  1.00  0.00     0.117 C 
ENDBRANCH  21  22
ENDBRANCH  20  21
ENDBRANCH  19  20
ENDBRANCH  15  19
BRANCH  14  28
HETATM   28  C15 UNL     1      23.282   5.044  52.186  1.00  0.00     0.025 C 
HETATM   29  C16 UNL     1      23.628   6.178  51.629  1.00  0.00     0.131 C 
BRANCH  29  30
HETATM   30  O3  UNL     1      24.850   6.730  51.456  1.00  0.00    -0.373 OA
HETATM   31  H14 UNL     1      25.488   6.579  50.696  1.00  0.00     0.216 HD
ENDBRANCH  29  30
ENDBRANCH  14  28
BRANCH   1  32
HETATM   32  C2  UNL     1      26.349  -0.371  53.311  1.00  0.00    -0.010 C 
HETATM   33  C1  UNL     1      26.816  -1.466  52.746  1.00  0.00     0.011 C 
ENDBRANCH   1  32
TORSDOF 7
ENDMDL
MODEL 5
REMARK VINA RESULT:      -8.2      3.250      8.032
REMARK  7 active torsions:
REMARK  status: ('A' for Active; 'I' for Inactive)
REMARK    1  A    between atoms: C2_2  and  C3_3 
REMARK    2  A    between atoms: C14_16  and  C15_17 
REMARK    3  A    between atoms: C16_18  and  O3_19 
REMARK    4  A    between atoms: C17_20  and  O4_21 
REMARK    5  A    between atoms: O4_21  and  C18_22 
REMARK    6  A    between atoms: C18_22  and  C19_23 
REMARK    7  A    between atoms: C19_23  and  N1_24 
ROOT
HETATM    1  C3  UNL     1      27.902   2.205  52.495  1.00  0.00     0.005 C 
HETATM    2  C4  UNL     1      26.697   2.270  51.954  1.00  0.00    -0.043 C 
HETATM    3  C5  UNL     1      26.630   1.995  50.471  1.00  0.00     0.115 C 
HETATM    4  C6  UNL     1      26.345   3.275  49.707  1.00  0.00     0.135 C 
HETATM    5  O1  UNL     1      27.176   3.741  48.942  1.00  0.00    -0.297 OA
HETATM    6  C7  UNL     1      25.079   4.143  49.747  1.00  0.00     0.116 C 
HETATM    7  C8  UNL     1      24.250   3.428  50.755  1.00  0.00    -0.021 C 
HETATM    8  C9  UNL     1      24.393   3.154  52.110  1.00  0.00     0.060 A 
HETATM    9  C10 UNL     1      23.357   3.189  53.239  1.00  0.00     0.054 A 
HETATM   10  C11 UNL     1      23.545   1.923  52.724  1.00  0.00     0.112 A 
HETATM   11  O2  UNL     1      24.813   1.425  53.287  1.00  0.00    -0.363 OA
HETATM   12  C12 UNL     1      25.668   2.606  52.882  1.00  0.00     0.169 C 
HETATM   13  C13 UNL     1      22.721   1.101  51.765  1.00  0.00     0.014 C 
HETATM   14  C14 UNL     1      22.384  -0.089  52.086  1.00  0.00     0.015 C 
HETATM   15  C17 UNL     1      22.346   1.734  50.445  1.00  0.00     0.111 C 
HETATM   16  C25 UNL     1      23.042   2.860  49.986  1.00  0.00     0.105 C 
HETATM   17  O5  UNL     1      22.677   3.446  48.902  1.00  0.00    -0.353 OA
HETATM   18  C26 UNL     1      22.307   4.039  47.806  1.00  0.00     0.210 C 
ENDROOT
BRANCH  15  19
HETATM   19  O4  UNL     1      21.374   1.243  49.723  1.00  0.00    -0.346 OA
BRANCH  19  20
HETATM   20  C18 UNL     1      20.062   1.557  49.564  1.00  0.00     0.195 C 
BRANCH  20  21
HETATM   21  C19 UNL     1      19.289   1.649  50.875  1.00  0.00     0.143 C 
BRANCH  21  22
HETATM   22  N1  UNL     1      18.423   0.590  51.171  1.00  0.00    -0.410 N 
HETATM   23  C20 UNL     1      18.768  -0.309  52.212  1.00  0.00     0.117 C 
HETATM   24  C21 UNL     1      17.451  -0.896  52.743  1.00  0.00     0.019 C 
HETATM   25  C22 UNL     1      16.283  -0.038  52.235  1.00  0.00     0.003 C 
HETATM   26  C23 UNL     1      16.192  -0.155  50.722  1.00  0.00     0.019 C 
HETATM   27  C24 UNL     1      17.589   0.068  50.147  1.00  0.00     0.117 C 
ENDBRANCH  21  22
ENDBRANCH  20  21
ENDBRANCH  19  20
ENDBRANCH  15  19
BRANCH  14  28
HETATM   28  C15 UNL     1      22.784  -0.607  53.341  1.00  0.00     0.025 C 
HETATM   29  C16 UNL     1      22.013  -1.266  54.170  1.00  0.00     0.131 C 
BRANCH  29  30
HETATM   30  O3  UNL     1      22.286  -1.801  55.381  1.00  0.00    -0.373 OA
HETATM   31  H14 UNL     1      21.674  -2.341  55.964  1.00  0.00     0.216 HD
ENDBRANCH  29  30
ENDBRANCH  14  28
BRANCH   1  32
HETATM   32  C2  UNL     1      28.313   2.414  53.886  1.00  0.00    -0.010 C 
HETATM   33  C1  UNL     1      29.206   1.651  54.484  1.00  0.00     0.011 C 
ENDBRANCH   1  32
TORSDOF 7
ENDMDL
MODEL 6
REMARK VINA RESULT:      -8.1      5.168     10.270
REMARK  7 active torsions:
REMARK  status: ('A' for Active; 'I' for Inactive)
REMARK    1  A    between atoms: C2_2  and  C3_3 
REMARK    2  A    between atoms: C14_16  and  C15_17 
REMARK    3  A    between atoms: C16_18  and  O3_19 
REMARK    4  A    between atoms: C17_20  and  O4_21 
REMARK    5  A    between atoms: O4_21  and  C18_22 
REMARK    6  A    between atoms: C18_22  and  C19_23 
REMARK    7  A    between atoms: C19_23  and  N1_24 
ROOT
HETATM    1  C3  UNL     1      33.283   3.907  45.951  1.00  0.00     0.005 C 
HETATM    2  C4  UNL     1      32.709   5.011  46.397  1.00  0.00    -0.043 C 
HETATM    3  C5  UNL     1      32.493   6.097  45.372  1.00  0.00     0.115 C 
HETATM    4  C6  UNL     1      33.444   7.254  45.616  1.00  0.00     0.135 C 
HETATM    5  O1  UNL     1      34.310   7.530  44.800  1.00  0.00    -0.297 OA
HETATM    6  C7  UNL     1      33.494   8.205  46.821  1.00  0.00     0.116 C 
HETATM    7  C8  UNL     1      32.409   7.661  47.684  1.00  0.00    -0.021 C 
HETATM    8  C9  UNL     1      32.209   6.454  48.343  1.00  0.00     0.060 A 
HETATM    9  C10 UNL     1      31.642   6.173  49.738  1.00  0.00     0.054 A 
HETATM   10  C11 UNL     1      30.694   6.056  48.743  1.00  0.00     0.112 A 
HETATM   11  O2  UNL     1      30.938   4.761  48.083  1.00  0.00    -0.363 OA
HETATM   12  C12 UNL     1      32.406   4.978  47.790  1.00  0.00     0.169 C 
HETATM   13  C13 UNL     1      29.592   6.984  48.296  1.00  0.00     0.014 C 
HETATM   14  C14 UNL     1      28.397   6.541  48.202  1.00  0.00     0.015 C 
HETATM   15  C17 UNL     1      29.970   8.409  47.963  1.00  0.00     0.111 C 
HETATM   16  C25 UNL     1      31.308   8.738  47.713  1.00  0.00     0.105 C 
HETATM   17  O5  UNL     1      31.644   9.961  47.504  1.00  0.00    -0.353 OA
HETATM   18  C26 UNL     1      31.983  11.198  47.293  1.00  0.00     0.210 C 
ENDROOT
BRANCH  15  19
HETATM   19  O4  UNL     1      29.059   9.343  47.905  1.00  0.00    -0.346 OA
BRANCH  19  20
HETATM   20  C18 UNL     1      28.585  10.258  48.791  1.00  0.00     0.195 C 
BRANCH  20  21
HETATM   21  C19 UNL     1      27.548   9.696  49.758  1.00  0.00     0.143 C 
BRANCH  21  22
HETATM   22  N1  UNL     1      26.279   9.427  49.234  1.00  0.00    -0.410 N 
HETATM   23  C20 UNL     1      25.690  10.363  48.345  1.00  0.00     0.117 C 
HETATM   24  C21 UNL     1      24.711   9.576  47.460  1.00  0.00     0.019 C 
HETATM   25  C22 UNL     1      25.009   8.076  47.599  1.00  0.00     0.003 C 
HETATM   26  C23 UNL     1      24.707   7.633  49.022  1.00  0.00     0.019 C 
HETATM   27  C24 UNL     1      25.377   8.619  49.976  1.00  0.00     0.117 C 
ENDBRANCH  21  22
ENDBRANCH  20  21
ENDBRANCH  19  20
ENDBRANCH  15  19
BRANCH  14  28
HETATM   28  C15 UNL     1      28.132   5.190  48.528  1.00  0.00     0.025 C 
HETATM   29  C16 UNL     1      26.992   4.728  48.978  1.00  0.00     0.131 C 
BRANCH  29  30
HETATM   30  O3  UNL     1      26.631   3.470  49.318  1.00  0.00    -0.373 OA
HETATM   31  H14 UNL     1      26.086   3.182  50.110  1.00  0.00     0.216 HD
ENDBRANCH  29  30
ENDBRANCH  14  28
BRANCH   1  32
HETATM   32  C2  UNL     1      33.632   2.679  46.671  1.00  0.00    -0.010 C 
HETATM   33  C1  UNL     1      32.763   1.711  46.885  1.00  0.00     0.011 C 
ENDBRANCH   1  32
TORSDOF 7
ENDMDL
MODEL 7
REMARK VINA RESULT:      -7.9      2.672      5.711
REMARK  7 active torsions:
REMARK  status: ('A' for Active; 'I' for Inactive)
REMARK    1  A    between atoms: C2_2  and  C3_3 
REMARK    2  A    between atoms: C14_16  and  C15_17 
REMARK    3  A    between atoms: C16_18  and  O3_19 
REMARK    4  A    between atoms: C17_20  and  O4_21 
REMARK    5  A    between atoms: O4_21  and  C18_22 
REMARK    6  A    between atoms: C18_22  and  C19_23 
REMARK    7  A    between atoms: C19_23  and  N1_24 
ROOT
HETATM    1  C3  UNL     1      17.355   1.966  51.395  1.00  0.00     0.005 C 
HETATM    2  C4  UNL     1      18.648   2.188  51.226  1.00  0.00    -0.043 C 
HETATM    3  C5  UNL     1      19.134   3.560  51.626  1.00  0.00     0.115 C 
HETATM    4  C6  UNL     1      19.482   4.378  50.395  1.00  0.00     0.135 C 
HETATM    5  O1  UNL     1      18.842   5.380  50.113  1.00  0.00    -0.297 OA
HETATM    6  C7  UNL     1      20.599   4.126  49.372  1.00  0.00     0.116 C 
HETATM    7  C8  UNL     1      21.198   2.860  49.879  1.00  0.00    -0.021 C 
HETATM    8  C9  UNL     1      20.728   1.563  50.043  1.00  0.00     0.060 A 
HETATM    9  C10 UNL     1      21.418   0.222  49.773  1.00  0.00     0.054 A 
HETATM   10  C11 UNL     1      21.501   0.609  51.094  1.00  0.00     0.112 A 
HETATM   11  O2  UNL     1      20.185   0.329  51.696  1.00  0.00    -0.363 OA
HETATM   12  C12 UNL     1      19.355   1.078  50.677  1.00  0.00     0.169 C 
HETATM   13  C13 UNL     1      22.628   1.220  51.888  1.00  0.00     0.014 C 
HETATM   14  C14 UNL     1      22.985   0.681  52.991  1.00  0.00     0.015 C 
HETATM   15  C17 UNL     1      23.275   2.470  51.337  1.00  0.00     0.111 C 
HETATM   16  C25 UNL     1      22.617   3.224  50.356  1.00  0.00     0.105 C 
HETATM   17  O5  UNL     1      23.196   4.243  49.830  1.00  0.00    -0.353 OA
HETATM   18  C26 UNL     1      23.783   5.274  49.298  1.00  0.00     0.210 C 
ENDROOT
BRANCH  15  19
HETATM   19  O4  UNL     1      24.447   2.857  51.763  1.00  0.00    -0.346 OA
BRANCH  19  20
HETATM   20  C18 UNL     1      25.720   2.677  51.324  1.00  0.00     0.195 C 
BRANCH  20  21
HETATM   21  C19 UNL     1      26.279   1.287  51.610  1.00  0.00     0.143 C 
BRANCH  21  22
HETATM   22  N1  UNL     1      27.074   1.153  52.754  1.00  0.00    -0.410 N 
HETATM   23  C20 UNL     1      27.036  -0.066  53.478  1.00  0.00     0.117 C 
HETATM   24  C21 UNL     1      28.385  -0.192  54.203  1.00  0.00     0.019 C 
HETATM   25  C22 UNL     1      29.375   0.811  53.592  1.00  0.00     0.003 C 
HETATM   26  C23 UNL     1      28.897   2.226  53.877  1.00  0.00     0.019 C 
HETATM   27  C24 UNL     1      27.419   2.311  53.500  1.00  0.00     0.117 C 
ENDBRANCH  21  22
ENDBRANCH  20  21
ENDBRANCH  19  20
ENDBRANCH  15  19
BRANCH  14  28
HETATM   28  C15 UNL     1      22.319  -0.485  53.438  1.00  0.00     0.025 C 
HETATM   29  C16 UNL     1      22.321  -0.934  54.669  1.00  0.00     0.131 C 
BRANCH  29  30
HETATM   30  O3  UNL     1      21.727  -2.024  55.203  1.00  0.00    -0.373 OA
HETATM   31  H14 UNL     1      21.837  -2.389  56.132  1.00  0.00     0.216 HD
ENDBRANCH  29  30
ENDBRANCH  14  28
BRANCH   1  32
HETATM   32  C2  UNL     1      16.571   0.761  51.113  1.00  0.00    -0.010 C 
HETATM   33  C1  UNL     1      16.024   0.031  52.065  1.00  0.00     0.011 C 
ENDBRANCH   1  32
TORSDOF 7
ENDMDL
MODEL 8
REMARK VINA RESULT:      -7.7      4.876      9.172
REMARK  7 active torsions:
REMARK  status: ('A' for Active; 'I' for Inactive)
REMARK    1  A    between atoms: C2_2  and  C3_3 
REMARK    2  A    between atoms: C14_16  and  C15_17 
REMARK    3  A    between atoms: C16_18  and  O3_19 
REMARK    4  A    between atoms: C17_20  and  O4_21 
REMARK    5  A    between atoms: O4_21  and  C18_22 
REMARK    6  A    between atoms: C18_22  and  C19_23 
REMARK    7  A    between atoms: C19_23  and  N1_24 
ROOT
HETATM    1  C3  UNL     1      24.485  -0.009  53.594  1.00  0.00     0.005 C 
HETATM    2  C4  UNL     1      23.253   0.306  53.230  1.00  0.00    -0.043 C 
HETATM    3  C5  UNL     1      22.207   0.214  54.314  1.00  0.00     0.115 C 
HETATM    4  C6  UNL     1      21.293  -0.974  54.070  1.00  0.00     0.135 C 
HETATM    5  O1  UNL     1      21.275  -1.915  54.849  1.00  0.00    -0.297 OA
HETATM    6  C7  UNL     1      20.313  -1.195  52.909  1.00  0.00     0.116 C 
HETATM    7  C8  UNL     1      20.538   0.023  52.082  1.00  0.00    -0.021 C 
HETATM    8  C9  UNL     1      21.625   0.532  51.382  1.00  0.00     0.060 A 
HETATM    9  C10 UNL     1      21.685   1.209  50.009  1.00  0.00     0.054 A 
HETATM   10  C11 UNL     1      21.632   2.114  51.049  1.00  0.00     0.112 A 
HETATM   11  O2  UNL     1      22.984   2.156  51.636  1.00  0.00    -0.363 OA
HETATM   12  C12 UNL     1      23.135   0.667  51.856  1.00  0.00     0.169 C 
HETATM   13  C13 UNL     1      20.499   2.944  51.597  1.00  0.00     0.014 C 
HETATM   14  C14 UNL     1      20.654   4.205  51.737  1.00  0.00     0.015 C 
HETATM   15  C17 UNL     1      19.224   2.226  51.973  1.00  0.00     0.111 C 
HETATM   16  C25 UNL     1      19.233   0.837  52.163  1.00  0.00     0.105 C 
HETATM   17  O5  UNL     1      18.137   0.212  52.408  1.00  0.00    -0.353 OA
HETATM   18  C26 UNL     1      17.028  -0.418  52.656  1.00  0.00     0.210 C 
ENDROOT
BRANCH  15  19
HETATM   19  O4  UNL     1      18.107   2.885  52.123  1.00  0.00    -0.346 OA
BRANCH  19  20
HETATM   20  C18 UNL     1      17.141   3.316  51.270  1.00  0.00     0.195 C 
BRANCH  20  21
HETATM   21  C19 UNL     1      16.200   4.351  51.880  1.00  0.00     0.143 C 
BRANCH  21  22
HETATM   22  N1  UNL     1      15.055   3.860  52.517  1.00  0.00    -0.410 N 
HETATM   23  C20 UNL     1      14.566   4.534  53.665  1.00  0.00     0.117 C 
HETATM   24  C21 UNL     1      13.059   4.240  53.742  1.00  0.00     0.019 C 
HETATM   25  C22 UNL     1      12.593   3.672  52.393  1.00  0.00     0.003 C 
HETATM   26  C23 UNL     1      13.253   2.323  52.159  1.00  0.00     0.019 C 
HETATM   27  C24 UNL     1      14.749   2.476  52.429  1.00  0.00     0.117 C 
ENDBRANCH  21  22
ENDBRANCH  20  21
ENDBRANCH  19  20
ENDBRANCH  15  19
BRANCH  14  28
HETATM   28  C15 UNL     1      21.885   4.797  51.366  1.00  0.00     0.025 C 
HETATM   29  C16 UNL     1      22.020   5.955  50.771  1.00  0.00     0.131 C 
BRANCH  29  30
HETATM   30  O3  UNL     1      23.134   6.611  50.374  1.00  0.00    -0.373 OA
HETATM   31  H14 UNL     1      23.639   6.497  49.514  1.00  0.00     0.216 HD
ENDBRANCH  29  30
ENDBRANCH  14  28
BRANCH   1  32
HETATM   32  C2  UNL     1      25.717  -0.026  52.801  1.00  0.00    -0.010 C 
HETATM   33  C1  UNL     1      26.717   0.804  53.026  1.00  0.00     0.011 C 
ENDBRANCH   1  32
TORSDOF 7
ENDMDL
MODEL 9
REMARK VINA RESULT:      -7.6      5.693     11.203
REMARK  7 active torsions:
REMARK  status: ('A' for Active; 'I' for Inactive)
REMARK    1  A    between atoms: C2_2  and  C3_3 
REMARK    2  A    between atoms: C14_16  and  C15_17 
REMARK    3  A    between atoms: C16_18  and  O3_19 
REMARK    4  A    between atoms: C17_20  and  O4_21 
REMARK    5  A    between atoms: O4_21  and  C18_22 
REMARK    6  A    between atoms: C18_22  and  C19_23 
REMARK    7  A    between atoms: C19_23  and  N1_24 
ROOT
HETATM    1  C3  UNL     1      33.411   2.780  46.959  1.00  0.00     0.005 C 
HETATM    2  C4  UNL     1      32.930   3.990  46.724  1.00  0.00    -0.043 C 
HETATM    3  C5  UNL     1      32.734   4.345  45.271  1.00  0.00     0.115 C 
HETATM    4  C6  UNL     1      33.768   5.365  44.830  1.00  0.00     0.135 C 
HETATM    5  O1  UNL     1      34.610   5.076  43.992  1.00  0.00    -0.297 OA
HETATM    6  C7  UNL     1      33.936   6.815  45.308  1.00  0.00     0.116 C 
HETATM    7  C8  UNL     1      32.862   6.924  46.334  1.00  0.00    -0.021 C 
HETATM    8  C9  UNL     1      32.617   6.300  47.551  1.00  0.00     0.060 A 
HETATM    9  C10 UNL     1      32.101   6.880  48.871  1.00  0.00     0.054 A 
HETATM   10  C11 UNL     1      31.101   6.310  48.111  1.00  0.00     0.112 A 
HETATM   11  O2  UNL     1      31.230   4.851  48.276  1.00  0.00    -0.363 OA
HETATM   12  C12 UNL     1      32.694   4.753  47.905  1.00  0.00     0.169 C 
HETATM   13  C13 UNL     1      30.041   6.923  47.232  1.00  0.00     0.014 C 
HETATM   14  C14 UNL     1      28.816   6.598  47.405  1.00  0.00     0.015 C 
HETATM   15  C17 UNL     1      30.491   7.893  46.165  1.00  0.00     0.111 C 
HETATM   16  C25 UNL     1      31.835   7.923  45.768  1.00  0.00     0.105 C 
HETATM   17  O5  UNL     1      32.237   8.797  44.916  1.00  0.00    -0.353 OA
HETATM   18  C26 UNL     1      32.643   9.682  44.055  1.00  0.00     0.210 C 
ENDROOT
BRANCH  15  19
HETATM   19  O4  UNL     1      29.640   8.711  45.605  1.00  0.00    -0.346 OA
BRANCH  19  20
HETATM   20  C18 UNL     1      29.291  10.006  45.820  1.00  0.00     0.195 C 
BRANCH  20  21
HETATM   21  C19 UNL     1      28.315  10.195  46.978  1.00  0.00     0.143 C 
BRANCH  21  22
HETATM   22  N1  UNL     1      28.614  11.210  47.893  1.00  0.00    -0.410 N 
HETATM   23  C20 UNL     1      29.793  11.107  48.674  1.00  0.00     0.117 C 
HETATM   24  C21 UNL     1      30.205  12.540  49.046  1.00  0.00     0.019 C 
HETATM   25  C22 UNL     1      29.441  13.526  48.149  1.00  0.00     0.003 C 
HETATM   26  C23 UNL     1      27.955  13.442  48.460  1.00  0.00     0.019 C 
HETATM   27  C24 UNL     1      27.555  11.968  48.460  1.00  0.00     0.117 C 
ENDBRANCH  21  22
ENDBRANCH  20  21
ENDBRANCH  19  20
ENDBRANCH  15  19
BRANCH  14  28
HETATM   28  C15 UNL     1      28.482   5.675  48.424  1.00  0.00     0.025 C 
HETATM   29  C16 UNL     1      27.267   5.303  48.741  1.00  0.00     0.131 C 
BRANCH  29  30
HETATM   30  O3  UNL     1      26.836   4.438  49.686  1.00  0.00    -0.373 OA
HETATM   31  H14 UNL     1      26.627   3.463  49.574  1.00  0.00     0.216 HD
ENDBRANCH  29  30
ENDBRANCH  14  28
BRANCH   1  32
HETATM   32  C2  UNL     1      33.716   2.129  48.236  1.00  0.00    -0.010 C 
HETATM   33  C1  UNL     1      33.095   1.039  48.642  1.00  0.00     0.011 C 
ENDBRANCH   1  32
TORSDOF 7
ENDMDL
