MODEL 1
REMARK VINA RESULT:      -8.7      0.000      0.000
REMARK  4 active torsions:
REMARK  status: ('A' for Active; 'I' for Inactive)
REMARK       I    between atoms: N1_1  and  C1_2 
REMARK    1  A    between atoms: C1_2  and  C2_4 
REMARK    2  A    between atoms: C3_5  and  C4_6 
REMARK    3  A    between atoms: C11_13  and  C12_15 
REMARK    4  A    between atoms: C13_16  and  C14_17 
ROOT
HETATM    1  C4  UNL     1      22.988   1.577  52.062  1.00  0.00    -0.023 C 
HETATM    2  C5  UNL     1      22.712   1.555  50.761  1.00  0.00    -0.013 C 
HETATM    3  C6  UNL     1      22.868   2.489  49.659  1.00  0.00     0.043 C 
HETATM    4  C7  UNL     1      23.325   3.853  49.923  1.00  0.00     0.006 C 
HETATM    5  C8  UNL     1      22.933   4.774  48.755  1.00  0.00     0.020 C 
HETATM    6  C9  UNL     1      24.326   5.369  48.792  1.00  0.00     0.038 C 
HETATM    7  C10 UNL     1      24.755   4.118  49.518  1.00  0.00    -0.048 C 
HETATM    8  C11 UNL     1      26.037   3.716  49.560  1.00  0.00     0.037 C 
HETATM    9 CL1  UNL     1      27.474   4.470  48.845  1.00  0.00    -0.084 Cl
HETATM   10  C16 UNL     1      22.920   4.518  51.189  1.00  0.00     0.162 C 
HETATM   11  N2  UNL     1      23.585   3.985  52.362  1.00  0.00    -0.300 NA
HETATM   12  C17 UNL     1      23.595   2.739  52.702  1.00  0.00     0.121 C 
ENDROOT
BRANCH   8  13
HETATM   13  C12 UNL     1      26.361   2.491  50.281  1.00  0.00     0.027 C 
HETATM   14  C13 UNL     1      26.765   2.353  51.533  1.00  0.00     0.041 C 
BRANCH  14  15
HETATM   15  C14 UNL     1      27.087   1.127  52.247  1.00  0.00     0.114 C 
HETATM   16  F1  UNL     1      26.485  -0.042  51.922  1.00  0.00    -0.209 F 
HETATM   17  C15 UNL     1      27.965   1.139  53.215  1.00  0.00     0.301 C 
HETATM   18 CL2  UNL     1      28.798   2.596  53.711  1.00  0.00    -0.248 Cl
ENDBRANCH  14  15
ENDBRANCH   8  13
BRANCH   1  19
HETATM   19  C3  UNL     1      22.680   0.413  52.876  1.00  0.00     0.018 C 
HETATM   20  C2  UNL     1      21.811   0.340  53.866  1.00  0.00     0.074 C 
BRANCH  20  21
HETATM   21  C1  UNL     1      21.620  -0.931  54.594  1.00  0.00     0.238 C 
HETATM   22  N1  UNL     1      20.445  -1.698  54.377  1.00  0.00    -0.367 N 
HETATM   23  H1  UNL     1      20.692  -2.396  53.643  1.00  0.00     0.159 HD
HETATM   24  H2  UNL     1      19.532  -1.564  54.868  1.00  0.00     0.159 HD
HETATM   25  O1  UNL     1      22.521  -1.304  55.397  1.00  0.00    -0.269 OA
ENDBRANCH  20  21
ENDBRANCH   1  19
TORSDOF 4
ENDMDL
MODEL 2
REMARK VINA RESULT:      -8.0      3.654      5.846
REMARK  4 active torsions:
REMARK  status: ('A' for Active; 'I' for Inactive)
REMARK       I    between atoms: N1_1  and  C1_2 
REMARK    1  A    between atoms: C1_2  and  C2_4 
REMARK    2  A    between atoms: C3_5  and  C4_6 
REMARK    3  A    between atoms: C11_13  and  C12_15 
REMARK    4  A    between atoms: C13_16  and  C14_17 
ROOT
HETATM    1  C4  UNL     1      24.664   4.205  50.319  1.00  0.00    -0.023 C 
HETATM    2  C5  UNL     1      24.089   4.556  51.466  1.00  0.00    -0.013 C 
HETATM    3  C6  UNL     1      22.949   4.083  52.234  1.00  0.00     0.043 C 
HETATM    4  C7  UNL     1      22.076   3.050  51.677  1.00  0.00     0.006 C 
HETATM    5  C8  UNL     1      20.711   3.076  52.386  1.00  0.00     0.020 C 
HETATM    6  C9  UNL     1      20.764   1.566  52.485  1.00  0.00     0.038 C 
HETATM    7  C10 UNL     1      22.255   1.685  52.295  1.00  0.00    -0.048 C 
HETATM    8  C11 UNL     1      23.107   0.714  52.670  1.00  0.00     0.037 C 
HETATM    9 CL1  UNL     1      22.762  -0.852  53.426  1.00  0.00    -0.084 Cl
HETATM   10  C16 UNL     1      21.832   3.025  50.210  1.00  0.00     0.162 C 
HETATM   11  N2  UNL     1      22.979   2.583  49.441  1.00  0.00    -0.300 NA
HETATM   12  C17 UNL     1      24.159   3.101  49.510  1.00  0.00     0.121 C 
ENDROOT
BRANCH   8  13
HETATM   13  C12 UNL     1      24.535   0.916  52.452  1.00  0.00     0.027 C 
HETATM   14  C13 UNL     1      25.377   1.667  53.141  1.00  0.00     0.041 C 
BRANCH  14  15
HETATM   15  C14 UNL     1      26.801   1.864  52.918  1.00  0.00     0.114 C 
HETATM   16  F1  UNL     1      27.241   2.684  51.933  1.00  0.00    -0.209 F 
HETATM   17  C15 UNL     1      27.677   1.252  53.670  1.00  0.00     0.301 C 
HETATM   18 CL2  UNL     1      27.212   0.174  54.968  1.00  0.00    -0.248 Cl
ENDBRANCH  14  15
ENDBRANCH   8  13
BRANCH   1  19
HETATM   19  C3  UNL     1      25.829   4.937  49.854  1.00  0.00     0.018 C 
HETATM   20  C2  UNL     1      26.778   4.497  49.049  1.00  0.00     0.074 C 
BRANCH  20  21
HETATM   21  C1  UNL     1      27.902   5.380  48.674  1.00  0.00     0.238 C 
HETATM   22  N1  UNL     1      27.792   6.781  48.871  1.00  0.00    -0.367 N 
HETATM   23  H1  UNL     1      28.224   6.973  49.800  1.00  0.00     0.159 HD
HETATM   24  H2  UNL     1      27.359   7.458  48.201  1.00  0.00     0.159 HD
HETATM   25  O1  UNL     1      28.941   4.854  48.184  1.00  0.00    -0.269 OA
ENDBRANCH  20  21
ENDBRANCH   1  19
TORSDOF 4
ENDMDL
MODEL 3
REMARK VINA RESULT:      -7.9      3.810      5.327
REMARK  4 active torsions:
REMARK  status: ('A' for Active; 'I' for Inactive)
REMARK       I    between atoms: N1_1  and  C1_2 
REMARK    1  A    between atoms: C1_2  and  C2_4 
REMARK    2  A    between atoms: C3_5  and  C4_6 
REMARK    3  A    between atoms: C11_13  and  C12_15 
REMARK    4  A    between atoms: C13_16  and  C14_17 
ROOT
HETATM    1  C4  UNL     1      26.027   1.401  52.738  1.00  0.00    -0.023 C 
HETATM    2  C5  UNL     1      25.520   2.258  53.620  1.00  0.00    -0.013 C 
HETATM    3  C6  UNL     1      24.535   3.324  53.570  1.00  0.00     0.043 C 
HETATM    4  C7  UNL     1      23.965   3.727  52.285  1.00  0.00     0.006 C 
HETATM    5  C8  UNL     1      23.375   5.144  52.391  1.00  0.00     0.020 C 
HETATM    6  C9  UNL     1      22.147   4.659  51.649  1.00  0.00     0.038 C 
HETATM    7  C10 UNL     1      22.546   3.264  52.062  1.00  0.00    -0.048 C 
HETATM    8  C11 UNL     1      21.668   2.246  52.093  1.00  0.00     0.037 C 
HETATM    9 CL1  UNL     1      19.941   2.239  51.692  1.00  0.00    -0.084 Cl
HETATM   10  C16 UNL     1      24.818   3.674  51.068  1.00  0.00     0.162 C 
HETATM   11  N2  UNL     1      25.094   2.326  50.613  1.00  0.00    -0.300 NA
HETATM   12  C17 UNL     1      25.604   1.390  51.342  1.00  0.00     0.121 C 
ENDROOT
BRANCH   8  13
HETATM   13  C12 UNL     1      22.140   0.930  52.509  1.00  0.00     0.027 C 
HETATM   14  C13 UNL     1      22.267   0.448  53.733  1.00  0.00     0.041 C 
BRANCH  14  15
HETATM   15  C14 UNL     1      22.739  -0.866  54.142  1.00  0.00     0.114 C 
HETATM   16  F1  UNL     1      24.059  -1.096  54.344  1.00  0.00    -0.209 F 
HETATM   17  C15 UNL     1      21.892  -1.844  54.322  1.00  0.00     0.301 C 
HETATM   18 CL2  UNL     1      20.168  -1.650  54.089  1.00  0.00    -0.248 Cl
ENDBRANCH  14  15
ENDBRANCH   8  13
BRANCH   1  19
HETATM   19  C3  UNL     1      27.031   0.444  53.172  1.00  0.00     0.018 C 
HETATM   20  C2  UNL     1      27.276  -0.745  52.653  1.00  0.00     0.074 C 
BRANCH  20  21
HETATM   21  C1  UNL     1      28.341  -1.597  53.220  1.00  0.00     0.238 C 
HETATM   22  N1  UNL     1      28.281  -3.005  53.049  1.00  0.00    -0.367 N 
HETATM   23  H1  UNL     1      28.853  -3.214  52.202  1.00  0.00     0.159 HD
HETATM   24  H2  UNL     1      27.761  -3.671  53.663  1.00  0.00     0.159 HD
HETATM   25  O1  UNL     1      29.286  -1.041  53.846  1.00  0.00    -0.269 OA
ENDBRANCH  20  21
ENDBRANCH   1  19
TORSDOF 4
ENDMDL
MODEL 4
REMARK VINA RESULT:      -7.6      3.939      5.508
REMARK  4 active torsions:
REMARK  status: ('A' for Active; 'I' for Inactive)
REMARK       I    between atoms: N1_1  and  C1_2 
REMARK    1  A    between atoms: C1_2  and  C2_4 
REMARK    2  A    between atoms: C3_5  and  C4_6 
REMARK    3  A    between atoms: C11_13  and  C12_15 
REMARK    4  A    between atoms: C13_16  and  C14_17 
ROOT
HETATM    1  C4  UNL     1      24.330   2.154  52.605  1.00  0.00    -0.023 C 
HETATM    2  C5  UNL     1      24.090   3.371  53.085  1.00  0.00    -0.013 C 
HETATM    3  C6  UNL     1      23.315   4.518  52.644  1.00  0.00     0.043 C 
HETATM    4  C7  UNL     1      22.685   4.504  51.324  1.00  0.00     0.006 C 
HETATM    5  C8  UNL     1      22.378   5.942  50.872  1.00  0.00     0.020 C 
HETATM    6  C9  UNL     1      21.005   5.481  50.427  1.00  0.00     0.038 C 
HETATM    7  C10 UNL     1      21.189   4.303  51.351  1.00  0.00    -0.048 C 
HETATM    8  C11 UNL     1      20.151   3.586  51.816  1.00  0.00     0.037 C 
HETATM    9 CL1  UNL     1      18.417   3.791  51.508  1.00  0.00    -0.084 Cl
HETATM   10  C16 UNL     1      23.371   3.807  50.204  1.00  0.00     0.162 C 
HETATM   11  N2  UNL     1      23.344   2.362  50.319  1.00  0.00    -0.300 NA
HETATM   12  C17 UNL     1      23.756   1.695  51.345  1.00  0.00     0.121 C 
ENDROOT
BRANCH   8  13
HETATM   13  C12 UNL     1      20.421   2.465  52.709  1.00  0.00     0.027 C 
HETATM   14  C13 UNL     1      20.475   1.176  52.422  1.00  0.00     0.041 C 
BRANCH  14  15
HETATM   15  C14 UNL     1      20.745   0.061  53.317  1.00  0.00     0.114 C 
HETATM   16  F1  UNL     1      21.952  -0.065  53.920  1.00  0.00    -0.209 F 
HETATM   17  C15 UNL     1      19.824  -0.834  53.553  1.00  0.00     0.301 C 
HETATM   18 CL2  UNL     1      18.234  -0.761  52.824  1.00  0.00    -0.248 Cl
ENDBRANCH  14  15
ENDBRANCH   8  13
BRANCH   1  19
HETATM   19  C3  UNL     1      25.186   1.249  53.354  1.00  0.00     0.018 C 
HETATM   20  C2  UNL     1      26.349   1.531  53.910  1.00  0.00     0.074 C 
BRANCH  20  21
HETATM   21  C1  UNL     1      27.095   0.485  54.639  1.00  0.00     0.238 C 
HETATM   22  N1  UNL     1      28.448   0.711  55.005  1.00  0.00    -0.367 N 
HETATM   23  H1  UNL     1      28.422   1.080  55.981  1.00  0.00     0.159 HD
HETATM   24  H2  UNL     1      29.280   0.535  54.398  1.00  0.00     0.159 HD
HETATM   25  O1  UNL     1      26.499  -0.592  54.921  1.00  0.00    -0.269 OA
ENDBRANCH  20  21
ENDBRANCH   1  19
TORSDOF 4
ENDMDL
MODEL 5
REMARK VINA RESULT:      -7.4      3.719      6.072
REMARK  4 active torsions:
REMARK  status: ('A' for Active; 'I' for Inactive)
REMARK       I    between atoms: N1_1  and  C1_2 
REMARK    1  A    between atoms: C1_2  and  C2_4 
REMARK    2  A    between atoms: C3_5  and  C4_6 
REMARK    3  A    between atoms: C11_13  and  C12_15 
REMARK    4  A    between atoms: C13_16  and  C14_17 
ROOT
HETATM    1  C4  UNL     1      22.100   3.335  50.836  1.00  0.00    -0.023 C 
HETATM    2  C5  UNL     1      21.036   3.520  51.611  1.00  0.00    -0.013 C 
HETATM    3  C6  UNL     1      19.939   2.686  52.072  1.00  0.00     0.043 C 
HETATM    4  C7  UNL     1      19.791   1.328  51.550  1.00  0.00     0.006 C 
HETATM    5  C8  UNL     1      18.347   0.839  51.758  1.00  0.00     0.020 C 
HETATM    6  C9  UNL     1      18.895  -0.485  52.251  1.00  0.00     0.038 C 
HETATM    7  C10 UNL     1      20.189   0.242  52.519  1.00  0.00    -0.048 C 
HETATM    8  C11 UNL     1      21.110  -0.226  53.379  1.00  0.00     0.037 C 
HETATM    9 CL1  UNL     1      21.083  -1.703  54.361  1.00  0.00    -0.084 Cl
HETATM   10  C16 UNL     1      20.171   1.052  50.139  1.00  0.00     0.162 C 
HETATM   11  N2  UNL     1      21.603   1.067  49.913  1.00  0.00    -0.300 NA
HETATM   12  C17 UNL     1      22.388   2.045  50.218  1.00  0.00     0.121 C 
ENDROOT
BRANCH   8  13
HETATM   13  C12 UNL     1      22.332   0.544  53.581  1.00  0.00     0.027 C 
HETATM   14  C13 UNL     1      23.509   0.393  52.998  1.00  0.00     0.041 C 
BRANCH  14  15
HETATM   15  C14 UNL     1      24.724   1.165  53.203  1.00  0.00     0.114 C 
HETATM   16  F1  UNL     1      24.666   2.497  53.447  1.00  0.00    -0.209 F 
HETATM   17  C15 UNL     1      25.892   0.582  53.156  1.00  0.00     0.301 C 
HETATM   18 CL2  UNL     1      26.075  -1.131  52.849  1.00  0.00    -0.248 Cl
ENDBRANCH  14  15
ENDBRANCH   8  13
BRANCH   1  19
HETATM   19  C3  UNL     1      23.007   4.444  50.593  1.00  0.00     0.018 C 
HETATM   20  C2  UNL     1      23.390   5.364  51.459  1.00  0.00     0.074 C 
BRANCH  20  21
HETATM   21  C1  UNL     1      24.323   6.431  51.043  1.00  0.00     0.238 C 
HETATM   22  N1  UNL     1      24.099   7.767  51.466  1.00  0.00    -0.367 N 
HETATM   23  H1  UNL     1      24.668   7.892  52.330  1.00  0.00     0.159 HD
HETATM   24  H2  UNL     1      23.481   8.461  50.986  1.00  0.00     0.159 HD
HETATM   25  O1  UNL     1      25.308   6.117  50.317  1.00  0.00    -0.269 OA
ENDBRANCH  20  21
ENDBRANCH   1  19
TORSDOF 4
ENDMDL
MODEL 6
REMARK VINA RESULT:      -7.4      3.010      4.386
REMARK  4 active torsions:
REMARK  status: ('A' for Active; 'I' for Inactive)
REMARK       I    between atoms: N1_1  and  C1_2 
REMARK    1  A    between atoms: C1_2  and  C2_4 
REMARK    2  A    between atoms: C3_5  and  C4_6 
REMARK    3  A    between atoms: C11_13  and  C12_15 
REMARK    4  A    between atoms: C13_16  and  C14_17 
ROOT
HETATM    1  C4  UNL     1      24.414   2.288  52.776  1.00  0.00    -0.023 C 
HETATM    2  C5  UNL     1      23.755   1.251  52.267  1.00  0.00    -0.013 C 
HETATM    3  C6  UNL     1      22.531   1.084  51.501  1.00  0.00     0.043 C 
HETATM    4  C7  UNL     1      21.666   2.238  51.253  1.00  0.00     0.006 C 
HETATM    5  C8  UNL     1      20.246   1.765  50.900  1.00  0.00     0.020 C 
HETATM    6  C9  UNL     1      20.222   2.768  49.766  1.00  0.00     0.038 C 
HETATM    7  C10 UNL     1      21.728   2.770  49.842  1.00  0.00    -0.048 C 
HETATM    8  C11 UNL     1      22.499   3.171  48.816  1.00  0.00     0.037 C 
HETATM    9 CL1  UNL     1      22.018   3.765  47.216  1.00  0.00    -0.084 Cl
HETATM   10  C16 UNL     1      21.554   3.293  52.295  1.00  0.00     0.162 C 
HETATM   11  N2  UNL     1      22.744   4.112  52.420  1.00  0.00    -0.300 NA
HETATM   12  C17 UNL     1      23.935   3.658  52.622  1.00  0.00     0.121 C 
ENDROOT
BRANCH   8  13
HETATM   13  C12 UNL     1      23.948   3.136  48.976  1.00  0.00     0.027 C 
HETATM   14  C13 UNL     1      24.766   4.122  49.301  1.00  0.00     0.041 C 
BRANCH  14  15
HETATM   15  C14 UNL     1      26.212   4.081  49.459  1.00  0.00     0.114 C 
HETATM   16  F1  UNL     1      26.813   3.027  50.062  1.00  0.00    -0.209 F 
HETATM   17  C15 UNL     1      26.951   5.064  49.019  1.00  0.00     0.301 C 
HETATM   18 CL2  UNL     1      26.273   6.470  48.227  1.00  0.00    -0.248 Cl
ENDBRANCH  14  15
ENDBRANCH   8  13
BRANCH   1  19
HETATM   19  C3  UNL     1      25.648   2.057  53.508  1.00  0.00     0.018 C 
HETATM   20  C2  UNL     1      26.415   0.984  53.458  1.00  0.00     0.074 C 
BRANCH  20  21
HETATM   21  C1  UNL     1      27.645   0.913  54.273  1.00  0.00     0.238 C 
HETATM   22  N1  UNL     1      28.045  -0.327  54.837  1.00  0.00    -0.367 N 
HETATM   23  H1  UNL     1      28.719  -0.744  54.159  1.00  0.00     0.159 HD
HETATM   24  H2  UNL     1      27.712  -0.717  55.748  1.00  0.00     0.159 HD
HETATM   25  O1  UNL     1      28.313   1.971  54.446  1.00  0.00    -0.269 OA
ENDBRANCH  20  21
ENDBRANCH   1  19
TORSDOF 4
ENDMDL
MODEL 7
REMARK VINA RESULT:      -7.2      2.879      3.297
REMARK  4 active torsions:
REMARK  status: ('A' for Active; 'I' for Inactive)
REMARK       I    between atoms: N1_1  and  C1_2 
REMARK    1  A    between atoms: C1_2  and  C2_4 
REMARK    2  A    between atoms: C3_5  and  C4_6 
REMARK    3  A    between atoms: C11_13  and  C12_15 
REMARK    4  A    between atoms: C13_16  and  C14_17 
ROOT
HETATM    1  C4  UNL     1      20.125   1.018  51.337  1.00  0.00    -0.023 C 
HETATM    2  C5  UNL     1      20.779   0.513  50.294  1.00  0.00    -0.013 C 
HETATM    3  C6  UNL     1      21.587   1.064  49.220  1.00  0.00     0.043 C 
HETATM    4  C7  UNL     1      21.704   2.514  49.070  1.00  0.00     0.006 C 
HETATM    5  C8  UNL     1      22.146   2.861  47.638  1.00  0.00     0.020 C 
HETATM    6  C9  UNL     1      23.143   3.846  48.213  1.00  0.00     0.038 C 
HETATM    7  C10 UNL     1      23.033   3.079  49.507  1.00  0.00    -0.048 C 
HETATM    8  C11 UNL     1      23.982   3.136  50.458  1.00  0.00     0.037 C 
HETATM    9 CL1  UNL     1      25.503   4.048  50.474  1.00  0.00    -0.084 Cl
HETATM   10  C16 UNL     1      20.538   3.371  49.411  1.00  0.00     0.162 C 
HETATM   11  N2  UNL     1      20.282   3.461  50.835  1.00  0.00    -0.300 NA
HETATM   12  C17 UNL     1      20.113   2.449  51.620  1.00  0.00     0.121 C 
ENDROOT
BRANCH   8  13
HETATM   13  C12 UNL     1      23.795   2.358  51.677  1.00  0.00     0.027 C 
HETATM   14  C13 UNL     1      24.104   1.093  51.905  1.00  0.00     0.041 C 
BRANCH  14  15
HETATM   15  C14 UNL     1      23.916   0.322  53.124  1.00  0.00     0.114 C 
HETATM   16  F1  UNL     1      22.786   0.456  53.860  1.00  0.00    -0.209 F 
HETATM   17  C15 UNL     1      24.837  -0.514  53.524  1.00  0.00     0.301 C 
HETATM   18 CL2  UNL     1      26.330  -0.759  52.646  1.00  0.00    -0.248 Cl
ENDBRANCH  14  15
ENDBRANCH   8  13
BRANCH   1  19
HETATM   19  C3  UNL     1      19.402   0.124  52.225  1.00  0.00     0.018 C 
HETATM   20  C2  UNL     1      18.232  -0.446  52.002  1.00  0.00     0.074 C 
BRANCH  20  21
HETATM   21  C1  UNL     1      17.634  -1.334  53.020  1.00  0.00     0.238 C 
HETATM   22  N1  UNL     1      16.239  -1.269  53.279  1.00  0.00    -0.367 N 
HETATM   23  H1  UNL     1      15.805  -2.005  52.682  1.00  0.00     0.159 HD
HETATM   24  H2  UNL     1      15.774  -0.607  53.939  1.00  0.00     0.159 HD
HETATM   25  O1  UNL     1      18.390  -2.137  53.636  1.00  0.00    -0.269 OA
ENDBRANCH  20  21
ENDBRANCH   1  19
TORSDOF 4
ENDMDL
MODEL 8
REMARK VINA RESULT:      -6.9      4.171      6.959
REMARK  4 active torsions:
REMARK  status: ('A' for Active; 'I' for Inactive)
REMARK       I    between atoms: N1_1  and  C1_2 
REMARK    1  A    between atoms: C1_2  and  C2_4 
REMARK    2  A    between atoms: C3_5  and  C4_6 
REMARK    3  A    between atoms: C11_13  and  C12_15 
REMARK    4  A    between atoms: C13_16  and  C14_17 
ROOT
HETATM    1  C4  UNL     1      25.597   3.749  50.533  1.00  0.00    -0.023 C 
HETATM    2  C5  UNL     1      25.900   2.471  50.747  1.00  0.00    -0.013 C 
HETATM    3  C6  UNL     1      25.315   1.389  51.521  1.00  0.00     0.043 C 
HETATM    4  C7  UNL     1      24.181   1.659  52.404  1.00  0.00     0.006 C 
HETATM    5  C8  UNL     1      24.065   0.551  53.465  1.00  0.00     0.020 C 
HETATM    6  C9  UNL     1      22.572   0.504  53.214  1.00  0.00     0.038 C 
HETATM    7  C10 UNL     1      22.856   1.158  51.885  1.00  0.00    -0.048 C 
HETATM    8  C11 UNL     1      21.994   1.094  50.855  1.00  0.00     0.037 C 
HETATM    9 CL1  UNL     1      20.412   0.298  50.761  1.00  0.00    -0.084 Cl
HETATM   10  C16 UNL     1      24.104   2.971  53.099  1.00  0.00     0.162 C 
HETATM   11  N2  UNL     1      23.780   4.075  52.217  1.00  0.00    -0.300 NA
HETATM   12  C17 UNL     1      24.429   4.376  51.142  1.00  0.00     0.121 C 
ENDROOT
BRANCH   8  13
HETATM   13  C12 UNL     1      22.351   1.753  49.603  1.00  0.00     0.027 C 
HETATM   14  C13 UNL     1      21.890   2.888  49.107  1.00  0.00     0.041 C 
BRANCH  14  15
HETATM   15  C14 UNL     1      22.251   3.541  47.858  1.00  0.00     0.114 C 
HETATM   16  F1  UNL     1      22.517   2.811  46.748  1.00  0.00    -0.209 F 
HETATM   17  C15 UNL     1      22.322   4.843  47.792  1.00  0.00     0.301 C 
HETATM   18 CL2  UNL     1      21.997   5.874  49.168  1.00  0.00    -0.248 Cl
ENDBRANCH  14  15
ENDBRANCH   8  13
BRANCH   1  19
HETATM   19  C3  UNL     1      26.448   4.547  49.667  1.00  0.00     0.018 C 
HETATM   20  C2  UNL     1      26.256   5.799  49.296  1.00  0.00     0.074 C 
BRANCH  20  21
HETATM   21  C1  UNL     1      27.227   6.465  48.404  1.00  0.00     0.238 C 
HETATM   22  N1  UNL     1      28.617   6.235  48.579  1.00  0.00    -0.367 N 
HETATM   23  H1  UNL     1      28.862   5.462  47.925  1.00  0.00     0.159 HD
HETATM   24  H2  UNL     1      29.241   6.753  49.240  1.00  0.00     0.159 HD
HETATM   25  O1  UNL     1      26.786   7.229  47.499  1.00  0.00    -0.269 OA
ENDBRANCH  20  21
ENDBRANCH   1  19
TORSDOF 4
ENDMDL
MODEL 9
REMARK VINA RESULT:      -6.9      7.692     10.280
REMARK  4 active torsions:
REMARK  status: ('A' for Active; 'I' for Inactive)
REMARK       I    between atoms: N1_1  and  C1_2 
REMARK    1  A    between atoms: C1_2  and  C2_4 
REMARK    2  A    between atoms: C3_5  and  C4_6 
REMARK    3  A    between atoms: C11_13  and  C12_15 
REMARK    4  A    between atoms: C13_16  and  C14_17 
ROOT
HETATM    1  C4  UNL     1      31.824   7.645  48.389  1.00  0.00    -0.023 C 
HETATM    2  C5  UNL     1      31.651   8.478  49.412  1.00  0.00    -0.013 C 
HETATM    3  C6  UNL     1      30.870   9.682  49.639  1.00  0.00     0.043 C 
HETATM    4  C7  UNL     1      30.135  10.290  48.530  1.00  0.00     0.006 C 
HETATM    5  C8  UNL     1      29.826  11.763  48.849  1.00  0.00     0.020 C 
HETATM    6  C9  UNL     1      28.412  11.546  48.350  1.00  0.00     0.038 C 
HETATM    7  C10 UNL     1      28.643  10.073  48.578  1.00  0.00    -0.048 C 
HETATM    8  C11 UNL     1      27.629   9.202  48.726  1.00  0.00     0.037 C 
HETATM    9 CL1  UNL     1      25.881   9.497  48.695  1.00  0.00    -0.084 Cl
HETATM   10  C16 UNL     1      30.713  10.228  47.161  1.00  0.00     0.162 C 
HETATM   11  N2  UNL     1      30.663   8.905  46.571  1.00  0.00    -0.300 NA
HETATM   12  C17 UNL     1      31.140   7.836  47.115  1.00  0.00     0.121 C 
ENDROOT
BRANCH   8  13
HETATM   13  C12 UNL     1      27.945   7.795  48.947  1.00  0.00     0.027 C 
HETATM   14  C13 UNL     1      27.785   6.774  48.123  1.00  0.00     0.041 C 
BRANCH  14  15
HETATM   15  C14 UNL     1      28.102   5.372  48.349  1.00  0.00     0.114 C 
HETATM   16  F1  UNL     1      29.313   4.872  48.003  1.00  0.00    -0.209 F 
HETATM   17  C15 UNL     1      27.220   4.576  48.892  1.00  0.00     0.301 C 
HETATM   18 CL2  UNL     1      25.630   5.124  49.374  1.00  0.00    -0.248 Cl
ENDBRANCH  14  15
ENDBRANCH   8  13
BRANCH   1  19
HETATM   19  C3  UNL     1      32.717   6.508  48.540  1.00  0.00     0.018 C 
HETATM   20  C2  UNL     1      34.013   6.475  48.294  1.00  0.00     0.074 C 
BRANCH  20  21
HETATM   21  C1  UNL     1      34.776   5.228  48.502  1.00  0.00     0.238 C 
HETATM   22  N1  UNL     1      35.489   5.032  49.714  1.00  0.00    -0.367 N 
HETATM   23  H1  UNL     1      34.847   4.498  50.338  1.00  0.00     0.159 HD
HETATM   24  H2  UNL     1      36.459   5.368  49.910  1.00  0.00     0.159 HD
HETATM   25  O1  UNL     1      34.771   4.360  47.584  1.00  0.00    -0.269 OA
ENDBRANCH  20  21
ENDBRANCH   1  19
TORSDOF 4
ENDMDL
