MODEL 1
REMARK VINA RESULT:      -7.5      0.000      0.000
REMARK  4 active torsions:
REMARK  status: ('A' for Active; 'I' for Inactive)
REMARK    1  A    between atoms: C2_2  and  O1_3 
REMARK    2  A    between atoms: O1_3  and  C3_4 
REMARK    3  A    between atoms: C7_9  and  N2_10 
REMARK    4  A    between atoms: N3_12  and  C9_13 
ROOT
HETATM    1  C3  UNL     1      24.239   3.295  49.775  1.00  0.00     0.049 C 
HETATM    2  C4  UNL     1      23.001   2.947  49.338  1.00  0.00     0.051 C 
HETATM    3  C5  UNL     1      22.234   1.845  49.964  1.00  0.00     0.285 C 
HETATM    4  N1  UNL     1      21.522   0.919  50.432  1.00  0.00    -0.395 NA
HETATM    5  C6  UNL     1      21.823   0.177  51.591  1.00  0.00     0.103 C 
HETATM    6  C7  UNL     1      22.734   0.424  52.500  1.00  0.00     0.035 C 
HETATM    7  C8  UNL     1      23.778   0.763  53.408  1.00  0.00     0.180 C 
HETATM    8  N3  UNL     1      24.948   1.461  52.966  1.00  0.00    -0.375 N 
HETATM    9  C15 UNL     1      24.859   2.793  52.252  1.00  0.00     0.130 C 
HETATM   10  C16 UNL     1      24.568   2.395  50.827  1.00  0.00     0.084 C 
ENDROOT
BRANCH   8  11
HETATM   11  C9  UNL     1      26.267   0.894  53.159  1.00  0.00     0.032 A 
HETATM   12  C10 UNL     1      27.317   1.668  53.558  1.00  0.00     0.032 A 
HETATM   13  C11 UNL     1      28.591   1.176  53.735  1.00  0.00     0.046 A 
HETATM   14  C12 UNL     1      28.868  -0.149  53.514  1.00  0.00     0.138 A 
HETATM   15  F1  UNL     1      30.099  -0.664  53.676  1.00  0.00    -0.204 F 
HETATM   16  C13 UNL     1      27.839  -0.957  53.113  1.00  0.00     0.074 A 
HETATM   17 CL1  UNL     1      28.124  -2.676  52.809  1.00  0.00    -0.081 Cl
HETATM   18  C14 UNL     1      26.582  -0.437  52.945  1.00  0.00     0.056 A 
ENDBRANCH   8  11
BRANCH   6  19
HETATM   19  N2  UNL     1      22.095  -0.797  53.002  1.00  0.00    -0.400 N 
HETATM   20  H9  UNL     1      21.706  -1.749  53.275  1.00  0.00     0.156 HD
HETATM   21  H10 UNL     1      21.820  -1.818  53.151  1.00  0.00     0.156 HD
ENDBRANCH   6  19
BRANCH   1  22
HETATM   22  O1  UNL     1      24.757   4.354  49.071  1.00  0.00    -0.356 OA
BRANCH  22  23
HETATM   23  C2  UNL     1      25.879   5.108  49.447  1.00  0.00     0.170 C 
HETATM   24  C1  UNL     1      27.161   4.468  48.981  1.00  0.00     0.034 C 
ENDBRANCH  22  23
ENDBRANCH   1  22
TORSDOF 4
ENDMDL
MODEL 2
REMARK VINA RESULT:      -7.4      3.687      5.822
REMARK  4 active torsions:
REMARK  status: ('A' for Active; 'I' for Inactive)
REMARK    1  A    between atoms: C2_2  and  O1_3 
REMARK    2  A    between atoms: O1_3  and  C3_4 
REMARK    3  A    between atoms: C7_9  and  N2_10 
REMARK    4  A    between atoms: N3_12  and  C9_13 
ROOT
HETATM    1  C3  UNL     1      25.744  -0.341  54.771  1.00  0.00     0.049 C 
HETATM    2  C4  UNL     1      24.946  -1.148  55.515  1.00  0.00     0.051 C 
HETATM    3  C5  UNL     1      23.476  -1.181  55.326  1.00  0.00     0.285 C 
HETATM    4  N1  UNL     1      22.224  -1.261  55.236  1.00  0.00    -0.395 NA
HETATM    5  C6  UNL     1      21.444  -0.637  54.244  1.00  0.00     0.103 C 
HETATM    6  C7  UNL     1      21.847  -0.058  53.139  1.00  0.00     0.035 C 
HETATM    7  C8  UNL     1      22.393   0.577  51.987  1.00  0.00     0.180 C 
HETATM    8  N3  UNL     1      23.700   1.163  52.012  1.00  0.00    -0.375 N 
HETATM    9  C15 UNL     1      24.924   0.363  52.403  1.00  0.00     0.130 C 
HETATM   10  C16 UNL     1      24.887   0.400  53.910  1.00  0.00     0.084 C 
ENDROOT
BRANCH   8  11
HETATM   11  C9  UNL     1      23.891   2.563  51.694  1.00  0.00     0.032 A 
HETATM   12  C10 UNL     1      23.187   3.536  52.340  1.00  0.00     0.032 A 
HETATM   13  C11 UNL     1      23.322   4.878  52.056  1.00  0.00     0.046 A 
HETATM   14  C12 UNL     1      24.195   5.305  51.088  1.00  0.00     0.138 A 
HETATM   15  F1  UNL     1      24.353   6.606  50.785  1.00  0.00    -0.204 F 
HETATM   16  C13 UNL     1      24.919   4.358  50.420  1.00  0.00     0.074 A 
HETATM   17 CL1  UNL     1      26.062   4.837  49.158  1.00  0.00    -0.081 Cl
HETATM   18  C14 UNL     1      24.762   3.030  50.724  1.00  0.00     0.056 A 
ENDBRANCH   8  11
BRANCH   6  19
HETATM   19  N2  UNL     1      20.389   0.087  53.070  1.00  0.00    -0.400 N 
HETATM   20  H9  UNL     1      19.325   0.058  53.041  1.00  0.00     0.156 HD
HETATM   21  H10 UNL     1      19.342  -0.121  53.075  1.00  0.00     0.156 HD
ENDBRANCH   6  19
BRANCH   1  22
HETATM   22  O1  UNL     1      27.071  -0.486  55.093  1.00  0.00    -0.356 OA
BRANCH  22  23
HETATM   23  C2  UNL     1      28.119   0.300  54.592  1.00  0.00     0.170 C 
HETATM   24  C1  UNL     1      29.165  -0.539  53.905  1.00  0.00     0.034 C 
ENDBRANCH  22  23
ENDBRANCH   1  22
TORSDOF 4
ENDMDL
MODEL 3
REMARK VINA RESULT:      -7.4      2.577      4.302
REMARK  4 active torsions:
REMARK  status: ('A' for Active; 'I' for Inactive)
REMARK    1  A    between atoms: C2_2  and  O1_3 
REMARK    2  A    between atoms: O1_3  and  C3_4 
REMARK    3  A    between atoms: C7_9  and  N2_10 
REMARK    4  A    between atoms: N3_12  and  C9_13 
ROOT
HETATM    1  C3  UNL     1      21.698   2.166  52.554  1.00  0.00     0.049 C 
HETATM    2  C4  UNL     1      21.187   3.404  52.333  1.00  0.00     0.051 C 
HETATM    3  C5  UNL     1      22.031   4.520  51.846  1.00  0.00     0.285 C 
HETATM    4  N1  UNL     1      22.678   5.522  51.444  1.00  0.00    -0.395 NA
HETATM    5  C6  UNL     1      24.018   5.496  51.011  1.00  0.00     0.103 C 
HETATM    6  C7  UNL     1      24.763   4.453  50.737  1.00  0.00     0.035 C 
HETATM    7  C8  UNL     1      25.495   3.254  50.501  1.00  0.00     0.180 C 
HETATM    8  N3  UNL     1      25.198   2.050  51.219  1.00  0.00    -0.375 N 
HETATM    9  C15 UNL     1      23.810   1.445  51.217  1.00  0.00     0.130 C 
HETATM   10  C16 UNL     1      23.091   2.243  52.274  1.00  0.00     0.084 C 
ENDROOT
BRANCH   8  11
HETATM   11  C9  UNL     1      26.216   1.384  52.004  1.00  0.00     0.032 A 
HETATM   12  C10 UNL     1      27.085   2.092  52.781  1.00  0.00     0.032 A 
HETATM   13  C11 UNL     1      28.080   1.502  53.528  1.00  0.00     0.046 A 
HETATM   14  C12 UNL     1      28.245   0.140  53.526  1.00  0.00     0.138 A 
HETATM   15  F1  UNL     1      29.205  -0.470  54.243  1.00  0.00    -0.204 F 
HETATM   16  C13 UNL     1      27.392  -0.604  52.759  1.00  0.00     0.074 A 
HETATM   17 CL1  UNL     1      27.546  -2.365  52.707  1.00  0.00    -0.081 Cl
HETATM   18  C14 UNL     1      26.411   0.013  52.025  1.00  0.00     0.056 A 
ENDBRANCH   8  11
BRANCH   6  19
HETATM   19  N2  UNL     1      25.661   5.578  50.458  1.00  0.00    -0.400 N 
HETATM   20  H9  UNL     1      26.305   6.424  50.387  1.00  0.00     0.156 HD
HETATM   21  H10 UNL     1      26.284   6.439  50.568  1.00  0.00     0.156 HD
ENDBRANCH   6  19
BRANCH   1  22
HETATM   22  O1  UNL     1      20.739   1.279  52.978  1.00  0.00    -0.356 OA
BRANCH  22  23
HETATM   23  C2  UNL     1      20.941  -0.092  53.199  1.00  0.00     0.170 C 
HETATM   24  C1  UNL     1      21.536  -0.355  54.558  1.00  0.00     0.034 C 
ENDBRANCH  22  23
ENDBRANCH   1  22
TORSDOF 4
ENDMDL
MODEL 4
REMARK VINA RESULT:      -7.1      2.988      4.754
REMARK  4 active torsions:
REMARK  status: ('A' for Active; 'I' for Inactive)
REMARK    1  A    between atoms: C2_2  and  O1_3 
REMARK    2  A    between atoms: O1_3  and  C3_4 
REMARK    3  A    between atoms: C7_9  and  N2_10 
REMARK    4  A    between atoms: N3_12  and  C9_13 
ROOT
HETATM    1  C3  UNL     1      22.453   4.285  51.918  1.00  0.00     0.049 C 
HETATM    2  C4  UNL     1      22.415   5.545  51.414  1.00  0.00     0.051 C 
HETATM    3  C5  UNL     1      23.583   6.145  50.727  1.00  0.00     0.285 C 
HETATM    4  N1  UNL     1      24.530   6.731  50.141  1.00  0.00    -0.395 NA
HETATM    5  C6  UNL     1      25.748   6.128  49.773  1.00  0.00     0.103 C 
HETATM    6  C7  UNL     1      26.053   4.853  49.761  1.00  0.00     0.035 C 
HETATM    7  C8  UNL     1      26.290   3.450  49.820  1.00  0.00     0.180 C 
HETATM    8  N3  UNL     1      25.611   2.622  50.771  1.00  0.00    -0.375 N 
HETATM    9  C15 UNL     1      24.099   2.576  50.850  1.00  0.00     0.130 C 
HETATM   10  C16 UNL     1      23.766   3.789  51.681  1.00  0.00     0.084 C 
ENDROOT
BRANCH   8  11
HETATM   11  C9  UNL     1      26.354   1.819  51.721  1.00  0.00     0.032 A 
HETATM   12  C10 UNL     1      26.042   0.509  51.933  1.00  0.00     0.032 A 
HETATM   13  C11 UNL     1      26.709  -0.286  52.840  1.00  0.00     0.046 A 
HETATM   14  C12 UNL     1      27.743   0.218  53.588  1.00  0.00     0.138 A 
HETATM   15  F1  UNL     1      28.415  -0.528  54.481  1.00  0.00    -0.204 F 
HETATM   16  C13 UNL     1      28.084   1.529  53.401  1.00  0.00     0.074 A 
HETATM   17 CL1  UNL     1      29.407   2.245  54.331  1.00  0.00    -0.081 Cl
HETATM   18  C14 UNL     1      27.401   2.295  52.491  1.00  0.00     0.056 A 
ENDBRANCH   8  11
BRANCH   6  19
HETATM   19  N2  UNL     1      27.284   5.488  49.277  1.00  0.00    -0.400 N 
HETATM   20  H9  UNL     1      28.116   5.954  48.805  1.00  0.00     0.156 HD
HETATM   21  H10 UNL     1      28.013   5.957  48.654  1.00  0.00     0.156 HD
ENDBRANCH   6  19
BRANCH   1  22
HETATM   22  O1  UNL     1      21.259   3.921  52.490  1.00  0.00    -0.356 OA
BRANCH  22  23
HETATM   23  C2  UNL     1      20.673   2.649  52.404  1.00  0.00     0.170 C 
HETATM   24  C1  UNL     1      19.295   2.711  51.798  1.00  0.00     0.034 C 
ENDBRANCH  22  23
ENDBRANCH   1  22
TORSDOF 4
ENDMDL
MODEL 5
REMARK VINA RESULT:      -6.9      4.008      6.495
REMARK  4 active torsions:
REMARK  status: ('A' for Active; 'I' for Inactive)
REMARK    1  A    between atoms: C2_2  and  O1_3 
REMARK    2  A    between atoms: O1_3  and  C3_4 
REMARK    3  A    between atoms: C7_9  and  N2_10 
REMARK    4  A    between atoms: N3_12  and  C9_13 
ROOT
HETATM    1  C3  UNL     1      26.210   1.903  51.629  1.00  0.00     0.049 C 
HETATM    2  C4  UNL     1      25.264   1.922  52.603  1.00  0.00     0.051 C 
HETATM    3  C5  UNL     1      24.356   3.079  52.787  1.00  0.00     0.285 C 
HETATM    4  N1  UNL     1      23.556   4.022  53.016  1.00  0.00    -0.395 NA
HETATM    5  C6  UNL     1      23.400   5.164  52.206  1.00  0.00     0.103 C 
HETATM    6  C7  UNL     1      23.864   5.372  50.998  1.00  0.00     0.035 C 
HETATM    7  C8  UNL     1      24.445   5.509  49.705  1.00  0.00     0.180 C 
HETATM    8  N3  UNL     1      25.665   4.840  49.364  1.00  0.00    -0.375 N 
HETATM    9  C15 UNL     1      25.812   3.339  49.495  1.00  0.00     0.130 C 
HETATM   10  C16 UNL     1      26.129   3.156  50.958  1.00  0.00     0.084 C 
ENDROOT
BRANCH   8  11
HETATM   11  C9  UNL     1      26.820   5.588  48.912  1.00  0.00     0.032 A 
HETATM   12  C10 UNL     1      26.784   6.947  48.805  1.00  0.00     0.032 A 
HETATM   13  C11 UNL     1      27.851   7.696  48.361  1.00  0.00     0.046 A 
HETATM   14  C12 UNL     1      29.028   7.093  47.997  1.00  0.00     0.138 A 
HETATM   15  F1  UNL     1      30.090   7.791  47.559  1.00  0.00    -0.204 F 
HETATM   16  C13 UNL     1      29.102   5.730  48.091  1.00  0.00     0.074 A 
HETATM   17 CL1  UNL     1      30.588   4.886  47.639  1.00  0.00    -0.081 Cl
HETATM   18  C14 UNL     1      28.022   5.012  48.537  1.00  0.00     0.056 A 
ENDBRANCH   8  11
BRANCH   6  19
HETATM   19  N2  UNL     1      23.128   6.609  51.283  1.00  0.00    -0.400 N 
HETATM   20  H9  UNL     1      22.710   7.571  51.463  1.00  0.00     0.156 HD
HETATM   21  H10 UNL     1      22.873   7.637  51.416  1.00  0.00     0.156 HD
ENDBRANCH   6  19
BRANCH   1  22
HETATM   22  O1  UNL     1      26.921   0.729  51.622  1.00  0.00    -0.356 OA
BRANCH  22  23
HETATM   23  C2  UNL     1      27.169  -0.077  52.744  1.00  0.00     0.170 C 
HETATM   24  C1  UNL     1      26.725  -1.499  52.516  1.00  0.00     0.034 C 
ENDBRANCH  22  23
ENDBRANCH   1  22
TORSDOF 4
ENDMDL
MODEL 6
REMARK VINA RESULT:      -6.8      3.574      5.744
REMARK  4 active torsions:
REMARK  status: ('A' for Active; 'I' for Inactive)
REMARK    1  A    between atoms: C2_2  and  O1_3 
REMARK    2  A    between atoms: O1_3  and  C3_4 
REMARK    3  A    between atoms: C7_9  and  N2_10 
REMARK    4  A    between atoms: N3_12  and  C9_13 
ROOT
HETATM    1  C3  UNL     1      26.152   2.046  51.570  1.00  0.00     0.049 C 
HETATM    2  C4  UNL     1      26.479   2.848  50.524  1.00  0.00     0.051 C 
HETATM    3  C5  UNL     1      25.453   3.622  49.785  1.00  0.00     0.285 C 
HETATM    4  N1  UNL     1      24.647   4.303  49.101  1.00  0.00    -0.395 NA
HETATM    5  C6  UNL     1      23.279   4.467  49.394  1.00  0.00     0.103 C 
HETATM    6  C7  UNL     1      22.640   4.153  50.494  1.00  0.00     0.035 C 
HETATM    7  C8  UNL     1      22.038   3.741  51.717  1.00  0.00     0.180 C 
HETATM    8  N3  UNL     1      22.561   2.638  52.467  1.00  0.00    -0.375 N 
HETATM    9  C15 UNL     1      24.003   2.602  52.928  1.00  0.00     0.130 C 
HETATM   10  C16 UNL     1      24.737   2.109  51.707  1.00  0.00     0.084 C 
ENDROOT
BRANCH   8  11
HETATM   11  C9  UNL     1      21.730   1.495  52.784  1.00  0.00     0.032 A 
HETATM   12  C10 UNL     1      20.460   1.390  52.300  1.00  0.00     0.032 A 
HETATM   13  C11 UNL     1      19.628   0.331  52.591  1.00  0.00     0.046 A 
HETATM   14  C12 UNL     1      20.052  -0.692  53.400  1.00  0.00     0.138 A 
HETATM   15  F1  UNL     1      19.268  -1.741  53.705  1.00  0.00    -0.204 F 
HETATM   16  C13 UNL     1      21.322  -0.622  53.903  1.00  0.00     0.074 A 
HETATM   17 CL1  UNL     1      21.935  -1.906  54.954  1.00  0.00    -0.081 Cl
HETATM   18  C14 UNL     1      22.126   0.446  53.596  1.00  0.00     0.056 A 
ENDBRANCH   8  11
BRANCH   6  19
HETATM   19  N2  UNL     1      21.585   4.737  49.660  1.00  0.00    -0.400 N 
HETATM   20  H9  UNL     1      20.772   5.217  49.168  1.00  0.00     0.156 HD
HETATM   21  H10 UNL     1      20.731   5.287  49.331  1.00  0.00     0.156 HD
ENDBRANCH   6  19
BRANCH   1  22
HETATM   22  O1  UNL     1      27.255   1.444  52.123  1.00  0.00    -0.356 OA
BRANCH  22  23
HETATM   23  C2  UNL     1      27.226   0.370  53.027  1.00  0.00     0.170 C 
HETATM   24  C1  UNL     1      26.640  -0.869  52.401  1.00  0.00     0.034 C 
ENDBRANCH  22  23
ENDBRANCH   1  22
TORSDOF 4
ENDMDL
MODEL 7
REMARK VINA RESULT:      -6.7      3.919      6.299
REMARK  4 active torsions:
REMARK  status: ('A' for Active; 'I' for Inactive)
REMARK    1  A    between atoms: C2_2  and  O1_3 
REMARK    2  A    between atoms: O1_3  and  C3_4 
REMARK    3  A    between atoms: C7_9  and  N2_10 
REMARK    4  A    between atoms: N3_12  and  C9_13 
ROOT
HETATM    1  C3  UNL     1      26.907   1.584  52.456  1.00  0.00     0.049 C 
HETATM    2  C4  UNL     1      25.879   0.941  53.065  1.00  0.00     0.051 C 
HETATM    3  C5  UNL     1      24.465   1.251  52.746  1.00  0.00     0.285 C 
HETATM    4  N1  UNL     1      23.242   1.461  52.540  1.00  0.00    -0.395 NA
HETATM    5  C6  UNL     1      22.725   2.298  51.532  1.00  0.00     0.103 C 
HETATM    6  C7  UNL     1      23.356   2.828  50.513  1.00  0.00     0.035 C 
HETATM    7  C8  UNL     1      24.144   3.382  49.464  1.00  0.00     0.180 C 
HETATM    8  N3  UNL     1      25.538   3.656  49.648  1.00  0.00    -0.375 N 
HETATM    9  C15 UNL     1      26.509   2.579  50.084  1.00  0.00     0.130 C 
HETATM   10  C16 UNL     1      26.327   2.544  51.581  1.00  0.00     0.084 C 
ENDROOT
BRANCH   8  11
HETATM   11  C9  UNL     1      26.064   4.991  49.453  1.00  0.00     0.032 A 
HETATM   12  C10 UNL     1      25.487   6.071  50.051  1.00  0.00     0.032 A 
HETATM   13  C11 UNL     1      25.942   7.360  49.879  1.00  0.00     0.046 A 
HETATM   14  C12 UNL     1      27.024   7.621  49.078  1.00  0.00     0.138 A 
HETATM   15  F1  UNL     1      27.496   8.865  48.887  1.00  0.00    -0.204 F 
HETATM   16  C13 UNL     1      27.631   6.561  48.462  1.00  0.00     0.074 A 
HETATM   17 CL1  UNL     1      29.032   6.823  47.415  1.00  0.00    -0.081 Cl
HETATM   18  C14 UNL     1      27.154   5.289  48.653  1.00  0.00     0.056 A 
ENDBRANCH   8  11
BRANCH   6  19
HETATM   19  N2  UNL     1      21.981   3.302  50.327  1.00  0.00    -0.400 N 
HETATM   20  H9  UNL     1      21.036   3.770  50.180  1.00  0.00     0.156 HD
HETATM   21  H10 UNL     1      21.130   3.925  50.159  1.00  0.00     0.156 HD
ENDBRANCH   6  19
BRANCH   1  22
HETATM   22  O1  UNL     1      28.129   1.125  52.882  1.00  0.00    -0.356 OA
BRANCH  22  23
HETATM   23  C2  UNL     1      28.330   0.097  53.815  1.00  0.00     0.170 C 
HETATM   24  C1  UNL     1      29.703  -0.510  53.688  1.00  0.00     0.034 C 
ENDBRANCH  22  23
ENDBRANCH   1  22
TORSDOF 4
ENDMDL
MODEL 8
REMARK VINA RESULT:      -6.6      2.890      4.023
REMARK  4 active torsions:
REMARK  status: ('A' for Active; 'I' for Inactive)
REMARK    1  A    between atoms: C2_2  and  O1_3 
REMARK    2  A    between atoms: O1_3  and  C3_4 
REMARK    3  A    between atoms: C7_9  and  N2_10 
REMARK    4  A    between atoms: N3_12  and  C9_13 
ROOT
HETATM    1  C3  UNL     1      19.999   2.300  50.164  1.00  0.00     0.049 C 
HETATM    2  C4  UNL     1      18.778   1.707  50.206  1.00  0.00     0.051 C 
HETATM    3  C5  UNL     1      18.479   0.604  51.150  1.00  0.00     0.285 C 
HETATM    4  N1  UNL     1      18.147  -0.341  51.911  1.00  0.00    -0.395 NA
HETATM    5  C6  UNL     1      18.939  -0.851  52.958  1.00  0.00     0.103 C 
HETATM    6  C7  UNL     1      20.028  -0.337  53.477  1.00  0.00     0.035 C 
HETATM    7  C8  UNL     1      21.221   0.287  53.942  1.00  0.00     0.180 C 
HETATM    8  N3  UNL     1      22.031   1.083  53.070  1.00  0.00    -0.375 N 
HETATM    9  C15 UNL     1      21.462   2.267  52.316  1.00  0.00     0.130 C 
HETATM   10  C16 UNL     1      20.814   1.625  51.115  1.00  0.00     0.084 C 
ENDROOT
BRANCH   8  11
HETATM   11  C9  UNL     1      23.425   0.759  52.851  1.00  0.00     0.032 A 
HETATM   12  C10 UNL     1      23.985  -0.357  53.398  1.00  0.00     0.032 A 
HETATM   13  C11 UNL     1      25.311  -0.693  53.233  1.00  0.00     0.046 A 
HETATM   14  C12 UNL     1      26.148   0.100  52.489  1.00  0.00     0.138 A 
HETATM   15  F1  UNL     1      27.447  -0.197  52.306  1.00  0.00    -0.204 F 
HETATM   16  C13 UNL     1      25.621   1.228  51.923  1.00  0.00     0.074 A 
HETATM   17 CL1  UNL     1      26.642   2.296  50.952  1.00  0.00    -0.081 Cl
HETATM   18  C14 UNL     1      24.298   1.536  52.107  1.00  0.00     0.056 A 
ENDBRANCH   8  11
BRANCH   6  19
HETATM   19  N2  UNL     1      19.831  -1.555  54.270  1.00  0.00    -0.400 N 
HETATM   20  H9  UNL     1      19.563  -2.443  54.793  1.00  0.00     0.156 HD
HETATM   21  H10 UNL     1      19.404  -2.432  54.704  1.00  0.00     0.156 HD
ENDBRANCH   6  19
BRANCH   1  22
HETATM   22  O1  UNL     1      20.050   3.312  49.237  1.00  0.00    -0.356 OA
BRANCH  22  23
HETATM   23  C2  UNL     1      19.635   4.634  49.454  1.00  0.00     0.170 C 
HETATM   24  C1  UNL     1      20.612   5.390  50.316  1.00  0.00     0.034 C 
ENDBRANCH  22  23
ENDBRANCH   1  22
TORSDOF 4
ENDMDL
MODEL 9
REMARK VINA RESULT:      -6.4      2.860      3.830
REMARK  4 active torsions:
REMARK  status: ('A' for Active; 'I' for Inactive)
REMARK    1  A    between atoms: C2_2  and  O1_3 
REMARK    2  A    between atoms: O1_3  and  C3_4 
REMARK    3  A    between atoms: C7_9  and  N2_10 
REMARK    4  A    between atoms: N3_12  and  C9_13 
ROOT
HETATM    1  C3  UNL     1      24.130   5.495  48.951  1.00  0.00     0.049 C 
HETATM    2  C4  UNL     1      23.067   5.919  48.220  1.00  0.00     0.051 C 
HETATM    3  C5  UNL     1      21.676   5.567  48.590  1.00  0.00     0.285 C 
HETATM    4  N1  UNL     1      20.469   5.307  48.828  1.00  0.00    -0.395 NA
HETATM    5  C6  UNL     1      19.997   4.651  49.982  1.00  0.00     0.103 C 
HETATM    6  C7  UNL     1      20.647   4.388  51.090  1.00  0.00     0.035 C 
HETATM    7  C8  UNL     1      21.454   4.119  52.232  1.00  0.00     0.180 C 
HETATM    8  N3  UNL     1      22.868   3.926  52.113  1.00  0.00    -0.375 N 
HETATM    9  C15 UNL     1      23.762   4.967  51.473  1.00  0.00     0.130 C 
HETATM   10  C16 UNL     1      23.608   4.686  49.999  1.00  0.00     0.084 C 
ENDROOT
BRANCH   8  11
HETATM   11  C9  UNL     1      23.492   2.703  52.575  1.00  0.00     0.032 A 
HETATM   12  C10 UNL     1      24.800   2.678  52.956  1.00  0.00     0.032 A 
HETATM   13  C11 UNL     1      25.439   1.534  53.383  1.00  0.00     0.046 A 
HETATM   14  C12 UNL     1      24.769   0.339  53.445  1.00  0.00     0.138 A 
HETATM   15  F1  UNL     1      25.360  -0.797  53.857  1.00  0.00    -0.204 F 
HETATM   16  C13 UNL     1      23.454   0.325  53.071  1.00  0.00     0.074 A 
HETATM   17 CL1  UNL     1      22.528  -1.181  53.127  1.00  0.00    -0.081 Cl
HETATM   18  C14 UNL     1      22.846   1.480  52.650  1.00  0.00     0.056 A 
ENDBRANCH   8  11
BRANCH   6  19
HETATM   19  N2  UNL     1      19.308   3.853  51.362  1.00  0.00    -0.400 N 
HETATM   20  H9  UNL     1      18.396   3.343  51.560  1.00  0.00     0.156 HD
HETATM   21  H10 UNL     1      18.496   3.190  51.564  1.00  0.00     0.156 HD
ENDBRANCH   6  19
BRANCH   1  22
HETATM   22  O1  UNL     1      25.321   5.954  48.446  1.00  0.00    -0.356 OA
BRANCH  22  23
HETATM   23  C2  UNL     1      26.567   5.853  49.084  1.00  0.00     0.170 C 
HETATM   24  C1  UNL     1      27.147   4.468  48.954  1.00  0.00     0.034 C 
ENDBRANCH  22  23
ENDBRANCH   1  22
TORSDOF 4
ENDMDL
