MODEL 1
REMARK VINA RESULT:      -6.5      0.000      0.000
REMARK  11 active torsions:
REMARK  status: ('A' for Active; 'I' for Inactive)
REMARK    1  A    between atoms: C2_2  and  C3_3 
REMARK       I    between atoms: C3_3  and  N1_5 
REMARK    2  A    between atoms: C5_7  and  C7_9 
REMARK    3  A    between atoms: C7_9  and  C8_10 
REMARK    4  A    between atoms: C8_10  and  O2_11 
REMARK    5  A    between atoms: O2_11  and  C9_12 
REMARK    6  A    between atoms: C10_14  and  N3_15 
REMARK    7  A    between atoms: N3_15  and  C11_16 
REMARK    8  A    between atoms: C11_16  and  C12_17 
REMARK    9  A    between atoms: C15_22  and  C16_23 
REMARK   10  A    between atoms: C16_23  and  C17_24 
REMARK   11  A    between atoms: C18_26  and  N5_27 
ROOT
HETATM    1  C12 UNL     1      32.888   4.872  47.940  1.00  0.00    -0.092 C 
HETATM    2  S1  UNL     1      33.949   4.285  47.529  1.00  0.00    -0.095 SA
HETATM    3  C13 UNL     1      35.236   3.547  47.041  1.00  0.00     0.104 C 
ENDROOT
BRANCH   1   4
HETATM    4  C11 UNL     1      31.682   5.509  48.413  1.00  0.00     0.231 C 
BRANCH   4   5
HETATM    5  N3  UNL     1      30.557   4.936  47.654  1.00  0.00    -0.212 N 
HETATM    6  H13 UNL     1      30.821   4.207  46.958  1.00  0.00     0.178 HD
BRANCH   5   7
HETATM    7  C10 UNL     1      29.299   5.464  47.972  1.00  0.00     0.725 A 
HETATM    8  N2  UNL     1      28.365   4.816  48.491  1.00  0.00    -0.038 NA
HETATM    9  C9  UNL     1      27.171   4.722  48.891  1.00  0.00     0.191 A 
HETATM   10  C15 UNL     1      26.780   6.099  48.509  1.00  0.00     0.019 A 
HETATM   11  C14 UNL     1      27.633   7.094  47.891  1.00  0.00     0.148 A 
HETATM   12  N4  UNL     1      28.937   6.713  47.633  1.00  0.00    -0.075 NA
BRANCH   9  13
HETATM   13  O2  UNL     1      25.906   4.624  49.312  1.00  0.00    -0.334 OA
BRANCH  13  14
HETATM   14  C8  UNL     1      25.091   3.529  49.521  1.00  0.00     0.178 C 
BRANCH  14  15
HETATM   15  C7  UNL     1      25.529   2.698  50.708  1.00  0.00     0.039 C 
BRANCH  15  16
HETATM   16  C5  UNL     1      24.474   2.601  51.760  1.00  0.00    -0.010 C 
HETATM   17  C4  UNL     1      23.490   1.469  51.521  1.00  0.00     0.136 C 
HETATM   18  N1  UNL     1      22.425   2.366  51.914  1.00  0.00    -0.347 N 
HETATM   19  C3  UNL     1      21.101   2.375  52.385  1.00  0.00     0.242 C 
HETATM   20  C19 UNL     1      23.264   3.481  51.555  1.00  0.00     0.136 C 
HETATM   21  O1  UNL     1      20.429   3.421  52.691  1.00  0.00    -0.268 OA
HETATM   22  C6  UNL     1      24.888   2.605  53.195  1.00  0.00     0.018 C 
BRANCH  19  23
HETATM   23  C2  UNL     1      20.203   1.303  52.637  1.00  0.00     0.064 C 
HETATM   24  C1  UNL     1      19.820   0.088  52.573  1.00  0.00     0.017 C 
ENDBRANCH  19  23
ENDBRANCH  15  16
ENDBRANCH  14  15
ENDBRANCH  13  14
ENDBRANCH   9  13
BRANCH  10  25
HETATM   25  C16 UNL     1      25.461   6.884  48.479  1.00  0.00     0.097 C 
BRANCH  25  26
HETATM   26  C17 UNL     1      25.414   7.757  49.682  1.00  0.00     0.031 C 
HETATM   27 CL1  UNL     1      26.308   9.124  50.292  1.00  0.00    -0.087 Cl
HETATM   28  C18 UNL     1      24.421   7.326  50.432  1.00  0.00     0.100 C 
BRANCH  28  29
HETATM   29  N5  UNL     1      24.038   7.882  51.670  1.00  0.00    -0.407 N 
HETATM   30  H23 UNL     1      23.428   8.672  52.056  1.00  0.00     0.155 HD
HETATM   31  H24 UNL     1      23.927   8.081  52.674  1.00  0.00     0.155 HD
ENDBRANCH  28  29
ENDBRANCH  25  26
ENDBRANCH  10  25
ENDBRANCH   5   7
ENDBRANCH   4   5
ENDBRANCH   1   4
TORSDOF 11
ENDMDL
MODEL 2
REMARK VINA RESULT:      -6.5      5.094      7.704
REMARK  11 active torsions:
REMARK  status: ('A' for Active; 'I' for Inactive)
REMARK    1  A    between atoms: C2_2  and  C3_3 
REMARK       I    between atoms: C3_3  and  N1_5 
REMARK    2  A    between atoms: C5_7  and  C7_9 
REMARK    3  A    between atoms: C7_9  and  C8_10 
REMARK    4  A    between atoms: C8_10  and  O2_11 
REMARK    5  A    between atoms: O2_11  and  C9_12 
REMARK    6  A    between atoms: C10_14  and  N3_15 
REMARK    7  A    between atoms: N3_15  and  C11_16 
REMARK    8  A    between atoms: C11_16  and  C12_17 
REMARK    9  A    between atoms: C15_22  and  C16_23 
REMARK   10  A    between atoms: C16_23  and  C17_24 
REMARK   11  A    between atoms: C18_26  and  N5_27 
ROOT
HETATM    1  C12 UNL     1      19.183   4.685  46.028  1.00  0.00    -0.092 C 
HETATM    2  S1  UNL     1      18.089   4.647  46.693  1.00  0.00    -0.095 SA
HETATM    3  C13 UNL     1      16.757   4.627  47.509  1.00  0.00     0.104 C 
ENDROOT
BRANCH   1   4
HETATM    4  C11 UNL     1      20.415   4.756  45.280  1.00  0.00     0.231 C 
BRANCH   4   5
HETATM    5  N3  UNL     1      21.305   3.704  45.801  1.00  0.00    -0.212 N 
HETATM    6  H13 UNL     1      21.269   2.801  45.284  1.00  0.00     0.178 HD
BRANCH   5   7
HETATM    7  C10 UNL     1      22.059   4.069  46.925  1.00  0.00     0.725 A 
HETATM    8  N2  UNL     1      22.268   3.333  47.912  1.00  0.00    -0.038 NA
HETATM    9  C9  UNL     1      22.731   3.140  49.071  1.00  0.00     0.191 A 
HETATM   10  C15 UNL     1      23.254   4.514  49.250  1.00  0.00     0.019 A 
HETATM   11  C14 UNL     1      23.171   5.597  48.291  1.00  0.00     0.148 A 
HETATM   12  N4  UNL     1      22.540   5.313  47.094  1.00  0.00    -0.075 NA
BRANCH   9  13
HETATM   13  O2  UNL     1      23.221   2.937  50.298  1.00  0.00    -0.334 OA
BRANCH  13  14
HETATM   14  C8  UNL     1      23.510   1.779  50.990  1.00  0.00     0.178 C 
BRANCH  14  15
HETATM   15  C7  UNL     1      24.083   2.051  52.365  1.00  0.00     0.039 C 
BRANCH  15  16
HETATM   16  C5  UNL     1      25.569   1.916  52.404  1.00  0.00    -0.010 C 
HETATM   17  C4  UNL     1      26.037   0.492  52.651  1.00  0.00     0.136 C 
HETATM   18  N1  UNL     1      27.036   1.020  53.554  1.00  0.00    -0.347 N 
HETATM   19  C3  UNL     1      28.264   0.699  54.158  1.00  0.00     0.242 C 
HETATM   20  C19 UNL     1      26.215   2.189  53.742  1.00  0.00     0.136 C 
HETATM   21  O1  UNL     1      28.939   1.472  54.923  1.00  0.00    -0.268 OA
HETATM   22  C6  UNL     1      26.374   2.519  51.300  1.00  0.00     0.018 C 
BRANCH  19  23
HETATM   23  C2  UNL     1      29.044  -0.487  54.092  1.00  0.00     0.064 C 
HETATM   24  C1  UNL     1      30.035  -1.188  53.700  1.00  0.00     0.017 C 
ENDBRANCH  19  23
ENDBRANCH  15  16
ENDBRANCH  14  15
ENDBRANCH  13  14
ENDBRANCH   9  13
BRANCH  10  25
HETATM   25  C16 UNL     1      23.879   5.294  50.415  1.00  0.00     0.097 C 
BRANCH  25  26
HETATM   26  C17 UNL     1      25.198   5.816  49.969  1.00  0.00     0.031 C 
HETATM   27 CL1  UNL     1      26.493   5.271  48.937  1.00  0.00    -0.087 Cl
HETATM   28  C18 UNL     1      25.362   6.991  50.542  1.00  0.00     0.100 C 
BRANCH  28  29
HETATM   29  N5  UNL     1      26.489   7.822  50.381  1.00  0.00    -0.407 N 
HETATM   30  H23 UNL     1      27.083   8.510  50.946  1.00  0.00     0.155 HD
HETATM   31  H24 UNL     1      27.305   8.320  50.000  1.00  0.00     0.155 HD
ENDBRANCH  28  29
ENDBRANCH  25  26
ENDBRANCH  10  25
ENDBRANCH   5   7
ENDBRANCH   4   5
ENDBRANCH   1   4
TORSDOF 11
ENDMDL
MODEL 3
REMARK VINA RESULT:      -6.4      4.059      8.018
REMARK  11 active torsions:
REMARK  status: ('A' for Active; 'I' for Inactive)
REMARK    1  A    between atoms: C2_2  and  C3_3 
REMARK       I    between atoms: C3_3  and  N1_5 
REMARK    2  A    between atoms: C5_7  and  C7_9 
REMARK    3  A    between atoms: C7_9  and  C8_10 
REMARK    4  A    between atoms: C8_10  and  O2_11 
REMARK    5  A    between atoms: O2_11  and  C9_12 
REMARK    6  A    between atoms: C10_14  and  N3_15 
REMARK    7  A    between atoms: N3_15  and  C11_16 
REMARK    8  A    between atoms: C11_16  and  C12_17 
REMARK    9  A    between atoms: C15_22  and  C16_23 
REMARK   10  A    between atoms: C16_23  and  C17_24 
REMARK   11  A    between atoms: C18_26  and  N5_27 
ROOT
HETATM    1  C12 UNL     1      28.170   0.018  53.557  1.00  0.00    -0.092 C 
HETATM    2  S1  UNL     1      28.576  -1.187  53.403  1.00  0.00    -0.095 SA
HETATM    3  C13 UNL     1      29.049  -2.661  53.199  1.00  0.00     0.104 C 
ENDROOT
BRANCH   1   4
HETATM    4  C11 UNL     1      27.695   1.372  53.711  1.00  0.00     0.231 C 
BRANCH   4   5
HETATM    5  N3  UNL     1      26.466   1.317  54.520  1.00  0.00    -0.212 N 
HETATM    6  H13 UNL     1      26.605   1.458  55.543  1.00  0.00     0.178 HD
BRANCH   5   7
HETATM    7  C10 UNL     1      25.291   1.070  53.797  1.00  0.00     0.725 A 
HETATM    8  N2  UNL     1      24.589   1.951  53.257  1.00  0.00    -0.038 NA
HETATM    9  C9  UNL     1      23.554   2.312  52.630  1.00  0.00     0.191 A 
HETATM   10  C15 UNL     1      22.954   0.960  52.550  1.00  0.00     0.019 A 
HETATM   11  C14 UNL     1      23.520  -0.265  53.076  1.00  0.00     0.148 A 
HETATM   12  N4  UNL     1      24.741  -0.154  53.716  1.00  0.00    -0.075 NA
BRANCH   9  13
HETATM   13  O2  UNL     1      22.458   2.692  51.966  1.00  0.00    -0.334 OA
BRANCH  13  14
HETATM   14  C8  UNL     1      22.098   3.902  51.407  1.00  0.00     0.178 C 
BRANCH  14  15
HETATM   15  C7  UNL     1      22.237   3.909  49.900  1.00  0.00     0.039 C 
BRANCH  15  16
HETATM   16  C5  UNL     1      22.997   5.092  49.399  1.00  0.00    -0.010 C 
HETATM   17  C4  UNL     1      24.397   4.748  48.922  1.00  0.00     0.136 C 
HETATM   18  N1  UNL     1      24.872   5.946  49.579  1.00  0.00    -0.347 N 
HETATM   19  C3  UNL     1      25.941   6.859  49.582  1.00  0.00     0.242 C 
HETATM   20  C19 UNL     1      23.727   5.893  50.452  1.00  0.00     0.136 C 
HETATM   21  O1  UNL     1      26.023   7.902  50.319  1.00  0.00    -0.268 OA
HETATM   22  C6  UNL     1      22.344   6.000  48.410  1.00  0.00     0.018 C 
BRANCH  19  23
HETATM   23  C2  UNL     1      27.141   6.879  48.822  1.00  0.00     0.064 C 
HETATM   24  C1  UNL     1      28.035   6.359  48.076  1.00  0.00     0.017 C 
ENDBRANCH  19  23
ENDBRANCH  15  16
ENDBRANCH  14  15
ENDBRANCH  13  14
ENDBRANCH   9  13
BRANCH  10  25
HETATM   25  C16 UNL     1      21.606   0.398  52.074  1.00  0.00     0.097 C 
BRANCH  25  26
HETATM   26  C17 UNL     1      20.757   0.155  53.270  1.00  0.00     0.031 C 
HETATM   27 CL1  UNL     1      20.800   0.577  54.961  1.00  0.00    -0.087 Cl
HETATM   28  C18 UNL     1      19.733  -0.572  52.875  1.00  0.00     0.100 C 
BRANCH  28  29
HETATM   29  N5  UNL     1      18.689  -1.024  53.707  1.00  0.00    -0.407 N 
HETATM   30  H23 UNL     1      17.655  -0.825  53.901  1.00  0.00     0.155 HD
HETATM   31  H24 UNL     1      18.130  -1.529  54.409  1.00  0.00     0.155 HD
ENDBRANCH  28  29
ENDBRANCH  25  26
ENDBRANCH  10  25
ENDBRANCH   5   7
ENDBRANCH   4   5
ENDBRANCH   1   4
TORSDOF 11
ENDMDL
MODEL 4
REMARK VINA RESULT:      -6.4      4.145      8.175
REMARK  11 active torsions:
REMARK  status: ('A' for Active; 'I' for Inactive)
REMARK    1  A    between atoms: C2_2  and  C3_3 
REMARK       I    between atoms: C3_3  and  N1_5 
REMARK    2  A    between atoms: C5_7  and  C7_9 
REMARK    3  A    between atoms: C7_9  and  C8_10 
REMARK    4  A    between atoms: C8_10  and  O2_11 
REMARK    5  A    between atoms: O2_11  and  C9_12 
REMARK    6  A    between atoms: C10_14  and  N3_15 
REMARK    7  A    between atoms: N3_15  and  C11_16 
REMARK    8  A    between atoms: C11_16  and  C12_17 
REMARK    9  A    between atoms: C15_22  and  C16_23 
REMARK   10  A    between atoms: C16_23  and  C17_24 
REMARK   11  A    between atoms: C18_26  and  N5_27 
ROOT
HETATM    1  C12 UNL     1      27.537   0.053  54.334  1.00  0.00    -0.092 C 
HETATM    2  S1  UNL     1      28.724  -0.228  53.943  1.00  0.00    -0.095 SA
HETATM    3  C13 UNL     1      30.178  -0.576  53.493  1.00  0.00     0.104 C 
ENDROOT
BRANCH   1   4
HETATM    4  C11 UNL     1      26.205   0.358  54.798  1.00  0.00     0.231 C 
BRANCH   4   5
HETATM    5  N3  UNL     1      25.298  -0.647  54.219  1.00  0.00    -0.212 N 
HETATM    6  H13 UNL     1      25.628  -1.633  54.292  1.00  0.00     0.178 HD
BRANCH   5   7
HETATM    7  C10 UNL     1      24.130  -0.130  53.642  1.00  0.00     0.725 A 
HETATM    8  N2  UNL     1      24.011   1.030  53.194  1.00  0.00    -0.038 NA
HETATM    9  C9  UNL     1      23.314   1.960  52.698  1.00  0.00     0.191 A 
HETATM   10  C15 UNL     1      22.043   1.199  52.686  1.00  0.00     0.019 A 
HETATM   11  C14 UNL     1      21.854  -0.165  53.136  1.00  0.00     0.148 A 
HETATM   12  N4  UNL     1      22.974  -0.814  53.624  1.00  0.00    -0.075 NA
BRANCH   9  13
HETATM   13  O2  UNL     1      22.575   2.942  52.173  1.00  0.00    -0.334 OA
BRANCH  13  14
HETATM   14  C8  UNL     1      22.833   3.841  51.157  1.00  0.00     0.178 C 
BRANCH  14  15
HETATM   15  C7  UNL     1      22.127   5.164  51.360  1.00  0.00     0.039 C 
BRANCH  15  16
HETATM   16  C5  UNL     1      22.860   6.307  50.739  1.00  0.00    -0.010 C 
HETATM   17  C4  UNL     1      23.685   5.904  49.529  1.00  0.00     0.136 C 
HETATM   18  N1  UNL     1      24.746   6.757  50.019  1.00  0.00    -0.347 N 
HETATM   19  C3  UNL     1      25.897   7.446  49.599  1.00  0.00     0.242 C 
HETATM   20  C19 UNL     1      24.205   6.628  51.348  1.00  0.00     0.136 C 
HETATM   21  O1  UNL     1      26.626   8.193  50.340  1.00  0.00    -0.268 OA
HETATM   22  C6  UNL     1      22.111   7.561  50.433  1.00  0.00     0.018 C 
BRANCH  19  23
HETATM   23  C2  UNL     1      26.528   7.502  48.328  1.00  0.00     0.064 C 
HETATM   24  C1  UNL     1      27.532   7.457  47.542  1.00  0.00     0.017 C 
ENDBRANCH  19  23
ENDBRANCH  15  16
ENDBRANCH  14  15
ENDBRANCH  13  14
ENDBRANCH   9  13
BRANCH  10  25
HETATM   25  C16 UNL     1      20.578   1.537  52.375  1.00  0.00     0.097 C 
BRANCH  25  26
HETATM   26  C17 UNL     1      20.303   1.155  50.965  1.00  0.00     0.031 C 
HETATM   27 CL1  UNL     1      21.245   0.801  49.541  1.00  0.00    -0.087 Cl
HETATM   28  C18 UNL     1      18.995   1.089  50.831  1.00  0.00     0.100 C 
BRANCH  28  29
HETATM   29  N5  UNL     1      18.316   0.758  49.641  1.00  0.00    -0.407 N 
HETATM   30  H23 UNL     1      18.287  -0.022  48.908  1.00  0.00     0.155 HD
HETATM   31  H24 UNL     1      17.691   0.764  48.823  1.00  0.00     0.155 HD
ENDBRANCH  28  29
ENDBRANCH  25  26
ENDBRANCH  10  25
ENDBRANCH   5   7
ENDBRANCH   4   5
ENDBRANCH   1   4
TORSDOF 11
ENDMDL
MODEL 5
REMARK VINA RESULT:      -6.3      4.849      7.044
REMARK  11 active torsions:
REMARK  status: ('A' for Active; 'I' for Inactive)
REMARK    1  A    between atoms: C2_2  and  C3_3 
REMARK       I    between atoms: C3_3  and  N1_5 
REMARK    2  A    between atoms: C5_7  and  C7_9 
REMARK    3  A    between atoms: C7_9  and  C8_10 
REMARK    4  A    between atoms: C8_10  and  O2_11 
REMARK    5  A    between atoms: O2_11  and  C9_12 
REMARK    6  A    between atoms: C10_14  and  N3_15 
REMARK    7  A    between atoms: N3_15  and  C11_16 
REMARK    8  A    between atoms: C11_16  and  C12_17 
REMARK    9  A    between atoms: C15_22  and  C16_23 
REMARK   10  A    between atoms: C16_23  and  C17_24 
REMARK   11  A    between atoms: C18_26  and  N5_27 
ROOT
HETATM    1  C12 UNL     1      24.402   5.959  48.964  1.00  0.00    -0.092 C 
HETATM    2  S1  UNL     1      23.534   6.610  48.284  1.00  0.00    -0.095 SA
HETATM    3  C13 UNL     1      22.463   7.381  47.449  1.00  0.00     0.104 C 
ENDROOT
BRANCH   1   4
HETATM    4  C11 UNL     1      25.365   5.203  49.727  1.00  0.00     0.231 C 
BRANCH   4   5
HETATM    5  N3  UNL     1      25.137   3.778  49.432  1.00  0.00    -0.212 N 
HETATM    6  H13 UNL     1      24.706   3.583  48.503  1.00  0.00     0.178 HD
BRANCH   5   7
HETATM    7  C10 UNL     1      25.522   2.893  50.449  1.00  0.00     0.725 A 
HETATM    8  N2  UNL     1      24.741   2.147  51.077  1.00  0.00    -0.038 NA
HETATM    9  C9  UNL     1      24.503   1.314  51.996  1.00  0.00     0.191 A 
HETATM   10  C15 UNL     1      25.889   1.278  52.520  1.00  0.00     0.019 A 
HETATM   11  C14 UNL     1      27.020   2.024  52.010  1.00  0.00     0.148 A 
HETATM   12  N4  UNL     1      26.776   2.851  50.928  1.00  0.00    -0.075 NA
BRANCH   9  13
HETATM   13  O2  UNL     1      24.255   0.433  52.970  1.00  0.00    -0.334 OA
BRANCH  13  14
HETATM   14  C8  UNL     1      23.296  -0.553  53.091  1.00  0.00     0.178 C 
BRANCH  14  15
HETATM   15  C7  UNL     1      22.179  -0.163  54.036  1.00  0.00     0.039 C 
BRANCH  15  16
HETATM   16  C5  UNL     1      21.031   0.481  53.332  1.00  0.00    -0.010 C 
HETATM   17  C4  UNL     1      19.726  -0.278  53.492  1.00  0.00     0.136 C 
HETATM   18  N1  UNL     1      19.459  -0.035  52.091  1.00  0.00    -0.347 N 
HETATM   19  C3  UNL     1      18.413   0.012  51.154  1.00  0.00     0.242 C 
HETATM   20  C19 UNL     1      20.874   0.121  51.873  1.00  0.00     0.136 C 
HETATM   21  O1  UNL     1      18.536   0.324  49.919  1.00  0.00    -0.268 OA
HETATM   22  C6  UNL     1      20.787   1.939  53.541  1.00  0.00     0.018 C 
BRANCH  19  23
HETATM   23  C2  UNL     1      17.025  -0.251  51.305  1.00  0.00     0.064 C 
HETATM   24  C1  UNL     1      15.948  -0.896  51.077  1.00  0.00     0.017 C 
ENDBRANCH  19  23
ENDBRANCH  15  16
ENDBRANCH  14  15
ENDBRANCH  13  14
ENDBRANCH   9  13
BRANCH  10  25
HETATM   25  C16 UNL     1      26.572   0.640  53.738  1.00  0.00     0.097 C 
BRANCH  25  26
HETATM   26  C17 UNL     1      27.212  -0.628  53.299  1.00  0.00     0.031 C 
HETATM   27 CL1  UNL     1      26.758  -2.011  52.338  1.00  0.00    -0.087 Cl
HETATM   28  C18 UNL     1      28.428  -0.642  53.806  1.00  0.00     0.100 C 
BRANCH  28  29
HETATM   29  N5  UNL     1      29.369  -1.677  53.628  1.00  0.00    -0.407 N 
HETATM   30  H23 UNL     1      29.643  -2.615  54.064  1.00  0.00     0.155 HD
HETATM   31  H24 UNL     1      30.140  -2.264  53.283  1.00  0.00     0.155 HD
ENDBRANCH  28  29
ENDBRANCH  25  26
ENDBRANCH  10  25
ENDBRANCH   5   7
ENDBRANCH   4   5
ENDBRANCH   1   4
TORSDOF 11
ENDMDL
MODEL 6
REMARK VINA RESULT:      -6.3      5.309      9.106
REMARK  11 active torsions:
REMARK  status: ('A' for Active; 'I' for Inactive)
REMARK    1  A    between atoms: C2_2  and  C3_3 
REMARK       I    between atoms: C3_3  and  N1_5 
REMARK    2  A    between atoms: C5_7  and  C7_9 
REMARK    3  A    between atoms: C7_9  and  C8_10 
REMARK    4  A    between atoms: C8_10  and  O2_11 
REMARK    5  A    between atoms: O2_11  and  C9_12 
REMARK    6  A    between atoms: C10_14  and  N3_15 
REMARK    7  A    between atoms: N3_15  and  C11_16 
REMARK    8  A    between atoms: C11_16  and  C12_17 
REMARK    9  A    between atoms: C15_22  and  C16_23 
REMARK   10  A    between atoms: C16_23  and  C17_24 
REMARK   11  A    between atoms: C18_26  and  N5_27 
ROOT
HETATM    1  C12 UNL     1      16.227   3.393  49.439  1.00  0.00    -0.092 C 
HETATM    2  S1  UNL     1      15.307   4.115  48.918  1.00  0.00    -0.095 SA
HETATM    3  C13 UNL     1      14.190   5.016  48.301  1.00  0.00     0.104 C 
ENDROOT
BRANCH   1   4
HETATM    4  C11 UNL     1      17.274   2.601  50.038  1.00  0.00     0.231 C 
BRANCH   4   5
HETATM    5  N3  UNL     1      18.455   2.703  49.164  1.00  0.00    -0.212 N 
HETATM    6  H13 UNL     1      18.354   2.250  48.231  1.00  0.00     0.178 HD
BRANCH   5   7
HETATM    7  C10 UNL     1      19.547   3.384  49.719  1.00  0.00     0.725 A 
HETATM    8  N2  UNL     1      20.318   2.911  50.581  1.00  0.00    -0.038 NA
HETATM    9  C9  UNL     1      21.281   3.028  51.389  1.00  0.00     0.191 A 
HETATM   10  C15 UNL     1      21.548   4.454  51.092  1.00  0.00     0.019 A 
HETATM   11  C14 UNL     1      20.832   5.283  50.144  1.00  0.00     0.148 A 
HETATM   12  N4  UNL     1      19.799   4.677  49.452  1.00  0.00    -0.075 NA
BRANCH   9  13
HETATM   13  O2  UNL     1      22.301   3.154  52.245  1.00  0.00    -0.334 OA
BRANCH  13  14
HETATM   14  C8  UNL     1      23.271   2.261  52.653  1.00  0.00     0.178 C 
BRANCH  14  15
HETATM   15  C7  UNL     1      24.100   1.738  51.499  1.00  0.00     0.039 C 
BRANCH  15  16
HETATM   16  C5  UNL     1      25.566   1.790  51.776  1.00  0.00    -0.010 C 
HETATM   17  C4  UNL     1      26.172   0.427  52.060  1.00  0.00     0.136 C 
HETATM   18  N1  UNL     1      26.938   1.035  53.127  1.00  0.00    -0.347 N 
HETATM   19  C3  UNL     1      28.086   0.845  53.915  1.00  0.00     0.242 C 
HETATM   20  C19 UNL     1      25.951   2.082  53.208  1.00  0.00     0.136 C 
HETATM   21  O1  UNL     1      28.524   1.661  54.798  1.00  0.00    -0.268 OA
HETATM   22  C6  UNL     1      26.449   2.540  50.833  1.00  0.00     0.018 C 
BRANCH  19  23
HETATM   23  C2  UNL     1      29.016  -0.229  53.947  1.00  0.00     0.064 C 
HETATM   24  C1  UNL     1      30.087  -0.830  53.601  1.00  0.00     0.017 C 
ENDBRANCH  19  23
ENDBRANCH  15  16
ENDBRANCH  14  15
ENDBRANCH  13  14
ENDBRANCH   9  13
BRANCH  10  25
HETATM   25  C16 UNL     1      22.465   5.533  51.685  1.00  0.00     0.097 C 
BRANCH  25  26
HETATM   26  C17 UNL     1      23.652   5.671  50.800  1.00  0.00     0.031 C 
HETATM   27 CL1  UNL     1      24.245   4.910  49.347  1.00  0.00    -0.087 Cl
HETATM   28  C18 UNL     1      24.403   6.627  51.307  1.00  0.00     0.100 C 
BRANCH  28  29
HETATM   29  N5  UNL     1      25.627   7.070  50.767  1.00  0.00    -0.407 N 
HETATM   30  H23 UNL     1      26.679   6.931  50.907  1.00  0.00     0.155 HD
HETATM   31  H24 UNL     1      26.347   7.542  50.202  1.00  0.00     0.155 HD
ENDBRANCH  28  29
ENDBRANCH  25  26
ENDBRANCH  10  25
ENDBRANCH   5   7
ENDBRANCH   4   5
ENDBRANCH   1   4
TORSDOF 11
ENDMDL
MODEL 7
REMARK VINA RESULT:      -6.2      5.217      8.134
REMARK  11 active torsions:
REMARK  status: ('A' for Active; 'I' for Inactive)
REMARK    1  A    between atoms: C2_2  and  C3_3 
REMARK       I    between atoms: C3_3  and  N1_5 
REMARK    2  A    between atoms: C5_7  and  C7_9 
REMARK    3  A    between atoms: C7_9  and  C8_10 
REMARK    4  A    between atoms: C8_10  and  O2_11 
REMARK    5  A    between atoms: O2_11  and  C9_12 
REMARK    6  A    between atoms: C10_14  and  N3_15 
REMARK    7  A    between atoms: N3_15  and  C11_16 
REMARK    8  A    between atoms: C11_16  and  C12_17 
REMARK    9  A    between atoms: C15_22  and  C16_23 
REMARK   10  A    between atoms: C16_23  and  C17_24 
REMARK   11  A    between atoms: C18_26  and  N5_27 
ROOT
HETATM    1  C12 UNL     1      19.144   0.292  50.987  1.00  0.00    -0.092 C 
HETATM    2  S1  UNL     1      18.108  -0.099  51.631  1.00  0.00    -0.095 SA
HETATM    3  C13 UNL     1      16.862  -0.583  52.438  1.00  0.00     0.104 C 
ENDROOT
BRANCH   1   4
HETATM    4  C11 UNL     1      20.325   0.731  50.284  1.00  0.00     0.231 C 
BRANCH   4   5
HETATM    5  N3  UNL     1      19.937   1.882  49.451  1.00  0.00    -0.212 N 
HETATM    6  H13 UNL     1      18.932   1.910  49.179  1.00  0.00     0.178 HD
BRANCH   5   7
HETATM    7  C10 UNL     1      20.980   2.763  49.135  1.00  0.00     0.725 A 
HETATM    8  N2  UNL     1      22.191   2.535  49.338  1.00  0.00    -0.038 NA
HETATM    9  C9  UNL     1      23.402   2.896  49.338  1.00  0.00     0.191 A 
HETATM   10  C15 UNL     1      23.144   4.268  48.842  1.00  0.00     0.019 A 
HETATM   11  C14 UNL     1      21.852   4.834  48.512  1.00  0.00     0.148 A 
HETATM   12  N4  UNL     1      20.756   4.008  48.681  1.00  0.00    -0.075 NA
BRANCH   9  13
HETATM   13  O2  UNL     1      24.682   3.281  49.338  1.00  0.00    -0.334 OA
BRANCH  13  14
HETATM   14  C8  UNL     1      25.778   2.820  50.040  1.00  0.00     0.178 C 
BRANCH  14  15
HETATM   15  C7  UNL     1      25.806   3.323  51.467  1.00  0.00     0.039 C 
BRANCH  15  16
HETATM   16  C5  UNL     1      26.081   2.236  52.453  1.00  0.00    -0.010 C 
HETATM   17  C4  UNL     1      27.553   1.878  52.556  1.00  0.00     0.136 C 
HETATM   18  N1  UNL     1      27.169   0.483  52.597  1.00  0.00    -0.347 N 
HETATM   19  C3  UNL     1      27.634  -0.784  52.989  1.00  0.00     0.242 C 
HETATM   20  C19 UNL     1      25.940   0.827  51.928  1.00  0.00     0.136 C 
HETATM   21  O1  UNL     1      26.970  -1.875  52.914  1.00  0.00    -0.268 OA
HETATM   22  C6  UNL     1      25.499   2.345  53.824  1.00  0.00     0.018 C 
BRANCH  19  23
HETATM   23  C2  UNL     1      28.883  -1.179  53.540  1.00  0.00     0.064 C 
HETATM   24  C1  UNL     1      30.145  -1.090  53.702  1.00  0.00     0.017 C 
ENDBRANCH  19  23
ENDBRANCH  15  16
ENDBRANCH  14  15
ENDBRANCH  13  14
ENDBRANCH   9  13
BRANCH  10  25
HETATM   25  C16 UNL     1      23.999   5.527  48.639  1.00  0.00     0.097 C 
BRANCH  25  26
HETATM   26  C17 UNL     1      23.643   6.505  49.700  1.00  0.00     0.031 C 
HETATM   27 CL1  UNL     1      22.485   7.793  49.900  1.00  0.00    -0.087 Cl
HETATM   28  C18 UNL     1      24.453   6.285  50.716  1.00  0.00     0.100 C 
BRANCH  28  29
HETATM   29  N5  UNL     1      24.447   7.003  51.929  1.00  0.00    -0.407 N 
HETATM   30  H23 UNL     1      25.053   7.137  52.800  1.00  0.00     0.155 HD
HETATM   31  H24 UNL     1      24.195   7.623  52.711  1.00  0.00     0.155 HD
ENDBRANCH  28  29
ENDBRANCH  25  26
ENDBRANCH  10  25
ENDBRANCH   5   7
ENDBRANCH   4   5
ENDBRANCH   1   4
TORSDOF 11
ENDMDL
MODEL 8
REMARK VINA RESULT:      -6.2      2.085      2.422
REMARK  11 active torsions:
REMARK  status: ('A' for Active; 'I' for Inactive)
REMARK    1  A    between atoms: C2_2  and  C3_3 
REMARK       I    between atoms: C3_3  and  N1_5 
REMARK    2  A    between atoms: C5_7  and  C7_9 
REMARK    3  A    between atoms: C7_9  and  C8_10 
REMARK    4  A    between atoms: C8_10  and  O2_11 
REMARK    5  A    between atoms: O2_11  and  C9_12 
REMARK    6  A    between atoms: C10_14  and  N3_15 
REMARK    7  A    between atoms: N3_15  and  C11_16 
REMARK    8  A    between atoms: C11_16  and  C12_17 
REMARK    9  A    between atoms: C15_22  and  C16_23 
REMARK   10  A    between atoms: C16_23  and  C17_24 
REMARK   11  A    between atoms: C18_26  and  N5_27 
ROOT
HETATM    1  C12 UNL     1      31.162   6.898  48.403  1.00  0.00    -0.092 C 
HETATM    2  S1  UNL     1      32.372   7.306  48.482  1.00  0.00    -0.095 SA
HETATM    3  C13 UNL     1      33.855   7.793  48.555  1.00  0.00     0.104 C 
ENDROOT
BRANCH   1   4
HETATM    4  C11 UNL     1      29.800   6.433  48.287  1.00  0.00     0.231 C 
BRANCH   4   5
HETATM    5  N3  UNL     1      28.921   7.558  48.646  1.00  0.00    -0.212 N 
HETATM    6  H13 UNL     1      29.412   8.453  48.855  1.00  0.00     0.178 HD
BRANCH   5   7
HETATM    7  C10 UNL     1      27.552   7.257  48.667  1.00  0.00     0.725 A 
HETATM    8  N2  UNL     1      27.073   6.137  48.947  1.00  0.00    -0.038 NA
HETATM    9  C9  UNL     1      26.094   5.347  49.056  1.00  0.00     0.191 A 
HETATM   10  C15 UNL     1      25.071   6.321  48.608  1.00  0.00     0.019 A 
HETATM   11  C14 UNL     1      25.307   7.696  48.216  1.00  0.00     0.148 A 
HETATM   12  N4  UNL     1      26.617   8.135  48.266  1.00  0.00    -0.075 NA
BRANCH   9  13
HETATM   13  O2  UNL     1      25.056   4.513  49.170  1.00  0.00    -0.334 OA
BRANCH  13  14
HETATM   14  C8  UNL     1      24.983   3.185  49.541  1.00  0.00     0.178 C 
BRANCH  14  15
HETATM   15  C7  UNL     1      25.414   2.958  50.974  1.00  0.00     0.039 C 
BRANCH  15  16
HETATM   16  C5  UNL     1      24.257   2.749  51.894  1.00  0.00    -0.010 C 
HETATM   17  C4  UNL     1      24.372   1.484  52.726  1.00  0.00     0.136 C 
HETATM   18  N1  UNL     1      22.967   1.242  52.479  1.00  0.00    -0.347 N 
HETATM   19  C3  UNL     1      21.858   0.539  52.981  1.00  0.00     0.242 C 
HETATM   20  C19 UNL     1      23.060   2.052  51.291  1.00  0.00     0.136 C 
HETATM   21  O1  UNL     1      20.670   0.591  52.509  1.00  0.00    -0.268 OA
HETATM   22  C6  UNL     1      23.820   3.879  52.766  1.00  0.00     0.018 C 
BRANCH  19  23
HETATM   23  C2  UNL     1      21.754  -0.360  54.077  1.00  0.00     0.064 C 
HETATM   24  C1  UNL     1      21.740  -1.516  54.615  1.00  0.00     0.017 C 
ENDBRANCH  19  23
ENDBRANCH  15  16
ENDBRANCH  14  15
ENDBRANCH  13  14
ENDBRANCH   9  13
BRANCH  10  25
HETATM   25  C16 UNL     1      23.573   6.248  48.280  1.00  0.00     0.097 C 
BRANCH  25  26
HETATM   26  C17 UNL     1      22.847   7.139  49.222  1.00  0.00     0.031 C 
HETATM   27 CL1  UNL     1      22.320   8.801  49.244  1.00  0.00    -0.087 Cl
HETATM   28  C18 UNL     1      22.566   6.423  50.291  1.00  0.00     0.100 C 
BRANCH  28  29
HETATM   29  N5  UNL     1      21.881   6.897  51.429  1.00  0.00    -0.407 N 
HETATM   30  H23 UNL     1      21.775   6.673  52.470  1.00  0.00     0.155 HD
HETATM   31  H24 UNL     1      21.282   7.434  52.071  1.00  0.00     0.155 HD
ENDBRANCH  28  29
ENDBRANCH  25  26
ENDBRANCH  10  25
ENDBRANCH   5   7
ENDBRANCH   4   5
ENDBRANCH   1   4
TORSDOF 11
ENDMDL
MODEL 9
REMARK VINA RESULT:      -6.0      5.859      8.571
REMARK  11 active torsions:
REMARK  status: ('A' for Active; 'I' for Inactive)
REMARK    1  A    between atoms: C2_2  and  C3_3 
REMARK       I    between atoms: C3_3  and  N1_5 
REMARK    2  A    between atoms: C5_7  and  C7_9 
REMARK    3  A    between atoms: C7_9  and  C8_10 
REMARK    4  A    between atoms: C8_10  and  O2_11 
REMARK    5  A    between atoms: O2_11  and  C9_12 
REMARK    6  A    between atoms: C10_14  and  N3_15 
REMARK    7  A    between atoms: N3_15  and  C11_16 
REMARK    8  A    between atoms: C11_16  and  C12_17 
REMARK    9  A    between atoms: C15_22  and  C16_23 
REMARK   10  A    between atoms: C16_23  and  C17_24 
REMARK   11  A    between atoms: C18_26  and  N5_27 
ROOT
HETATM    1  C12 UNL     1      20.852   3.862  45.063  1.00  0.00    -0.092 C 
HETATM    2  S1  UNL     1      20.506   3.998  43.838  1.00  0.00    -0.095 SA
HETATM    3  C13 UNL     1      20.101   4.144  42.336  1.00  0.00     0.104 C 
ENDROOT
BRANCH   1   4
HETATM    4  C11 UNL     1      21.255   3.685  46.437  1.00  0.00     0.231 C 
BRANCH   4   5
HETATM    5  N3  UNL     1      20.089   3.166  47.172  1.00  0.00    -0.212 N 
HETATM    6  H13 UNL     1      19.297   2.846  46.574  1.00  0.00     0.178 HD
BRANCH   5   7
HETATM    7  C10 UNL     1      20.209   3.189  48.568  1.00  0.00     0.725 A 
HETATM    8  N2  UNL     1      21.246   3.506  49.188  1.00  0.00    -0.038 NA
HETATM    9  C9  UNL     1      21.899   3.637  50.262  1.00  0.00     0.191 A 
HETATM   10  C15 UNL     1      20.818   3.149  51.149  1.00  0.00     0.019 A 
HETATM   11  C14 UNL     1      19.500   2.710  50.737  1.00  0.00     0.148 A 
HETATM   12  N4  UNL     1      19.233   2.752  49.381  1.00  0.00    -0.075 NA
BRANCH   9  13
HETATM   13  O2  UNL     1      22.588   3.774  51.399  1.00  0.00    -0.334 OA
BRANCH  13  14
HETATM   14  C8  UNL     1      23.935   3.650  51.676  1.00  0.00     0.178 C 
BRANCH  14  15
HETATM   15  C7  UNL     1      24.495   2.312  51.241  1.00  0.00     0.039 C 
BRANCH  15  16
HETATM   16  C5  UNL     1      25.328   1.668  52.300  1.00  0.00    -0.010 C 
HETATM   17  C4  UNL     1      26.794   1.547  51.920  1.00  0.00     0.136 C 
HETATM   18  N1  UNL     1      26.788   0.215  52.483  1.00  0.00    -0.347 N 
HETATM   19  C3  UNL     1      27.644  -0.777  52.993  1.00  0.00     0.242 C 
HETATM   20  C19 UNL     1      25.363   0.158  52.275  1.00  0.00     0.136 C 
HETATM   21  O1  UNL     1      27.271  -1.900  53.481  1.00  0.00    -0.268 OA
HETATM   22  C6  UNL     1      25.218   2.166  53.703  1.00  0.00     0.018 C 
BRANCH  19  23
HETATM   23  C2  UNL     1      29.060  -0.806  53.105  1.00  0.00     0.064 C 
HETATM   24  C1  UNL     1      30.168  -0.610  53.707  1.00  0.00     0.017 C 
ENDBRANCH  19  23
ENDBRANCH  15  16
ENDBRANCH  14  15
ENDBRANCH  13  14
ENDBRANCH   9  13
BRANCH  10  25
HETATM   25  C16 UNL     1      20.709   2.814  52.644  1.00  0.00     0.097 C 
BRANCH  25  26
HETATM   26  C17 UNL     1      20.534   1.344  52.778  1.00  0.00     0.031 C 
HETATM   27 CL1  UNL     1      19.238   0.197  52.563  1.00  0.00    -0.087 Cl
HETATM   28  C18 UNL     1      21.692   0.851  53.165  1.00  0.00     0.100 C 
BRANCH  28  29
HETATM   29  N5  UNL     1      21.953  -0.512  53.411  1.00  0.00    -0.407 N 
HETATM   30  H23 UNL     1      22.730  -1.138  53.798  1.00  0.00     0.155 HD
HETATM   31  H24 UNL     1      21.880  -1.536  53.484  1.00  0.00     0.155 HD
ENDBRANCH  28  29
ENDBRANCH  25  26
ENDBRANCH  10  25
ENDBRANCH   5   7
ENDBRANCH   4   5
ENDBRANCH   1   4
TORSDOF 11
ENDMDL
