MODEL 1
REMARK VINA RESULT:      -8.6      0.000      0.000
REMARK  7 active torsions:
REMARK  status: ('A' for Active; 'I' for Inactive)
REMARK    1  A    between atoms: C3_3  and  C4_4 
REMARK    2  A    between atoms: C4_4  and  N1_5 
REMARK    3  A    between atoms: N1_5  and  C5_6 
REMARK    4  A    between atoms: C10_12  and  C11_13 
REMARK    5  A    between atoms: C14_16  and  C15_17 
REMARK    6  A    between atoms: C15_17  and  C16_18 
REMARK    7  A    between atoms: C16_18  and  O3_20 
ROOT
HETATM    1  C1  UNL     1      26.347   2.755  50.122  1.00  0.00     0.013 C 
HETATM    2  C2  UNL     1      26.445   2.221  51.179  1.00  0.00    -0.101 C 
HETATM    3  C3  UNL     1      26.577   1.569  52.485  1.00  0.00     0.066 A 
HETATM    4  C6  UNL     1      27.204   0.218  52.322  1.00  0.00    -0.002 A 
HETATM    5  C7  UNL     1      26.894  -1.046  52.531  1.00  0.00    -0.002 A 
HETATM    6  C8  UNL     1      25.563  -1.219  53.078  1.00  0.00    -0.004 A 
HETATM    7  C9  UNL     1      24.946  -0.067  53.253  1.00  0.00    -0.016 A 
HETATM    8  C10 UNL     1      25.201   1.368  53.058  1.00  0.00     0.059 A 
ENDROOT
BRANCH   3   9
HETATM    9  C4  UNL     1      27.457   2.394  53.407  1.00  0.00     0.149 C 
BRANCH   9  10
HETATM   10  N1  UNL     1      28.001   1.464  54.400  1.00  0.00    -0.366 N 
HETATM   11  H4  UNL     1      27.666   0.702  55.061  1.00  0.00     0.161 HD
BRANCH  10  12
HETATM   12  C5  UNL     1      29.412   1.546  54.597  1.00  0.00     0.348 C 
HETATM   13  O1  UNL     1      29.939   2.454  55.323  1.00  0.00    -0.284 OA
ENDBRANCH  10  12
ENDBRANCH   9  10
ENDBRANCH   3   9
BRANCH   8  14
HETATM   14  C11 UNL     1      24.179   1.993  52.162  1.00  0.00     0.013 C 
HETATM   15  C12 UNL     1      22.878   1.786  51.881  1.00  0.00     0.026 C 
HETATM   16  C13 UNL     1      22.165   0.677  52.583  1.00  0.00     0.032 C 
HETATM   17  N2  UNL     1      22.440   2.903  51.020  1.00  0.00    -0.385 N 
HETATM   18  C14 UNL     1      20.893   0.254  52.434  1.00  0.00    -0.068 C 
HETATM   19  C17 UNL     1      20.001   0.477  51.291  1.00  0.00     0.034 C 
HETATM   20  C18 UNL     1      18.952   1.634  51.541  1.00  0.00     0.004 C 
HETATM   21  C19 UNL     1      19.961   2.670  51.598  1.00  0.00     0.002 C 
HETATM   22  C20 UNL     1      20.258   4.043  51.594  1.00  0.00     0.020 C 
HETATM   23  C21 UNL     1      21.809   3.937  51.851  1.00  0.00     0.122 C 
HETATM   24  C22 UNL     1      22.777   2.628  49.646  1.00  0.00     0.149 C 
BRANCH  18  25
HETATM   25  C15 UNL     1      20.415  -0.857  53.296  1.00  0.00     0.144 C 
BRANCH  25  26
HETATM   26  C16 UNL     1      21.082  -0.771  54.607  1.00  0.00     0.143 C 
HETATM   27  O2  UNL     1      21.937  -1.564  55.141  1.00  0.00    -0.650 OA
BRANCH  26  28
HETATM   28  O3  UNL     1      20.739   0.324  55.383  1.00  0.00    -0.776 OA
HETATM   29  H15 UNL     1      20.374   1.158  54.948  1.00  0.00     0.167 HD
ENDBRANCH  26  28
ENDBRANCH  25  26
ENDBRANCH  18  25
ENDBRANCH   8  14
TORSDOF 7
ENDMDL
MODEL 2
REMARK VINA RESULT:      -8.2      3.823      5.945
REMARK  7 active torsions:
REMARK  status: ('A' for Active; 'I' for Inactive)
REMARK    1  A    between atoms: C3_3  and  C4_4 
REMARK    2  A    between atoms: C4_4  and  N1_5 
REMARK    3  A    between atoms: N1_5  and  C5_6 
REMARK    4  A    between atoms: C10_12  and  C11_13 
REMARK    5  A    between atoms: C14_16  and  C15_17 
REMARK    6  A    between atoms: C15_17  and  C16_18 
REMARK    7  A    between atoms: C16_18  and  O3_20 
ROOT
HETATM    1  C1  UNL     1      23.036   6.570  47.851  1.00  0.00     0.013 C 
HETATM    2  C2  UNL     1      24.078   6.705  48.406  1.00  0.00    -0.101 C 
HETATM    3  C3  UNL     1      25.361   6.883  49.091  1.00  0.00     0.066 A 
HETATM    4  C6  UNL     1      26.461   7.045  48.087  1.00  0.00    -0.002 A 
HETATM    5  C7  UNL     1      27.565   6.423  47.724  1.00  0.00    -0.002 A 
HETATM    6  C8  UNL     1      27.824   5.228  48.502  1.00  0.00    -0.004 A 
HETATM    7  C9  UNL     1      26.895   5.020  49.413  1.00  0.00    -0.016 A 
HETATM    8  C10 UNL     1      25.650   5.643  49.891  1.00  0.00     0.059 A 
ENDROOT
BRANCH   3   9
HETATM    9  C4  UNL     1      25.330   8.124  49.967  1.00  0.00     0.149 C 
BRANCH   9  10
HETATM   10  N1  UNL     1      26.636   8.197  50.625  1.00  0.00    -0.366 N 
HETATM   11  H4  UNL     1      27.223   7.644  51.319  1.00  0.00     0.161 HD
BRANCH  10  12
HETATM   12  C5  UNL     1      27.426   9.335  50.280  1.00  0.00     0.348 C 
HETATM   13  O1  UNL     1      26.903  10.406  49.826  1.00  0.00    -0.284 OA
ENDBRANCH  10  12
ENDBRANCH   9  10
ENDBRANCH   3   9
BRANCH   8  14
HETATM   14  C11 UNL     1      24.493   4.699  49.806  1.00  0.00     0.013 C 
HETATM   15  C12 UNL     1      24.032   3.661  50.530  1.00  0.00     0.026 C 
HETATM   16  C13 UNL     1      24.783   3.258  51.756  1.00  0.00     0.032 C 
HETATM   17  N2  UNL     1      22.718   3.291  49.964  1.00  0.00    -0.385 N 
HETATM   18  C14 UNL     1      24.544   2.235  52.603  1.00  0.00    -0.068 C 
HETATM   19  C17 UNL     1      23.759   1.023  52.347  1.00  0.00     0.034 C 
HETATM   20  C18 UNL     1      22.304   1.085  52.966  1.00  0.00     0.004 C 
HETATM   21  C19 UNL     1      21.872   2.154  52.092  1.00  0.00     0.002 C 
HETATM   22  C20 UNL     1      20.809   2.914  51.577  1.00  0.00     0.020 C 
HETATM   23  C21 UNL     1      21.655   3.945  50.738  1.00  0.00     0.122 C 
HETATM   24  C22 UNL     1      22.898   2.417  48.833  1.00  0.00     0.149 C 
BRANCH  18  25
HETATM   25  C15 UNL     1      25.430   2.078  53.784  1.00  0.00     0.144 C 
BRANCH  25  26
HETATM   26  C16 UNL     1      26.830   2.007  53.331  1.00  0.00     0.143 C 
HETATM   27  O2  UNL     1      27.360   1.261  52.432  1.00  0.00    -0.650 OA
BRANCH  26  28
HETATM   28  O3  UNL     1      27.709   2.869  53.965  1.00  0.00    -0.776 OA
HETATM   29  H15 UNL     1      27.996   2.690  54.916  1.00  0.00     0.167 HD
ENDBRANCH  26  28
ENDBRANCH  25  26
ENDBRANCH  18  25
ENDBRANCH   8  14
TORSDOF 7
ENDMDL
MODEL 3
REMARK VINA RESULT:      -8.2      2.841      4.651
REMARK  7 active torsions:
REMARK  status: ('A' for Active; 'I' for Inactive)
REMARK    1  A    between atoms: C3_3  and  C4_4 
REMARK    2  A    between atoms: C4_4  and  N1_5 
REMARK    3  A    between atoms: N1_5  and  C5_6 
REMARK    4  A    between atoms: C10_12  and  C11_13 
REMARK    5  A    between atoms: C14_16  and  C15_17 
REMARK    6  A    between atoms: C15_17  and  C16_18 
REMARK    7  A    between atoms: C16_18  and  O3_20 
ROOT
HETATM    1  C1  UNL     1      22.300   3.777  48.544  1.00  0.00     0.013 C 
HETATM    2  C2  UNL     1      23.218   4.077  49.238  1.00  0.00    -0.101 C 
HETATM    3  C3  UNL     1      24.349   4.457  50.088  1.00  0.00     0.066 A 
HETATM    4  C6  UNL     1      25.638   4.236  49.357  1.00  0.00    -0.002 A 
HETATM    5  C7  UNL     1      26.727   3.505  49.478  1.00  0.00    -0.002 A 
HETATM    6  C8  UNL     1      26.710   2.652  50.650  1.00  0.00    -0.004 A 
HETATM    7  C9  UNL     1      25.602   2.794  51.348  1.00  0.00    -0.016 A 
HETATM    8  C10 UNL     1      24.353   3.569  51.301  1.00  0.00     0.059 A 
ENDROOT
BRANCH   3   9
HETATM    9  C4  UNL     1      24.261   5.926  50.465  1.00  0.00     0.149 C 
BRANCH   9  10
HETATM   10  N1  UNL     1      25.634   6.437  50.455  1.00  0.00    -0.366 N 
HETATM   11  H4  UNL     1      26.621   6.103  50.665  1.00  0.00     0.161 HD
BRANCH  10  12
HETATM   12  C5  UNL     1      25.771   7.798  50.047  1.00  0.00     0.348 C 
HETATM   13  O1  UNL     1      26.793   8.496  50.359  1.00  0.00    -0.284 OA
ENDBRANCH  10  12
ENDBRANCH   9  10
ENDBRANCH   3   9
BRANCH   8  14
HETATM   14  C11 UNL     1      23.151   2.678  51.285  1.00  0.00     0.013 C 
HETATM   15  C12 UNL     1      22.784   1.533  51.892  1.00  0.00     0.026 C 
HETATM   16  C13 UNL     1      23.737   0.896  52.850  1.00  0.00     0.032 C 
HETATM   17  N2  UNL     1      21.367   1.297  51.546  1.00  0.00    -0.385 N 
HETATM   18  C14 UNL     1      23.612  -0.260  53.533  1.00  0.00    -0.068 C 
HETATM   19  C17 UNL     1      22.727  -1.390  53.229  1.00  0.00     0.034 C 
HETATM   20  C18 UNL     1      21.427  -1.418  54.130  1.00  0.00     0.004 C 
HETATM   21  C19 UNL     1      20.891  -0.197  53.565  1.00  0.00     0.002 C 
HETATM   22  C20 UNL     1      19.791   0.663  53.418  1.00  0.00     0.020 C 
HETATM   23  C21 UNL     1      20.513   1.816  52.622  1.00  0.00     0.122 C 
HETATM   24  C22 UNL     1      21.275   0.644  50.265  1.00  0.00     0.149 C 
BRANCH  18  25
HETATM   25  C15 UNL     1      24.701  -0.649  54.464  1.00  0.00     0.144 C 
BRANCH  25  26
HETATM   26  C16 UNL     1      25.974  -0.699  53.722  1.00  0.00     0.143 C 
HETATM   27  O2  UNL     1      26.318  -1.450  52.741  1.00  0.00    -0.650 OA
BRANCH  26  28
HETATM   28  O3  UNL     1      26.947   0.192  54.144  1.00  0.00    -0.776 OA
HETATM   29  H15 UNL     1      27.061   1.077  53.673  1.00  0.00     0.167 HD
ENDBRANCH  26  28
ENDBRANCH  25  26
ENDBRANCH  18  25
ENDBRANCH   8  14
TORSDOF 7
ENDMDL
MODEL 4
REMARK VINA RESULT:      -7.8      2.324      6.882
REMARK  7 active torsions:
REMARK  status: ('A' for Active; 'I' for Inactive)
REMARK    1  A    between atoms: C3_3  and  C4_4 
REMARK    2  A    between atoms: C4_4  and  N1_5 
REMARK    3  A    between atoms: N1_5  and  C5_6 
REMARK    4  A    between atoms: C10_12  and  C11_13 
REMARK    5  A    between atoms: C14_16  and  C15_17 
REMARK    6  A    between atoms: C15_17  and  C16_18 
REMARK    7  A    between atoms: C16_18  and  O3_20 
ROOT
HETATM    1  C1  UNL     1      20.001   3.280  52.137  1.00  0.00     0.013 C 
HETATM    2  C2  UNL     1      20.052   2.101  51.998  1.00  0.00    -0.101 C 
HETATM    3  C3  UNL     1      20.103   0.647  51.821  1.00  0.00     0.066 A 
HETATM    4  C6  UNL     1      19.602  -0.038  53.055  1.00  0.00    -0.002 A 
HETATM    5  C7  UNL     1      20.055  -0.861  53.979  1.00  0.00    -0.002 A 
HETATM    6  C8  UNL     1      21.440  -1.236  53.775  1.00  0.00    -0.004 A 
HETATM    7  C9  UNL     1      21.952  -0.671  52.700  1.00  0.00    -0.016 A 
HETATM    8  C10 UNL     1      21.538   0.242  51.623  1.00  0.00     0.059 A 
ENDROOT
BRANCH   3   9
HETATM    9  C4  UNL     1      19.231   0.221  50.653  1.00  0.00     0.149 C 
BRANCH   9  10
HETATM   10  N1  UNL     1      17.854   0.559  51.021  1.00  0.00    -0.366 N 
HETATM   11  H4  UNL     1      17.299   0.868  51.874  1.00  0.00     0.161 HD
BRANCH  10  12
HETATM   12  C5  UNL     1      16.903   0.467  49.961  1.00  0.00     0.348 C 
HETATM   13  O1  UNL     1      16.631  -0.644  49.394  1.00  0.00    -0.284 OA
ENDBRANCH  10  12
ENDBRANCH   9  10
ENDBRANCH   3   9
BRANCH   8  14
HETATM   14  C11 UNL     1      22.409   1.457  51.566  1.00  0.00     0.013 C 
HETATM   15  C12 UNL     1      23.694   1.745  51.850  1.00  0.00     0.026 C 
HETATM   16  C13 UNL     1      24.573   0.651  52.359  1.00  0.00     0.032 C 
HETATM   17  N2  UNL     1      23.939   3.125  51.384  1.00  0.00    -0.385 N 
HETATM   18  C14 UNL     1      25.863   0.708  52.750  1.00  0.00    -0.068 C 
HETATM   19  C17 UNL     1      26.622   1.891  53.168  1.00  0.00     0.034 C 
HETATM   20  C18 UNL     1      27.569   2.453  52.033  1.00  0.00     0.004 C 
HETATM   21  C19 UNL     1      26.471   2.841  51.173  1.00  0.00     0.002 C 
HETATM   22  C20 UNL     1      26.039   3.556  50.044  1.00  0.00     0.020 C 
HETATM   23  C21 UNL     1      24.535   3.085  50.042  1.00  0.00     0.122 C 
HETATM   24  C22 UNL     1      23.509   4.067  52.386  1.00  0.00     0.149 C 
BRANCH  18  25
HETATM   25  C15 UNL     1      26.524  -0.550  53.179  1.00  0.00     0.144 C 
BRANCH  25  26
HETATM   26  C16 UNL     1      26.947  -0.418  54.585  1.00  0.00     0.143 C 
HETATM   27  O2  UNL     1      28.119  -0.231  55.071  1.00  0.00    -0.650 OA
BRANCH  26  28
HETATM   28  O3  UNL     1      25.934  -0.511  55.525  1.00  0.00    -0.776 OA
HETATM   29  H15 UNL     1      24.972  -0.583  55.228  1.00  0.00     0.167 HD
ENDBRANCH  26  28
ENDBRANCH  25  26
ENDBRANCH  18  25
ENDBRANCH   8  14
TORSDOF 7
ENDMDL
MODEL 5
REMARK VINA RESULT:      -7.8      2.797      6.151
REMARK  7 active torsions:
REMARK  status: ('A' for Active; 'I' for Inactive)
REMARK    1  A    between atoms: C3_3  and  C4_4 
REMARK    2  A    between atoms: C4_4  and  N1_5 
REMARK    3  A    between atoms: N1_5  and  C5_6 
REMARK    4  A    between atoms: C10_12  and  C11_13 
REMARK    5  A    between atoms: C14_16  and  C15_17 
REMARK    6  A    between atoms: C15_17  and  C16_18 
REMARK    7  A    between atoms: C16_18  and  O3_20 
ROOT
HETATM    1  C1  UNL     1      26.186   3.918  49.371  1.00  0.00     0.013 C 
HETATM    2  C2  UNL     1      25.003   4.023  49.400  1.00  0.00    -0.101 C 
HETATM    3  C3  UNL     1      23.543   4.152  49.424  1.00  0.00     0.066 A 
HETATM    4  C6  UNL     1      23.153   5.595  49.317  1.00  0.00    -0.002 A 
HETATM    5  C7  UNL     1      22.522   6.501  50.035  1.00  0.00    -0.002 A 
HETATM    6  C8  UNL     1      22.050   5.989  51.307  1.00  0.00    -0.004 A 
HETATM    7  C9  UNL     1      22.355   4.718  51.471  1.00  0.00    -0.016 A 
HETATM    8  C10 UNL     1      23.041   3.639  50.744  1.00  0.00     0.059 A 
ENDROOT
BRANCH   3   9
HETATM    9  C4  UNL     1      22.923   3.405  48.256  1.00  0.00     0.149 C 
BRANCH   9  10
HETATM   10  N1  UNL     1      22.452   4.425  47.316  1.00  0.00    -0.366 N 
HETATM   11  H4  UNL     1      22.530   5.473  47.157  1.00  0.00     0.161 HD
BRANCH  10  12
HETATM   12  C5  UNL     1      21.626   3.939  46.258  1.00  0.00     0.348 C 
HETATM   13  O1  UNL     1      22.110   3.602  45.127  1.00  0.00    -0.284 OA
ENDBRANCH  10  12
ENDBRANCH   9  10
ENDBRANCH   3   9
BRANCH   8  14
HETATM   14  C11 UNL     1      24.177   3.075  51.538  1.00  0.00     0.013 C 
HETATM   15  C12 UNL     1      24.389   1.969  52.278  1.00  0.00     0.026 C 
HETATM   16  C13 UNL     1      23.281   0.977  52.411  1.00  0.00     0.032 C 
HETATM   17  N2  UNL     1      25.822   1.961  52.639  1.00  0.00    -0.385 N 
HETATM   18  C14 UNL     1      23.244  -0.166  53.127  1.00  0.00    -0.068 C 
HETATM   19  C17 UNL     1      24.089  -0.539  54.266  1.00  0.00     0.034 C 
HETATM   20  C18 UNL     1      25.255  -1.532  53.873  1.00  0.00     0.004 C 
HETATM   21  C19 UNL     1      25.935  -0.560  53.043  1.00  0.00     0.002 C 
HETATM   22  C20 UNL     1      27.096  -0.201  52.339  1.00  0.00     0.020 C 
HETATM   23  C21 UNL     1      26.558   1.126  51.681  1.00  0.00     0.122 C 
HETATM   24  C22 UNL     1      26.041   2.779  53.804  1.00  0.00     0.149 C 
BRANCH  18  25
HETATM   25  C15 UNL     1      22.019  -1.003  53.053  1.00  0.00     0.144 C 
BRANCH  25  26
HETATM   26  C16 UNL     1      21.191  -0.753  54.246  1.00  0.00     0.143 C 
HETATM   27  O2  UNL     1      20.666   0.341  54.661  1.00  0.00    -0.650 OA
BRANCH  26  28
HETATM   28  O3  UNL     1      20.939  -1.859  55.041  1.00  0.00    -0.776 OA
HETATM   29  H15 UNL     1      21.042  -1.796  56.043  1.00  0.00     0.167 HD
ENDBRANCH  26  28
ENDBRANCH  25  26
ENDBRANCH  18  25
ENDBRANCH   8  14
TORSDOF 7
ENDMDL
MODEL 6
REMARK VINA RESULT:      -7.7      2.343      3.488
REMARK  7 active torsions:
REMARK  status: ('A' for Active; 'I' for Inactive)
REMARK    1  A    between atoms: C3_3  and  C4_4 
REMARK    2  A    between atoms: C4_4  and  N1_5 
REMARK    3  A    between atoms: N1_5  and  C5_6 
REMARK    4  A    between atoms: C10_12  and  C11_13 
REMARK    5  A    between atoms: C14_16  and  C15_17 
REMARK    6  A    between atoms: C15_17  and  C16_18 
REMARK    7  A    between atoms: C16_18  and  O3_20 
ROOT
HETATM    1  C1  UNL     1      26.660   1.796  50.676  1.00  0.00     0.013 C 
HETATM    2  C2  UNL     1      26.084   1.656  51.705  1.00  0.00    -0.101 C 
HETATM    3  C3  UNL     1      25.383   1.478  52.980  1.00  0.00     0.066 A 
HETATM    4  C6  UNL     1      24.764   0.114  53.040  1.00  0.00    -0.002 A 
HETATM    5  C7  UNL     1      23.563  -0.420  53.134  1.00  0.00    -0.002 A 
HETATM    6  C8  UNL     1      22.506   0.569  53.203  1.00  0.00    -0.004 A 
HETATM    7  C9  UNL     1      22.977   1.800  53.158  1.00  0.00    -0.016 A 
HETATM    8  C10 UNL     1      24.273   2.488  53.058  1.00  0.00     0.059 A 
ENDROOT
BRANCH   3   9
HETATM    9  C4  UNL     1      26.351   1.612  54.143  1.00  0.00     0.149 C 
BRANCH   9  10
HETATM   10  N1  UNL     1      27.260   2.708  53.799  1.00  0.00    -0.366 N 
HETATM   11  H4  UNL     1      27.220   3.735  53.526  1.00  0.00     0.161 HD
BRANCH  10  12
HETATM   12  C5  UNL     1      28.647   2.371  53.810  1.00  0.00     0.348 C 
HETATM   13  O1  UNL     1      29.307   2.267  54.897  1.00  0.00    -0.284 OA
ENDBRANCH  10  12
ENDBRANCH   9  10
ENDBRANCH   3   9
BRANCH   8  14
HETATM   14  C11 UNL     1      24.324   3.396  51.870  1.00  0.00     0.013 C 
HETATM   15  C12 UNL     1      23.774   3.419  50.641  1.00  0.00     0.026 C 
HETATM   16  C13 UNL     1      22.858   2.305  50.250  1.00  0.00     0.032 C 
HETATM   17  N2  UNL     1      24.119   4.722  50.038  1.00  0.00    -0.385 N 
HETATM   18  C14 UNL     1      22.235   2.090  49.073  1.00  0.00    -0.068 C 
HETATM   19  C17 UNL     1      22.588   2.634  47.757  1.00  0.00     0.034 C 
HETATM   20  C18 UNL     1      21.679   3.855  47.328  1.00  0.00     0.004 C 
HETATM   21  C19 UNL     1      22.176   4.720  48.377  1.00  0.00     0.002 C 
HETATM   22  C20 UNL     1      22.269   6.018  48.904  1.00  0.00     0.020 C 
HETATM   23  C21 UNL     1      23.010   5.662  50.249  1.00  0.00     0.122 C 
HETATM   24  C22 UNL     1      25.431   4.659  49.446  1.00  0.00     0.149 C 
BRANCH  18  25
HETATM   25  C15 UNL     1      21.335   0.914  48.959  1.00  0.00     0.144 C 
BRANCH  25  26
HETATM   26  C16 UNL     1      20.054   1.222  49.620  1.00  0.00     0.143 C 
HETATM   27  O2  UNL     1      19.691   1.017  50.833  1.00  0.00    -0.650 OA
BRANCH  26  28
HETATM   28  O3  UNL     1      19.095   1.819  48.818  1.00  0.00    -0.776 OA
HETATM   29  H15 UNL     1      18.197   1.377  48.688  1.00  0.00     0.167 HD
ENDBRANCH  26  28
ENDBRANCH  25  26
ENDBRANCH  18  25
ENDBRANCH   8  14
TORSDOF 7
ENDMDL
MODEL 7
REMARK VINA RESULT:      -7.3      3.511      6.907
REMARK  7 active torsions:
REMARK  status: ('A' for Active; 'I' for Inactive)
REMARK    1  A    between atoms: C3_3  and  C4_4 
REMARK    2  A    between atoms: C4_4  and  N1_5 
REMARK    3  A    between atoms: N1_5  and  C5_6 
REMARK    4  A    between atoms: C10_12  and  C11_13 
REMARK    5  A    between atoms: C14_16  and  C15_17 
REMARK    6  A    between atoms: C15_17  and  C16_18 
REMARK    7  A    between atoms: C16_18  and  O3_20 
ROOT
HETATM    1  C1  UNL     1      20.400   4.835  48.951  1.00  0.00     0.013 C 
HETATM    2  C2  UNL     1      21.319   5.483  49.336  1.00  0.00    -0.101 C 
HETATM    3  C3  UNL     1      22.445   6.291  49.810  1.00  0.00     0.066 A 
HETATM    4  C6  UNL     1      23.223   6.821  48.645  1.00  0.00    -0.002 A 
HETATM    5  C7  UNL     1      24.439   6.726  48.146  1.00  0.00    -0.002 A 
HETATM    6  C8  UNL     1      25.307   5.867  48.928  1.00  0.00    -0.004 A 
HETATM    7  C9  UNL     1      24.689   5.363  49.977  1.00  0.00    -0.016 A 
HETATM    8  C10 UNL     1      23.362   5.408  50.610  1.00  0.00     0.059 A 
ENDROOT
BRANCH   3   9
HETATM    9  C4  UNL     1      21.947   7.472  50.626  1.00  0.00     0.149 C 
BRANCH   9  10
HETATM   10  N1  UNL     1      21.316   8.393  49.676  1.00  0.00    -0.366 N 
HETATM   11  H4  UNL     1      21.543   8.895  48.767  1.00  0.00     0.161 HD
BRANCH  10  12
HETATM   12  C5  UNL     1      19.983   8.783  50.004  1.00  0.00     0.348 C 
HETATM   13  O1  UNL     1      19.159   9.182  49.115  1.00  0.00    -0.284 OA
ENDBRANCH  10  12
ENDBRANCH   9  10
ENDBRANCH   3   9
BRANCH   8  14
HETATM   14  C11 UNL     1      22.768   4.042  50.742  1.00  0.00     0.013 C 
HETATM   15  C12 UNL     1      23.077   2.908  51.401  1.00  0.00     0.026 C 
HETATM   16  C13 UNL     1      24.305   2.891  52.251  1.00  0.00     0.032 C 
HETATM   17  N2  UNL     1      21.941   1.982  51.223  1.00  0.00    -0.385 N 
HETATM   18  C14 UNL     1      24.837   1.872  52.958  1.00  0.00    -0.068 C 
HETATM   19  C17 UNL     1      24.608   0.435  52.772  1.00  0.00     0.034 C 
HETATM   20  C18 UNL     1      23.584  -0.169  53.815  1.00  0.00     0.004 C 
HETATM   21  C19 UNL     1      22.462   0.587  53.300  1.00  0.00     0.002 C 
HETATM   22  C20 UNL     1      21.072   0.781  53.270  1.00  0.00     0.020 C 
HETATM   23  C21 UNL     1      21.046   2.083  52.383  1.00  0.00     0.122 C 
HETATM   24  C22 UNL     1      22.067   1.284  49.968  1.00  0.00     0.149 C 
BRANCH  18  25
HETATM   25  C15 UNL     1      26.056   2.135  53.763  1.00  0.00     0.144 C 
BRANCH  25  26
HETATM   26  C16 UNL     1      27.247   1.832  52.948  1.00  0.00     0.143 C 
HETATM   27  O2  UNL     1      28.002   0.795  52.961  1.00  0.00    -0.650 OA
BRANCH  26  28
HETATM   28  O3  UNL     1      27.610   2.807  52.034  1.00  0.00    -0.776 OA
HETATM   29  H15 UNL     1      26.901   3.328  51.541  1.00  0.00     0.167 HD
ENDBRANCH  26  28
ENDBRANCH  25  26
ENDBRANCH  18  25
ENDBRANCH   8  14
TORSDOF 7
ENDMDL
MODEL 8
REMARK VINA RESULT:      -7.3      3.062      7.005
REMARK  7 active torsions:
REMARK  status: ('A' for Active; 'I' for Inactive)
REMARK    1  A    between atoms: C3_3  and  C4_4 
REMARK    2  A    between atoms: C4_4  and  N1_5 
REMARK    3  A    between atoms: N1_5  and  C5_6 
REMARK    4  A    between atoms: C10_12  and  C11_13 
REMARK    5  A    between atoms: C14_16  and  C15_17 
REMARK    6  A    between atoms: C15_17  and  C16_18 
REMARK    7  A    between atoms: C16_18  and  O3_20 
ROOT
HETATM    1  C1  UNL     1      18.835   3.554  51.836  1.00  0.00     0.013 C 
HETATM    2  C2  UNL     1      19.404   2.512  51.773  1.00  0.00    -0.101 C 
HETATM    3  C3  UNL     1      20.094   1.223  51.694  1.00  0.00     0.066 A 
HETATM    4  C6  UNL     1      20.247   0.637  53.065  1.00  0.00    -0.002 A 
HETATM    5  C7  UNL     1      21.217   0.287  53.885  1.00  0.00    -0.002 A 
HETATM    6  C8  UNL     1      22.537   0.522  53.335  1.00  0.00    -0.004 A 
HETATM    7  C9  UNL     1      22.483   1.037  52.123  1.00  0.00    -0.016 A 
HETATM    8  C10 UNL     1      21.472   1.454  51.139  1.00  0.00     0.059 A 
ENDROOT
BRANCH   3   9
HETATM    9  C4  UNL     1      19.301   0.245  50.844  1.00  0.00     0.149 C 
BRANCH   9  10
HETATM   10  N1  UNL     1      18.367  -0.426  51.751  1.00  0.00    -0.366 N 
HETATM   11  H4  UNL     1      18.380  -0.989  52.653  1.00  0.00     0.161 HD
BRANCH  10  12
HETATM   12  C5  UNL     1      16.992  -0.343  51.375  1.00  0.00     0.348 C 
HETATM   13  O1  UNL     1      16.524   0.668  50.752  1.00  0.00    -0.284 OA
ENDBRANCH  10  12
ENDBRANCH   9  10
ENDBRANCH   3   9
BRANCH   8  14
HETATM   14  C11 UNL     1      21.635   2.891  50.757  1.00  0.00     0.013 C 
HETATM   15  C12 UNL     1      22.655   3.687  50.383  1.00  0.00     0.026 C 
HETATM   16  C13 UNL     1      24.023   3.094  50.287  1.00  0.00     0.032 C 
HETATM   17  N2  UNL     1      22.067   4.980  49.976  1.00  0.00    -0.385 N 
HETATM   18  C14 UNL     1      25.191   3.696  49.982  1.00  0.00    -0.068 C 
HETATM   19  C17 UNL     1      25.513   5.124  50.064  1.00  0.00     0.034 C 
HETATM   20  C18 UNL     1      25.466   5.850  48.659  1.00  0.00     0.004 C 
HETATM   21  C19 UNL     1      24.039   5.667  48.503  1.00  0.00     0.002 C 
HETATM   22  C20 UNL     1      22.866   6.003  47.808  1.00  0.00     0.020 C 
HETATM   23  C21 UNL     1      21.887   4.993  48.519  1.00  0.00     0.122 C 
HETATM   24  C22 UNL     1      21.850   5.808  51.135  1.00  0.00     0.149 C 
BRANCH  18  25
HETATM   25  C15 UNL     1      26.416   2.859  49.913  1.00  0.00     0.144 C 
BRANCH  25  26
HETATM   26  C16 UNL     1      26.677   2.275  51.241  1.00  0.00     0.143 C 
HETATM   27  O2  UNL     1      26.088   1.303  51.835  1.00  0.00    -0.650 OA
BRANCH  26  28
HETATM   28  O3  UNL     1      27.709   2.858  51.958  1.00  0.00    -0.776 OA
HETATM   29  H15 UNL     1      28.289   2.293  52.560  1.00  0.00     0.167 HD
ENDBRANCH  26  28
ENDBRANCH  25  26
ENDBRANCH  18  25
ENDBRANCH   8  14
TORSDOF 7
ENDMDL
MODEL 9
REMARK VINA RESULT:      -7.2      3.183      6.068
REMARK  7 active torsions:
REMARK  status: ('A' for Active; 'I' for Inactive)
REMARK    1  A    between atoms: C3_3  and  C4_4 
REMARK    2  A    between atoms: C4_4  and  N1_5 
REMARK    3  A    between atoms: N1_5  and  C5_6 
REMARK    4  A    between atoms: C10_12  and  C11_13 
REMARK    5  A    between atoms: C14_16  and  C15_17 
REMARK    6  A    between atoms: C15_17  and  C16_18 
REMARK    7  A    between atoms: C16_18  and  O3_20 
ROOT
HETATM    1  C1  UNL     1      25.838   4.392  49.439  1.00  0.00     0.013 C 
HETATM    2  C2  UNL     1      24.707   4.712  49.266  1.00  0.00    -0.101 C 
HETATM    3  C3  UNL     1      23.314   5.107  49.041  1.00  0.00     0.066 A 
HETATM    4  C6  UNL     1      23.219   6.595  48.894  1.00  0.00    -0.002 A 
HETATM    5  C7  UNL     1      22.650   7.613  49.508  1.00  0.00    -0.002 A 
HETATM    6  C8  UNL     1      21.881   7.215  50.671  1.00  0.00    -0.004 A 
HETATM    7  C9  UNL     1      21.915   5.912  50.864  1.00  0.00    -0.016 A 
HETATM    8  C10 UNL     1      22.507   4.714  50.248  1.00  0.00     0.059 A 
ENDROOT
BRANCH   3   9
HETATM    9  C4  UNL     1      22.777   4.468  47.772  1.00  0.00     0.149 C 
BRANCH   9  10
HETATM   10  N1  UNL     1      21.891   3.383  48.200  1.00  0.00    -0.366 N 
HETATM   11  H4  UNL     1      20.989   3.244  48.746  1.00  0.00     0.161 HD
BRANCH  10  12
HETATM   12  C5  UNL     1      22.297   2.074  47.798  1.00  0.00     0.348 C 
HETATM   13  O1  UNL     1      21.690   1.027  48.200  1.00  0.00    -0.284 OA
ENDBRANCH  10  12
ENDBRANCH   9  10
ENDBRANCH   3   9
BRANCH   8  14
HETATM   14  C11 UNL     1      23.367   3.964  51.215  1.00  0.00     0.013 C 
HETATM   15  C12 UNL     1      23.259   2.829  51.933  1.00  0.00     0.026 C 
HETATM   16  C13 UNL     1      22.005   2.027  51.813  1.00  0.00     0.032 C 
HETATM   17  N2  UNL     1      24.576   2.585  52.555  1.00  0.00    -0.385 N 
HETATM   18  C14 UNL     1      21.652   0.897  52.459  1.00  0.00    -0.068 C 
HETATM   19  C17 UNL     1      22.194   0.377  53.719  1.00  0.00     0.034 C 
HETATM   20  C18 UNL     1      23.245  -0.786  53.508  1.00  0.00     0.004 C 
HETATM   21  C19 UNL     1      24.214   0.074  52.864  1.00  0.00     0.002 C 
HETATM   22  C20 UNL     1      25.530   0.250  52.406  1.00  0.00     0.020 C 
HETATM   23  C21 UNL     1      25.343   1.654  51.717  1.00  0.00     0.122 C 
HETATM   24  C22 UNL     1      24.692   3.342  53.775  1.00  0.00     0.149 C 
BRANCH  18  25
HETATM   25  C15 UNL     1      20.350   0.270  52.120  1.00  0.00     0.144 C 
BRANCH  25  26
HETATM   26  C16 UNL     1      19.521   1.244  51.388  1.00  0.00     0.143 C 
HETATM   27  O2  UNL     1      18.838   2.233  51.835  1.00  0.00    -0.650 OA
BRANCH  26  28
HETATM   28  O3  UNL     1      19.467   1.071  50.014  1.00  0.00    -0.776 OA
HETATM   29  H15 UNL     1      20.099   0.429  49.560  1.00  0.00     0.167 HD
ENDBRANCH  26  28
ENDBRANCH  25  26
ENDBRANCH  18  25
ENDBRANCH   8  14
TORSDOF 7
ENDMDL
