MODEL 1
REMARK VINA RESULT:      -8.2      0.000      0.000
REMARK  4 active torsions:
REMARK  status: ('A' for Active; 'I' for Inactive)
REMARK    1  A    between atoms: C5_5  and  C6_6 
REMARK    2  A    between atoms: C11_12  and  C12_13 
REMARK    3  A    between atoms: C12_13  and  C13_14 
REMARK    4  A    between atoms: C14_15  and  C15_16 
ROOT
HETATM    1  C6  UNL     1      26.555   5.383  49.261  1.00  0.00    -0.002 C 
HETATM    2  C7  UNL     1      25.697   6.284  49.855  1.00  0.00     0.016 C 
HETATM    3  C8  UNL     1      24.376   6.397  49.471  1.00  0.00     0.025 C 
HETATM    4  C9  UNL     1      23.779   5.288  48.945  1.00  0.00     0.141 C 
HETATM    5  O1  UNL     1      23.266   4.176  49.454  1.00  0.00    -0.334 OA
HETATM    6  C10 UNL     1      23.761   2.992  49.131  1.00  0.00     0.148 C 
HETATM    7  C11 UNL     1      24.579   2.692  50.202  1.00  0.00    -0.032 C 
HETATM    8  C18 UNL     1      25.874   3.129  50.194  1.00  0.00     0.010 C 
HETATM    9  C19 UNL     1      26.441   4.016  49.302  1.00  0.00     0.015 C 
ENDROOT
BRANCH   7  10
HETATM   10  C12 UNL     1      24.145   1.913  51.393  1.00  0.00     0.067 C 
BRANCH  10  11
HETATM   11  C13 UNL     1      25.405   1.455  52.074  1.00  0.00    -0.021 C 
HETATM   12  C14 UNL     1      26.161   0.374  52.303  1.00  0.00     0.018 C 
BRANCH  12  13
HETATM   13  C15 UNL     1      27.422   0.321  53.075  1.00  0.00     0.047 C 
HETATM   14  C16 UNL     1      28.034  -0.706  53.609  1.00  0.00     0.004 C 
HETATM   15  C17 UNL     1      28.082   0.012  54.721  1.00  0.00     0.097 C 
HETATM   16  S1  UNL     1      28.760   1.322  53.726  1.00  0.00     0.076 S 
HETATM   17  O2  UNL     1      28.351   2.720  54.122  1.00  0.00    -0.248 OA
ENDBRANCH  12  13
ENDBRANCH  10  11
ENDBRANCH   7  10
BRANCH   1  18
HETATM   18  C5  UNL     1      27.688   5.916  48.518  1.00  0.00     0.086 A 
HETATM   19  C4  UNL     1      27.819   7.036  47.738  1.00  0.00     0.040 A 
HETATM   20  C3  UNL     1      29.113   7.131  47.227  1.00  0.00     0.035 A 
HETATM   21  C2  UNL     1      29.718   6.013  47.752  1.00  0.00     0.050 A 
HETATM   22  C1  UNL     1      31.141   5.624  47.515  1.00  0.00     0.076 C 
HETATM   23  O3  UNL     1      28.871   5.328  48.495  1.00  0.00    -0.315 OA
ENDBRANCH   1  18
TORSDOF 4
ENDMDL
MODEL 2
REMARK VINA RESULT:      -8.1      5.584      8.108
REMARK  4 active torsions:
REMARK  status: ('A' for Active; 'I' for Inactive)
REMARK    1  A    between atoms: C5_5  and  C6_6 
REMARK    2  A    between atoms: C11_12  and  C12_13 
REMARK    3  A    between atoms: C12_13  and  C13_14 
REMARK    4  A    between atoms: C14_15  and  C15_16 
ROOT
HETATM    1  C6  UNL     1      25.799   0.612  53.843  1.00  0.00    -0.002 C 
HETATM    2  C7  UNL     1      25.479   1.941  54.025  1.00  0.00     0.016 C 
HETATM    3  C8  UNL     1      24.730   2.644  53.103  1.00  0.00     0.025 C 
HETATM    4  C9  UNL     1      23.851   1.934  52.338  1.00  0.00     0.141 C 
HETATM    5  O1  UNL     1      22.644   1.422  52.541  1.00  0.00    -0.334 OA
HETATM    6  C10 UNL     1      22.435   0.119  52.436  1.00  0.00     0.148 C 
HETATM    7  C11 UNL     1      22.456  -0.308  53.748  1.00  0.00    -0.032 C 
HETATM    8  C18 UNL     1      23.651  -0.642  54.321  1.00  0.00     0.010 C 
HETATM    9  C19 UNL     1      24.908  -0.431  53.794  1.00  0.00     0.015 C 
ENDROOT
BRANCH   7  10
HETATM   10  C12 UNL     1      21.247  -0.431  54.606  1.00  0.00     0.067 C 
BRANCH  10  11
HETATM   11  C13 UNL     1      20.066  -0.334  53.681  1.00  0.00    -0.021 C 
HETATM   12  C14 UNL     1      18.917  -0.937  53.351  1.00  0.00     0.018 C 
BRANCH  12  13
HETATM   13  C15 UNL     1      17.957  -0.506  52.310  1.00  0.00     0.047 C 
HETATM   14  C16 UNL     1      18.180  -0.077  51.094  1.00  0.00     0.004 C 
HETATM   15  C17 UNL     1      17.384   0.937  51.399  1.00  0.00     0.097 C 
HETATM   16  S1  UNL     1      16.214  -0.283  51.955  1.00  0.00     0.076 S 
HETATM   17  O2  UNL     1      15.384   0.108  53.155  1.00  0.00    -0.248 OA
ENDBRANCH  12  13
ENDBRANCH  10  11
ENDBRANCH   7  10
BRANCH   1  18
HETATM   18  C5  UNL     1      27.206   0.269  53.689  1.00  0.00     0.086 A 
HETATM   19  C4  UNL     1      28.325   1.051  53.570  1.00  0.00     0.040 A 
HETATM   20  C3  UNL     1      29.467   0.261  53.442  1.00  0.00     0.035 A 
HETATM   21  C2  UNL     1      28.949  -1.012  53.494  1.00  0.00     0.050 A 
HETATM   22  C1  UNL     1      29.758  -2.265  53.401  1.00  0.00     0.076 C 
HETATM   23  O3  UNL     1      27.639  -0.978  53.637  1.00  0.00    -0.315 OA
ENDBRANCH   1  18
TORSDOF 4
ENDMDL
MODEL 3
REMARK VINA RESULT:      -8.0      1.859      2.861
REMARK  4 active torsions:
REMARK  status: ('A' for Active; 'I' for Inactive)
REMARK    1  A    between atoms: C5_5  and  C6_6 
REMARK    2  A    between atoms: C11_12  and  C12_13 
REMARK    3  A    between atoms: C12_13  and  C13_14 
REMARK    4  A    between atoms: C14_15  and  C15_16 
ROOT
HETATM    1  C6  UNL     1      24.194   4.408  50.936  1.00  0.00    -0.002 C 
HETATM    2  C7  UNL     1      23.585   4.963  52.041  1.00  0.00     0.016 C 
HETATM    3  C8  UNL     1      22.244   4.774  52.307  1.00  0.00     0.025 C 
HETATM    4  C9  UNL     1      21.668   3.628  51.841  1.00  0.00     0.141 C 
HETATM    5  O1  UNL     1      21.659   2.362  52.237  1.00  0.00    -0.334 OA
HETATM    6  C10 UNL     1      22.133   1.405  51.456  1.00  0.00     0.148 C 
HETATM    7  C11 UNL     1      23.400   1.191  51.958  1.00  0.00    -0.032 C 
HETATM    8  C18 UNL     1      24.438   1.950  51.495  1.00  0.00     0.010 C 
HETATM    9  C19 UNL     1      24.349   3.067  50.690  1.00  0.00     0.015 C 
ENDROOT
BRANCH   7  10
HETATM   10  C12 UNL     1      23.729   0.172  52.992  1.00  0.00     0.067 C 
BRANCH  10  11
HETATM   11  C13 UNL     1      25.221   0.224  53.170  1.00  0.00    -0.021 C 
HETATM   12  C14 UNL     1      26.327  -0.530  53.129  1.00  0.00     0.018 C 
BRANCH  12  13
HETATM   13  C15 UNL     1      27.714  -0.082  53.383  1.00  0.00     0.047 C 
HETATM   14  C16 UNL     1      28.798  -0.789  53.581  1.00  0.00     0.004 C 
HETATM   15  C17 UNL     1      28.993  -0.030  54.649  1.00  0.00     0.097 C 
HETATM   16  S1  UNL     1      28.753   1.367  53.572  1.00  0.00     0.076 S 
HETATM   17  O2  UNL     1      28.052   2.553  54.190  1.00  0.00    -0.248 OA
ENDBRANCH  12  13
ENDBRANCH  10  11
ENDBRANCH   7  10
BRANCH   1  18
HETATM   18  C5  UNL     1      24.725   5.317  49.928  1.00  0.00     0.086 A 
HETATM   19  C4  UNL     1      24.111   6.235  49.118  1.00  0.00     0.040 A 
HETATM   20  C3  UNL     1      25.045   6.876  48.305  1.00  0.00     0.035 A 
HETATM   21  C2  UNL     1      26.224   6.283  48.689  1.00  0.00     0.050 A 
HETATM   22  C1  UNL     1      27.567   6.609  48.121  1.00  0.00     0.076 C 
HETATM   23  O3  UNL     1      26.010   5.384  49.630  1.00  0.00    -0.315 OA
ENDBRANCH   1  18
TORSDOF 4
ENDMDL
MODEL 4
REMARK VINA RESULT:      -7.9      3.158      7.007
REMARK  4 active torsions:
REMARK  status: ('A' for Active; 'I' for Inactive)
REMARK    1  A    between atoms: C5_5  and  C6_6 
REMARK    2  A    between atoms: C11_12  and  C12_13 
REMARK    3  A    between atoms: C12_13  and  C13_14 
REMARK    4  A    between atoms: C14_15  and  C15_16 
ROOT
HETATM    1  C6  UNL     1      21.640   1.092  50.471  1.00  0.00    -0.002 C 
HETATM    2  C7  UNL     1      21.570   0.895  49.108  1.00  0.00     0.016 C 
HETATM    3  C8  UNL     1      21.399   1.944  48.227  1.00  0.00     0.025 C 
HETATM    4  C9  UNL     1      21.859   3.169  48.614  1.00  0.00     0.141 C 
HETATM    5  O1  UNL     1      23.054   3.743  48.660  1.00  0.00    -0.334 OA
HETATM    6  C10 UNL     1      23.561   4.159  49.809  1.00  0.00     0.148 C 
HETATM    7  C11 UNL     1      24.422   3.139  50.159  1.00  0.00    -0.032 C 
HETATM    8  C18 UNL     1      23.940   2.074  50.867  1.00  0.00     0.010 C 
HETATM    9  C19 UNL     1      22.617   1.790  51.135  1.00  0.00     0.015 C 
ENDROOT
BRANCH   7  10
HETATM   10  C12 UNL     1      25.869   3.110  49.813  1.00  0.00     0.067 C 
BRANCH  10  11
HETATM   11  C13 UNL     1      26.546   2.335  50.909  1.00  0.00    -0.021 C 
HETATM   12  C14 UNL     1      27.051   2.453  52.143  1.00  0.00     0.018 C 
BRANCH  12  13
HETATM   13  C15 UNL     1      27.679   1.383  52.950  1.00  0.00     0.047 C 
HETATM   14  C16 UNL     1      27.348   0.122  53.068  1.00  0.00     0.004 C 
HETATM   15  C17 UNL     1      27.409   0.319  54.377  1.00  0.00     0.097 C 
HETATM   16  S1  UNL     1      29.015   1.030  54.092  1.00  0.00     0.076 S 
HETATM   17  O2  UNL     1      29.384   2.188  54.989  1.00  0.00    -0.248 OA
ENDBRANCH  12  13
ENDBRANCH  10  11
ENDBRANCH   7  10
BRANCH   1  18
HETATM   18  C5  UNL     1      20.586   0.512  51.293  1.00  0.00     0.086 A 
HETATM   19  C4  UNL     1      20.595   0.029  52.575  1.00  0.00     0.040 A 
HETATM   20  C3  UNL     1      19.330  -0.431  52.937  1.00  0.00     0.035 A 
HETATM   21  C2  UNL     1      18.594  -0.187  51.801  1.00  0.00     0.050 A 
HETATM   22  C1  UNL     1      17.141  -0.497  51.645  1.00  0.00     0.076 C 
HETATM   23  O3  UNL     1      19.346   0.359  50.866  1.00  0.00    -0.315 OA
ENDBRANCH   1  18
TORSDOF 4
ENDMDL
MODEL 5
REMARK VINA RESULT:      -7.6      3.094      7.627
REMARK  4 active torsions:
REMARK  status: ('A' for Active; 'I' for Inactive)
REMARK    1  A    between atoms: C5_5  and  C6_6 
REMARK    2  A    between atoms: C11_12  and  C12_13 
REMARK    3  A    between atoms: C12_13  and  C13_14 
REMARK    4  A    between atoms: C14_15  and  C15_16 
ROOT
HETATM    1  C6  UNL     1      24.020   2.093  52.082  1.00  0.00    -0.002 C 
HETATM    2  C7  UNL     1      24.886   2.527  53.063  1.00  0.00     0.016 C 
HETATM    3  C8  UNL     1      26.252   2.360  52.957  1.00  0.00     0.025 C 
HETATM    4  C9  UNL     1      26.781   2.302  51.701  1.00  0.00     0.141 C 
HETATM    5  O1  UNL     1      27.080   3.202  50.774  1.00  0.00    -0.334 OA
HETATM    6  C10 UNL     1      26.499   3.171  49.585  1.00  0.00     0.148 C 
HETATM    7  C11 UNL     1      25.507   4.125  49.697  1.00  0.00    -0.032 C 
HETATM    8  C18 UNL     1      24.288   3.763  50.197  1.00  0.00     0.010 C 
HETATM    9  C19 UNL     1      23.962   2.562  50.794  1.00  0.00     0.015 C 
ENDROOT
BRANCH   7  10
HETATM   10  C12 UNL     1      25.672   5.551  49.306  1.00  0.00     0.067 C 
BRANCH  10  11
HETATM   11  C13 UNL     1      27.089   5.691  48.823  1.00  0.00    -0.021 C 
HETATM   12  C14 UNL     1      27.900   6.485  48.113  1.00  0.00     0.018 C 
BRANCH  12  13
HETATM   13  C15 UNL     1      29.338   6.267  47.840  1.00  0.00     0.047 C 
HETATM   14  C16 UNL     1      30.056   5.179  47.961  1.00  0.00     0.004 C 
HETATM   15  C17 UNL     1      30.912   5.924  48.643  1.00  0.00     0.097 C 
HETATM   16  S1  UNL     1      30.841   7.069  47.282  1.00  0.00     0.076 S 
HETATM   17  O2  UNL     1      30.936   8.530  47.653  1.00  0.00    -0.248 OA
ENDBRANCH  12  13
ENDBRANCH  10  11
ENDBRANCH   7  10
BRANCH   1  18
HETATM   18  C5  UNL     1      23.074   1.041  52.431  1.00  0.00     0.086 A 
HETATM   19  C4  UNL     1      21.949   0.584  51.797  1.00  0.00     0.040 A 
HETATM   20  C3  UNL     1      21.363  -0.453  52.522  1.00  0.00     0.035 A 
HETATM   21  C2  UNL     1      22.207  -0.569  53.601  1.00  0.00     0.050 A 
HETATM   22  C1  UNL     1      22.039  -1.553  54.713  1.00  0.00     0.076 C 
HETATM   23  O3  UNL     1      23.189   0.308  53.523  1.00  0.00    -0.315 OA
ENDBRANCH   1  18
TORSDOF 4
ENDMDL
MODEL 6
REMARK VINA RESULT:      -7.6      1.651      1.924
REMARK  4 active torsions:
REMARK  status: ('A' for Active; 'I' for Inactive)
REMARK    1  A    between atoms: C5_5  and  C6_6 
REMARK    2  A    between atoms: C11_12  and  C12_13 
REMARK    3  A    between atoms: C12_13  and  C13_14 
REMARK    4  A    between atoms: C14_15  and  C15_16 
ROOT
HETATM    1  C6  UNL     1      25.368   5.291  49.522  1.00  0.00    -0.002 C 
HETATM    2  C7  UNL     1      24.724   6.105  50.430  1.00  0.00     0.016 C 
HETATM    3  C8  UNL     1      23.434   6.551  50.223  1.00  0.00     0.025 C 
HETATM    4  C9  UNL     1      22.615   5.770  49.460  1.00  0.00     0.141 C 
HETATM    5  O1  UNL     1      21.920   4.660  49.676  1.00  0.00    -0.334 OA
HETATM    6  C10 UNL     1      22.166   3.561  48.981  1.00  0.00     0.148 C 
HETATM    7  C11 UNL     1      22.955   2.820  49.837  1.00  0.00    -0.032 C 
HETATM    8  C18 UNL     1      24.308   3.012  49.830  1.00  0.00     0.010 C 
HETATM    9  C19 UNL     1      24.997   4.015  49.180  1.00  0.00     0.015 C 
ENDROOT
BRANCH   7  10
HETATM   10  C12 UNL     1      22.430   1.805  50.790  1.00  0.00     0.067 C 
BRANCH  10  11
HETATM   11  C13 UNL     1      23.621   1.291  51.551  1.00  0.00    -0.021 C 
HETATM   12  C14 UNL     1      24.081   1.068  52.789  1.00  0.00     0.018 C 
BRANCH  12  13
HETATM   13  C15 UNL     1      25.401   0.512  53.156  1.00  0.00     0.047 C 
HETATM   14  C16 UNL     1      26.443   0.264  52.403  1.00  0.00     0.004 C 
HETATM   15  C17 UNL     1      26.450  -0.939  52.959  1.00  0.00     0.097 C 
HETATM   16  S1  UNL     1      26.380  -0.101  54.528  1.00  0.00     0.076 S 
HETATM   17  O2  UNL     1      25.575  -0.793  55.601  1.00  0.00    -0.248 OA
ENDBRANCH  12  13
ENDBRANCH  10  11
ENDBRANCH   7  10
BRANCH   1  18
HETATM   18  C5  UNL     1      26.551   5.821  48.858  1.00  0.00     0.086 A 
HETATM   19  C4  UNL     1      26.768   6.996  48.187  1.00  0.00     0.040 A 
HETATM   20  C3  UNL     1      28.079   7.060  47.718  1.00  0.00     0.035 A 
HETATM   21  C2  UNL     1      28.604   5.867  48.153  1.00  0.00     0.050 A 
HETATM   22  C1  UNL     1      30.010   5.418  47.916  1.00  0.00     0.076 C 
HETATM   23  O3  UNL     1      27.699   5.169  48.810  1.00  0.00    -0.315 OA
ENDBRANCH   1  18
TORSDOF 4
ENDMDL
MODEL 7
REMARK VINA RESULT:      -7.5      5.129      9.996
REMARK  4 active torsions:
REMARK  status: ('A' for Active; 'I' for Inactive)
REMARK    1  A    between atoms: C5_5  and  C6_6 
REMARK    2  A    between atoms: C11_12  and  C12_13 
REMARK    3  A    between atoms: C12_13  and  C13_14 
REMARK    4  A    between atoms: C14_15  and  C15_16 
ROOT
HETATM    1  C6  UNL     1      31.156   5.727  47.294  1.00  0.00    -0.002 C 
HETATM    2  C7  UNL     1      31.715   6.843  46.710  1.00  0.00     0.016 C 
HETATM    3  C8  UNL     1      32.804   7.488  47.261  1.00  0.00     0.025 C 
HETATM    4  C9  UNL     1      33.658   6.741  48.018  1.00  0.00     0.141 C 
HETATM    5  O1  UNL     1      34.631   5.881  47.750  1.00  0.00    -0.334 OA
HETATM    6  C10 UNL     1      34.558   4.625  48.161  1.00  0.00     0.148 C 
HETATM    7  C11 UNL     1      34.125   3.952  47.036  1.00  0.00    -0.032 C 
HETATM    8  C18 UNL     1      32.783   3.851  46.796  1.00  0.00     0.010 C 
HETATM    9  C19 UNL     1      31.772   4.512  47.462  1.00  0.00     0.015 C 
ENDROOT
BRANCH   7  10
HETATM   10  C12 UNL     1      35.031   3.316  46.042  1.00  0.00     0.067 C 
BRANCH  10  11
HETATM   11  C13 UNL     1      34.981   4.185  44.816  1.00  0.00    -0.021 C 
HETATM   12  C14 UNL     1      34.316   5.203  44.256  1.00  0.00     0.018 C 
BRANCH  12  13
HETATM   13  C15 UNL     1      34.587   5.822  42.940  1.00  0.00     0.047 C 
HETATM   14  C16 UNL     1      33.818   5.912  41.884  1.00  0.00     0.004 C 
HETATM   15  C17 UNL     1      34.848   5.435  41.201  1.00  0.00     0.097 C 
HETATM   16  S1  UNL     1      35.822   6.702  41.983  1.00  0.00     0.076 S 
HETATM   17  O2  UNL     1      37.246   6.320  42.312  1.00  0.00    -0.248 OA
ENDBRANCH  12  13
ENDBRANCH  10  11
ENDBRANCH   7  10
BRANCH   1  18
HETATM   18  C5  UNL     1      29.788   5.832  47.783  1.00  0.00     0.086 A 
HETATM   19  C4  UNL     1      28.939   6.903  47.887  1.00  0.00     0.040 A 
HETATM   20  C3  UNL     1      27.713   6.509  48.422  1.00  0.00     0.035 A 
HETATM   21  C2  UNL     1      27.899   5.161  48.619  1.00  0.00     0.050 A 
HETATM   22  C1  UNL     1      26.874   4.232  49.183  1.00  0.00     0.076 C 
HETATM   23  O3  UNL     1      29.109   4.796  48.240  1.00  0.00    -0.315 OA
ENDBRANCH   1  18
TORSDOF 4
ENDMDL
MODEL 8
REMARK VINA RESULT:      -7.3      2.976      7.180
REMARK  4 active torsions:
REMARK  status: ('A' for Active; 'I' for Inactive)
REMARK    1  A    between atoms: C5_5  and  C6_6 
REMARK    2  A    between atoms: C11_12  and  C12_13 
REMARK    3  A    between atoms: C12_13  and  C13_14 
REMARK    4  A    between atoms: C14_15  and  C15_16 
ROOT
HETATM    1  C6  UNL     1      25.924   1.238  52.256  1.00  0.00    -0.002 C 
HETATM    2  C7  UNL     1      24.708   0.592  52.182  1.00  0.00     0.016 C 
HETATM    3  C8  UNL     1      23.555   1.146  52.698  1.00  0.00     0.025 C 
HETATM    4  C9  UNL     1      23.486   2.508  52.759  1.00  0.00     0.141 C 
HETATM    5  O1  UNL     1      23.243   3.468  51.876  1.00  0.00    -0.334 OA
HETATM    6  C10 UNL     1      24.149   4.397  51.619  1.00  0.00     0.148 C 
HETATM    7  C11 UNL     1      24.734   3.950  50.452  1.00  0.00    -0.032 C 
HETATM    8  C18 UNL     1      25.785   3.080  50.524  1.00  0.00     0.010 C 
HETATM    9  C19 UNL     1      26.242   2.427  51.651  1.00  0.00     0.015 C 
ENDROOT
BRANCH   7  10
HETATM   10  C12 UNL     1      24.293   4.352  49.089  1.00  0.00     0.067 C 
BRANCH  10  11
HETATM   11  C13 UNL     1      25.028   5.624  48.770  1.00  0.00    -0.021 C 
HETATM   12  C14 UNL     1      24.848   6.932  48.546  1.00  0.00     0.018 C 
BRANCH  12  13
HETATM   13  C15 UNL     1      25.897   7.931  48.243  1.00  0.00     0.047 C 
HETATM   14  C16 UNL     1      26.834   7.909  47.329  1.00  0.00     0.004 C 
HETATM   15  C17 UNL     1      27.675   8.207  48.309  1.00  0.00     0.097 C 
HETATM   16  S1  UNL     1      26.556   9.527  48.728  1.00  0.00     0.076 S 
HETATM   17  O2  UNL     1      26.426   9.826  50.203  1.00  0.00    -0.248 OA
ENDBRANCH  12  13
ENDBRANCH  10  11
ENDBRANCH   7  10
BRANCH   1  18
HETATM   18  C5  UNL     1      26.976   0.612  53.046  1.00  0.00     0.086 A 
HETATM   19  C4  UNL     1      27.465   0.894  54.295  1.00  0.00     0.040 A 
HETATM   20  C3  UNL     1      28.487   0.008  54.635  1.00  0.00     0.035 A 
HETATM   21  C2  UNL     1      28.560  -0.795  53.521  1.00  0.00     0.050 A 
HETATM   22  C1  UNL     1      29.512  -1.935  53.354  1.00  0.00     0.076 C 
HETATM   23  O3  UNL     1      27.674  -0.423  52.618  1.00  0.00    -0.315 OA
ENDBRANCH   1  18
TORSDOF 4
ENDMDL
MODEL 9
REMARK VINA RESULT:      -7.3      2.599      6.789
REMARK  4 active torsions:
REMARK  status: ('A' for Active; 'I' for Inactive)
REMARK    1  A    between atoms: C5_5  and  C6_6 
REMARK    2  A    between atoms: C11_12  and  C12_13 
REMARK    3  A    between atoms: C12_13  and  C13_14 
REMARK    4  A    between atoms: C14_15  and  C15_16 
ROOT
HETATM    1  C6  UNL     1      24.826   2.807  50.599  1.00  0.00    -0.002 C 
HETATM    2  C7  UNL     1      23.687   2.957  49.836  1.00  0.00     0.016 C 
HETATM    3  C8  UNL     1      22.867   4.060  49.959  1.00  0.00     0.025 C 
HETATM    4  C9  UNL     1      23.441   5.224  50.381  1.00  0.00     0.141 C 
HETATM    5  O1  UNL     1      24.180   6.162  49.802  1.00  0.00    -0.334 OA
HETATM    6  C10 UNL     1      25.404   6.422  50.234  1.00  0.00     0.148 C 
HETATM    7  C11 UNL     1      26.203   5.732  49.345  1.00  0.00    -0.032 C 
HETATM    8  C18 UNL     1      26.498   4.421  49.592  1.00  0.00     0.010 C 
HETATM    9  C19 UNL     1      25.934   3.616  50.560  1.00  0.00     0.015 C 
ENDROOT
BRANCH   7  10
HETATM   10  C12 UNL     1      26.778   6.323  48.106  1.00  0.00     0.067 C 
BRANCH  10  11
HETATM   11  C13 UNL     1      28.264   6.390  48.327  1.00  0.00    -0.021 C 
HETATM   12  C14 UNL     1      29.442   6.119  47.751  1.00  0.00     0.018 C 
BRANCH  12  13
HETATM   13  C15 UNL     1      30.785   6.343  48.330  1.00  0.00     0.047 C 
HETATM   14  C16 UNL     1      31.737   5.483  48.590  1.00  0.00     0.004 C 
HETATM   15  C17 UNL     1      31.783   6.031  49.795  1.00  0.00     0.097 C 
HETATM   16  S1  UNL     1      31.893   7.601  48.965  1.00  0.00     0.076 S 
HETATM   17  O2  UNL     1      31.194   8.751  49.650  1.00  0.00    -0.248 OA
ENDBRANCH  12  13
ENDBRANCH  10  11
ENDBRANCH   7  10
BRANCH   1  18
HETATM   18  C5  UNL     1      24.871   1.691  51.535  1.00  0.00     0.086 A 
HETATM   19  C4  UNL     1      25.910   0.910  51.969  1.00  0.00     0.040 A 
HETATM   20  C3  UNL     1      25.460  -0.046  52.879  1.00  0.00     0.035 A 
HETATM   21  C2  UNL     1      24.114   0.225  52.946  1.00  0.00     0.050 A 
HETATM   22  C1  UNL     1      23.136  -0.521  53.794  1.00  0.00     0.076 C 
HETATM   23  O3  UNL     1      23.800   1.235  52.158  1.00  0.00    -0.315 OA
ENDBRANCH   1  18
TORSDOF 4
ENDMDL
