MODEL 1
REMARK VINA RESULT:     -10.2      0.000      0.000
REMARK  1 active torsions:
REMARK  status: ('A' for Active; 'I' for Inactive)
REMARK    1  A    between atoms: C14_15  and  N1_16 
ROOT
HETATM    1  C1  UNL     1      25.321   6.615  47.747  1.00  0.00     0.016 C 
HETATM    2  C2  UNL     1      26.006   6.393  49.072  1.00  0.00     0.032 C 
HETATM    3  C3  UNL     1      26.763   5.091  49.005  1.00  0.00    -0.021 C 
HETATM    4  C4  UNL     1      26.761   3.869  49.511  1.00  0.00    -0.003 C 
HETATM    5  C5  UNL     1      26.030   3.022  50.423  1.00  0.00     0.012 C 
HETATM    6  C6  UNL     1      25.005   2.861  51.244  1.00  0.00     0.005 C 
HETATM    7  C7  UNL     1      25.137   1.468  51.791  1.00  0.00     0.189 C 
HETATM    8  O1  UNL     1      26.023   0.549  51.610  1.00  0.00    -0.287 OA
HETATM    9  C8  UNL     1      24.161   0.899  52.714  1.00  0.00     0.012 C 
HETATM   10  C9  UNL     1      23.055   1.636  53.124  1.00  0.00     0.000 C 
HETATM   11  C10 UNL     1      22.760   2.409  51.886  1.00  0.00    -0.000 C 
HETATM   12  C11 UNL     1      22.695   1.375  50.846  1.00  0.00     0.049 C 
HETATM   13  C12 UNL     1      21.414   0.928  51.670  1.00  0.00    -0.076 C 
HETATM   14  C13 UNL     1      20.393   0.468  52.424  1.00  0.00     0.026 C 
HETATM   15  C14 UNL     1      20.649  -0.563  53.381  1.00  0.00     0.006 C 
HETATM   16  C15 UNL     1      21.684  -1.160  53.917  1.00  0.00     0.023 C 
HETATM   17  C16 UNL     1      23.141  -1.080  53.906  1.00  0.00     0.003 C 
HETATM   18  C17 UNL     1      24.079  -0.308  53.444  1.00  0.00     0.015 C 
HETATM   19  C18 UNL     1      21.300   2.510  51.684  1.00  0.00     0.049 C 
HETATM   20  C19 UNL     1      23.755   3.477  51.803  1.00  0.00     0.039 C 
HETATM   21  C20 UNL     1      24.125   3.856  53.238  1.00  0.00     0.025 C 
HETATM   22  C21 UNL     1      23.403   4.702  51.108  1.00  0.00     0.212 C 
HETATM   23  C22 UNL     1      22.002   5.058  50.777  1.00  0.00     0.212 C 
HETATM   24  O2  UNL     1      22.407   6.420  50.867  1.00  0.00    -0.386 OA
HETATM   25  C23 UNL     1      23.199   5.952  51.948  1.00  0.00     0.212 C 
HETATM   26  N2  UNL     1      24.264   5.020  49.986  1.00  0.00     0.099 N 
HETATM   27  C24 UNL     1      25.017   6.201  50.200  1.00  0.00     0.279 C 
HETATM   28  H26 UNL     1      23.793   5.072  49.076  1.00  0.00     0.317 HD
ENDROOT
BRANCH  15  29
HETATM   29  N1  UNL     1      19.322  -0.976  53.772  1.00  0.00    -0.303 NA
HETATM   30  H12 UNL     1      18.290  -0.928  53.835  1.00  0.00     0.124 HD
HETATM   31  H13 UNL     1      18.387  -0.530  53.577  1.00  0.00     0.124 HD
ENDBRANCH  15  29
TORSDOF 1
ENDMDL
MODEL 2
REMARK VINA RESULT:      -9.9      1.793      6.350
REMARK  1 active torsions:
REMARK  status: ('A' for Active; 'I' for Inactive)
REMARK    1  A    between atoms: C14_15  and  N1_16 
ROOT
HETATM    1  C1  UNL     1      21.542  -0.518  54.957  1.00  0.00     0.016 C 
HETATM    2  C2  UNL     1      22.112  -0.905  53.616  1.00  0.00     0.032 C 
HETATM    3  C3  UNL     1      23.610  -0.743  53.670  1.00  0.00    -0.021 C 
HETATM    4  C4  UNL     1      24.587  -0.004  53.170  1.00  0.00    -0.003 C 
HETATM    5  C5  UNL     1      24.825   1.110  52.282  1.00  0.00     0.012 C 
HETATM    6  C6  UNL     1      24.336   2.050  51.490  1.00  0.00     0.005 C 
HETATM    7  C7  UNL     1      25.529   2.784  50.947  1.00  0.00     0.189 C 
HETATM    8  O1  UNL     1      26.797   2.612  51.109  1.00  0.00    -0.287 OA
HETATM    9  C8  UNL     1      25.398   3.930  50.054  1.00  0.00     0.012 C 
HETATM   10  C9  UNL     1      24.144   4.393  49.670  1.00  0.00     0.000 C 
HETATM   11  C10 UNL     1      23.361   4.141  50.911  1.00  0.00    -0.000 C 
HETATM   12  C11 UNL     1      24.168   4.781  51.958  1.00  0.00     0.049 C 
HETATM   13  C12 UNL     1      23.758   6.097  51.171  1.00  0.00    -0.076 C 
HETATM   14  C13 UNL     1      23.513   7.210  50.448  1.00  0.00     0.026 C 
HETATM   15  C14 UNL     1      24.484   7.640  49.490  1.00  0.00     0.006 C 
HETATM   16  C15 UNL     1      25.572   7.174  48.929  1.00  0.00     0.023 C 
HETATM   17  C16 UNL     1      26.372   5.955  48.900  1.00  0.00     0.003 C 
HETATM   18  C17 UNL     1      26.312   4.730  49.333  1.00  0.00     0.015 C 
HETATM   19  C18 UNL     1      22.416   5.251  51.153  1.00  0.00     0.049 C 
HETATM   20  C19 UNL     1      23.093   2.705  50.962  1.00  0.00     0.039 C 
HETATM   21  C20 UNL     1      22.990   2.217  49.515  1.00  0.00     0.025 C 
HETATM   22  C21 UNL     1      21.906   2.244  51.660  1.00  0.00     0.212 C 
HETATM   23  C22 UNL     1      20.792   3.152  52.027  1.00  0.00     0.212 C 
HETATM   24  O2  UNL     1      19.935   2.020  51.919  1.00  0.00    -0.386 OA
HETATM   25  C23 UNL     1      20.768   1.687  50.819  1.00  0.00     0.212 C 
HETATM   26  N2  UNL     1      22.174   1.335  52.756  1.00  0.00     0.099 N 
HETATM   27  C24 UNL     1      21.667   0.033  52.516  1.00  0.00     0.279 C 
HETATM   28  H26 UNL     1      21.863   1.660  53.679  1.00  0.00     0.317 HD
ENDROOT
BRANCH  15  29
HETATM   29  N1  UNL     1      24.025   8.962  49.136  1.00  0.00    -0.303 NA
HETATM   30  H12 UNL     1      23.363   9.679  48.788  1.00  0.00     0.124 HD
HETATM   31  H13 UNL     1      23.102   9.275  48.734  1.00  0.00     0.124 HD
ENDBRANCH  15  29
TORSDOF 1
ENDMDL
MODEL 3
REMARK VINA RESULT:      -9.7      2.265      3.287
REMARK  1 active torsions:
REMARK  status: ('A' for Active; 'I' for Inactive)
REMARK    1  A    between atoms: C14_15  and  N1_16 
ROOT
HETATM    1  C1  UNL     1      20.677   4.856  47.596  1.00  0.00     0.016 C 
HETATM    2  C2  UNL     1      21.615   5.697  48.424  1.00  0.00     0.032 C 
HETATM    3  C3  UNL     1      23.031   5.369  48.022  1.00  0.00    -0.021 C 
HETATM    4  C4  UNL     1      24.131   4.801  48.488  1.00  0.00    -0.003 C 
HETATM    5  C5  UNL     1      24.653   4.131  49.656  1.00  0.00     0.012 C 
HETATM    6  C6  UNL     1      24.451   3.656  50.874  1.00  0.00     0.005 C 
HETATM    7  C7  UNL     1      25.770   3.088  51.313  1.00  0.00     0.189 C 
HETATM    8  O1  UNL     1      26.925   3.043  50.742  1.00  0.00    -0.287 OA
HETATM    9  C8  UNL     1      25.943   2.431  52.604  1.00  0.00     0.012 C 
HETATM   10  C9  UNL     1      24.875   2.302  53.486  1.00  0.00     0.000 C 
HETATM   11  C10 UNL     1      23.748   2.104  52.533  1.00  0.00    -0.000 C 
HETATM   12  C11 UNL     1      24.217   1.010  51.675  1.00  0.00     0.049 C 
HETATM   13  C12 UNL     1      24.096   0.184  53.025  1.00  0.00    -0.076 C 
HETATM   14  C13 UNL     1      24.109  -0.501  54.188  1.00  0.00     0.026 C 
HETATM   15  C14 UNL     1      25.334  -0.600  54.919  1.00  0.00     0.006 C 
HETATM   16  C15 UNL     1      26.529  -0.064  54.896  1.00  0.00     0.023 C 
HETATM   17  C16 UNL     1      27.270   0.967  54.178  1.00  0.00     0.003 C 
HETATM   18  C17 UNL     1      27.052   1.905  53.304  1.00  0.00     0.015 C 
HETATM   19  C18 UNL     1      22.802   1.101  53.064  1.00  0.00     0.049 C 
HETATM   20  C19 UNL     1      23.441   3.413  51.958  1.00  0.00     0.039 C 
HETATM   21  C20 UNL     1      23.768   4.459  53.026  1.00  0.00     0.025 C 
HETATM   22  C21 UNL     1      22.088   3.670  51.499  1.00  0.00     0.212 C 
HETATM   23  C22 UNL     1      20.939   2.816  51.884  1.00  0.00     0.212 C 
HETATM   24  O2  UNL     1      20.126   3.976  51.741  1.00  0.00    -0.386 OA
HETATM   25  C23 UNL     1      21.244   4.640  52.310  1.00  0.00     0.212 C 
HETATM   26  N2  UNL     1      21.989   4.015  50.095  1.00  0.00     0.099 N 
HETATM   27  C24 UNL     1      21.547   5.346  49.895  1.00  0.00     0.279 C 
HETATM   28  H26 UNL     1      21.423   3.374  49.527  1.00  0.00     0.317 HD
ENDROOT
BRANCH  15  29
HETATM   29  N1  UNL     1      25.036  -1.603  55.913  1.00  0.00    -0.303 NA
HETATM   30  H12 UNL     1      24.454  -2.137  56.583  1.00  0.00     0.124 HD
HETATM   31  H13 UNL     1      24.134  -1.815  56.415  1.00  0.00     0.124 HD
ENDBRANCH  15  29
TORSDOF 1
ENDMDL
MODEL 4
REMARK VINA RESULT:      -9.1      2.923      4.918
REMARK  1 active torsions:
REMARK  status: ('A' for Active; 'I' for Inactive)
REMARK    1  A    between atoms: C14_15  and  N1_16 
ROOT
HETATM    1  C1  UNL     1      19.455   5.928  48.870  1.00  0.00     0.016 C 
HETATM    2  C2  UNL     1      18.919   4.523  48.976  1.00  0.00     0.032 C 
HETATM    3  C3  UNL     1      18.414   4.309  50.380  1.00  0.00    -0.021 C 
HETATM    4  C4  UNL     1      18.679   3.623  51.479  1.00  0.00    -0.003 C 
HETATM    5  C5  UNL     1      19.618   2.669  52.021  1.00  0.00     0.012 C 
HETATM    6  C6  UNL     1      20.712   1.942  51.861  1.00  0.00     0.005 C 
HETATM    7  C7  UNL     1      20.880   1.175  53.142  1.00  0.00     0.189 C 
HETATM    8  O1  UNL     1      20.169   1.119  54.216  1.00  0.00    -0.287 OA
HETATM    9  C8  UNL     1      22.009   0.278  53.369  1.00  0.00     0.012 C 
HETATM   10  C9  UNL     1      22.986   0.102  52.396  1.00  0.00     0.000 C 
HETATM   11  C10 UNL     1      23.042   1.469  51.807  1.00  0.00    -0.000 C 
HETATM   12  C11 UNL     1      23.222   2.337  52.977  1.00  0.00     0.049 C 
HETATM   13  C12 UNL     1      24.620   1.588  53.050  1.00  0.00    -0.076 C 
HETATM   14  C13 UNL     1      25.760   0.880  53.193  1.00  0.00     0.026 C 
HETATM   15  C14 UNL     1      25.770  -0.247  54.074  1.00  0.00     0.006 C 
HETATM   16  C15 UNL     1      24.905  -0.972  54.738  1.00  0.00     0.023 C 
HETATM   17  C16 UNL     1      23.462  -1.096  54.912  1.00  0.00     0.003 C 
HETATM   18  C17 UNL     1      22.366  -0.618  54.402  1.00  0.00     0.015 C 
HETATM   19  C18 UNL     1      24.440   1.832  51.493  1.00  0.00     0.049 C 
HETATM   20  C19 UNL     1      21.863   1.615  50.955  1.00  0.00     0.039 C 
HETATM   21  C20 UNL     1      21.534   0.226  50.404  1.00  0.00     0.025 C 
HETATM   22  C21 UNL     1      21.931   2.524  49.825  1.00  0.00     0.212 C 
HETATM   23  C22 UNL     1      23.214   3.047  49.296  1.00  0.00     0.212 C 
HETATM   24  O2  UNL     1      22.571   3.128  48.029  1.00  0.00    -0.386 OA
HETATM   25  C23 UNL     1      21.960   1.913  48.433  1.00  0.00     0.212 C 
HETATM   26  N2  UNL     1      20.948   3.588  49.855  1.00  0.00     0.099 N 
HETATM   27  C24 UNL     1      20.006   3.484  48.801  1.00  0.00     0.279 C 
HETATM   28  H26 UNL     1      21.334   4.539  49.879  1.00  0.00     0.317 HD
ENDROOT
BRANCH  15  29
HETATM   29  N1  UNL     1      27.175  -0.561  54.181  1.00  0.00    -0.303 NA
HETATM   30  H12 UNL     1      28.075  -0.999  53.917  1.00  0.00     0.124 HD
HETATM   31  H13 UNL     1      27.781  -1.173  53.574  1.00  0.00     0.124 HD
ENDBRANCH  15  29
TORSDOF 1
ENDMDL
MODEL 5
REMARK VINA RESULT:      -9.0      2.249      3.862
REMARK  1 active torsions:
REMARK  status: ('A' for Active; 'I' for Inactive)
REMARK    1  A    between atoms: C14_15  and  N1_16 
ROOT
HETATM    1  C1  UNL     1      23.701   8.827  49.573  1.00  0.00     0.016 C 
HETATM    2  C2  UNL     1      22.753   7.798  49.011  1.00  0.00     0.032 C 
HETATM    3  C3  UNL     1      21.658   7.557  50.019  1.00  0.00    -0.021 C 
HETATM    4  C4  UNL     1      21.194   6.625  50.835  1.00  0.00    -0.003 C 
HETATM    5  C5  UNL     1      21.452   5.275  51.278  1.00  0.00     0.012 C 
HETATM    6  C6  UNL     1      22.213   4.193  51.227  1.00  0.00     0.005 C 
HETATM    7  C7  UNL     1      21.563   3.198  52.145  1.00  0.00     0.189 C 
HETATM    8  O1  UNL     1      20.486   3.248  52.853  1.00  0.00    -0.287 OA
HETATM    9  C8  UNL     1      22.134   1.877  52.390  1.00  0.00     0.012 C 
HETATM   10  C9  UNL     1      23.319   1.489  51.775  1.00  0.00     0.000 C 
HETATM   11  C10 UNL     1      24.055   2.783  51.747  1.00  0.00    -0.000 C 
HETATM   12  C11 UNL     1      23.987   3.244  53.138  1.00  0.00     0.049 C 
HETATM   13  C12 UNL     1      24.898   1.968  53.382  1.00  0.00    -0.076 C 
HETATM   14  C13 UNL     1      25.575   0.825  53.620  1.00  0.00     0.026 C 
HETATM   15  C14 UNL     1      24.847  -0.343  54.011  1.00  0.00     0.006 C 
HETATM   16  C15 UNL     1      23.600  -0.737  54.075  1.00  0.00     0.023 C 
HETATM   17  C16 UNL     1      22.265  -0.259  53.732  1.00  0.00     0.003 C 
HETATM   18  C17 UNL     1      21.708   0.734  53.103  1.00  0.00     0.015 C 
HETATM   19  C18 UNL     1      25.488   2.561  52.035  1.00  0.00     0.049 C 
HETATM   20  C19 UNL     1      23.468   3.584  50.674  1.00  0.00     0.039 C 
HETATM   21  C20 UNL     1      22.979   2.608  49.602  1.00  0.00     0.025 C 
HETATM   22  C21 UNL     1      24.298   4.574  50.012  1.00  0.00     0.212 C 
HETATM   23  C22 UNL     1      25.776   4.585  50.130  1.00  0.00     0.212 C 
HETATM   24  O2  UNL     1      25.799   5.179  48.836  1.00  0.00    -0.386 OA
HETATM   25  C23 UNL     1      24.721   4.293  48.579  1.00  0.00     0.212 C 
HETATM   26  N2  UNL     1      23.794   5.930  50.100  1.00  0.00     0.099 N 
HETATM   27  C24 UNL     1      23.414   6.449  48.837  1.00  0.00     0.279 C 
HETATM   28  H26 UNL     1      24.415   6.597  50.573  1.00  0.00     0.317 HD
ENDROOT
BRANCH  15  29
HETATM   29  N1  UNL     1      25.889  -1.246  54.437  1.00  0.00    -0.303 NA
HETATM   30  H12 UNL     1      26.610  -1.983  54.339  1.00  0.00     0.124 HD
HETATM   31  H13 UNL     1      26.438  -1.958  53.887  1.00  0.00     0.124 HD
ENDBRANCH  15  29
TORSDOF 1
ENDMDL
MODEL 6
REMARK VINA RESULT:      -8.9      1.955      2.995
REMARK  1 active torsions:
REMARK  status: ('A' for Active; 'I' for Inactive)
REMARK    1  A    between atoms: C14_15  and  N1_16 
ROOT
HETATM    1  C1  UNL     1      26.792   3.578  48.993  1.00  0.00     0.016 C 
HETATM    2  C2  UNL     1      26.459   3.711  50.458  1.00  0.00     0.032 C 
HETATM    3  C3  UNL     1      26.570   2.350  51.098  1.00  0.00    -0.021 C 
HETATM    4  C4  UNL     1      25.828   1.409  51.657  1.00  0.00    -0.003 C 
HETATM    5  C5  UNL     1      24.458   1.092  51.985  1.00  0.00     0.012 C 
HETATM    6  C6  UNL     1      23.179   1.429  51.950  1.00  0.00     0.005 C 
HETATM    7  C7  UNL     1      22.448   0.320  52.652  1.00  0.00     0.189 C 
HETATM    8  O1  UNL     1      22.860  -0.755  53.235  1.00  0.00    -0.287 OA
HETATM    9  C8  UNL     1      20.995   0.308  52.787  1.00  0.00     0.012 C 
HETATM   10  C9  UNL     1      20.223   1.337  52.259  1.00  0.00     0.000 C 
HETATM   11  C10 UNL     1      20.998   1.666  51.031  1.00  0.00    -0.000 C 
HETATM   12  C11 UNL     1      21.159   0.364  50.372  1.00  0.00     0.049 C 
HETATM   13  C12 UNL     1      19.585   0.487  50.215  1.00  0.00    -0.076 C 
HETATM   14  C13 UNL     1      18.236   0.525  50.178  1.00  0.00     0.026 C 
HETATM   15  C14 UNL     1      17.496  -0.131  51.211  1.00  0.00     0.006 C 
HETATM   16  C15 UNL     1      17.730  -0.685  52.375  1.00  0.00     0.023 C 
HETATM   17  C16 UNL     1      18.834  -0.893  53.305  1.00  0.00     0.003 C 
HETATM   18  C17 UNL     1      20.072  -0.525  53.457  1.00  0.00     0.015 C 
HETATM   19  C18 UNL     1      20.079   1.964  49.912  1.00  0.00     0.049 C 
HETATM   20  C19 UNL     1      22.171   2.426  51.457  1.00  0.00     0.039 C 
HETATM   21  C20 UNL     1      21.766   3.210  52.707  1.00  0.00     0.025 C 
HETATM   22  C21 UNL     1      22.763   3.371  50.527  1.00  0.00     0.212 C 
HETATM   23  C22 UNL     1      22.055   3.846  49.313  1.00  0.00     0.212 C 
HETATM   24  O2  UNL     1      22.806   5.049  49.439  1.00  0.00    -0.386 OA
HETATM   25  C23 UNL     1      22.598   4.852  50.829  1.00  0.00     0.212 C 
HETATM   26  N2  UNL     1      24.151   3.105  50.207  1.00  0.00     0.099 N 
HETATM   27  C24 UNL     1      25.019   4.119  50.680  1.00  0.00     0.279 C 
HETATM   28  H26 UNL     1      24.343   2.921  49.216  1.00  0.00     0.317 HD
ENDROOT
BRANCH  15  29
HETATM   29  N1  UNL     1      16.147  -0.120  50.699  1.00  0.00    -0.303 NA
HETATM   30  H12 UNL     1      15.172  -0.447  50.577  1.00  0.00     0.124 HD
HETATM   31  H13 UNL     1      15.347  -0.783  50.879  1.00  0.00     0.124 HD
ENDBRANCH  15  29
TORSDOF 1
ENDMDL
MODEL 7
REMARK VINA RESULT:      -8.6      5.007     10.142
REMARK  1 active torsions:
REMARK  status: ('A' for Active; 'I' for Inactive)
REMARK    1  A    between atoms: C14_15  and  N1_16 
ROOT
HETATM    1  C1  UNL     1      24.337   5.561  50.901  1.00  0.00     0.016 C 
HETATM    2  C2  UNL     1      24.663   5.211  49.471  1.00  0.00     0.032 C 
HETATM    3  C3  UNL     1      25.893   4.339  49.462  1.00  0.00    -0.021 C 
HETATM    4  C4  UNL     1      27.163   4.351  49.092  1.00  0.00    -0.003 C 
HETATM    5  C5  UNL     1      28.159   5.202  48.484  1.00  0.00     0.012 C 
HETATM    6  C6  UNL     1      28.484   6.380  47.977  1.00  0.00     0.005 C 
HETATM    7  C7  UNL     1      29.918   6.255  47.548  1.00  0.00     0.189 C 
HETATM    8  O1  UNL     1      30.748   5.268  47.579  1.00  0.00    -0.287 OA
HETATM    9  C8  UNL     1      30.657   7.372  46.968  1.00  0.00     0.012 C 
HETATM   10  C9  UNL     1      30.050   8.611  46.792  1.00  0.00     0.000 C 
HETATM   11  C10 UNL     1      29.161   8.659  47.984  1.00  0.00    -0.000 C 
HETATM   12  C11 UNL     1      30.069   8.362  49.099  1.00  0.00     0.049 C 
HETATM   13  C12 UNL     1      30.696   9.759  48.681  1.00  0.00    -0.076 C 
HETATM   14  C13 UNL     1      31.309  10.887  48.265  1.00  0.00     0.026 C 
HETATM   15  C14 UNL     1      32.424  10.782  47.377  1.00  0.00     0.006 C 
HETATM   16  C15 UNL     1      33.007   9.861  46.649  1.00  0.00     0.023 C 
HETATM   17  C16 UNL     1      32.827   8.463  46.274  1.00  0.00     0.003 C 
HETATM   18  C17 UNL     1      31.943   7.518  46.402  1.00  0.00     0.015 C 
HETATM   19  C18 UNL     1      29.138  10.025  48.548  1.00  0.00     0.049 C 
HETATM   20  C19 UNL     1      28.025   7.783  47.706  1.00  0.00     0.039 C 
HETATM   21  C20 UNL     1      27.790   7.822  46.194  1.00  0.00     0.025 C 
HETATM   22  C21 UNL     1      26.755   8.066  48.349  1.00  0.00     0.212 C 
HETATM   23  C22 UNL     1      26.460   9.366  48.997  1.00  0.00     0.212 C 
HETATM   24  O2  UNL     1      25.093   9.130  48.676  1.00  0.00    -0.386 OA
HETATM   25  C23 UNL     1      25.627   8.593  47.476  1.00  0.00     0.212 C 
HETATM   26  N2  UNL     1      26.250   6.986  49.174  1.00  0.00     0.099 N 
HETATM   27  C24 UNL     1      25.053   6.428  48.661  1.00  0.00     0.279 C 
HETATM   28  H26 UNL     1      26.125   7.217  50.166  1.00  0.00     0.317 HD
ENDROOT
BRANCH  15  29
HETATM   29  N1  UNL     1      32.970  12.118  47.383  1.00  0.00    -0.303 NA
HETATM   30  H12 UNL     1      33.523  12.922  47.038  1.00  0.00     0.124 HD
HETATM   31  H13 UNL     1      33.617  12.590  46.698  1.00  0.00     0.124 HD
ENDBRANCH  15  29
TORSDOF 1
ENDMDL
MODEL 8
REMARK VINA RESULT:      -8.6      3.497      5.726
REMARK  1 active torsions:
REMARK  status: ('A' for Active; 'I' for Inactive)
REMARK    1  A    between atoms: C14_15  and  N1_16 
ROOT
HETATM    1  C1  UNL     1      20.292   1.486  49.797  1.00  0.00     0.016 C 
HETATM    2  C2  UNL     1      20.875   2.440  50.807  1.00  0.00     0.032 C 
HETATM    3  C3  UNL     1      22.025   3.172  50.163  1.00  0.00    -0.021 C 
HETATM    4  C4  UNL     1      23.341   3.286  50.227  1.00  0.00    -0.003 C 
HETATM    5  C5  UNL     1      24.490   2.772  50.935  1.00  0.00     0.012 C 
HETATM    6  C6  UNL     1      24.984   1.947  51.845  1.00  0.00     0.005 C 
HETATM    7  C7  UNL     1      26.464   2.201  51.862  1.00  0.00     0.189 C 
HETATM    8  O1  UNL     1      27.207   3.033  51.214  1.00  0.00    -0.287 OA
HETATM    9  C8  UNL     1      27.372   1.449  52.721  1.00  0.00     0.012 C 
HETATM   10  C9  UNL     1      26.893   0.452  53.564  1.00  0.00     0.000 C 
HETATM   11  C10 UNL     1      25.787  -0.105  52.738  1.00  0.00    -0.000 C 
HETATM   12  C11 UNL     1      26.434  -0.386  51.450  1.00  0.00     0.049 C 
HETATM   13  C12 UNL     1      27.217  -1.458  52.319  1.00  0.00    -0.076 C 
HETATM   14  C13 UNL     1      27.971  -2.291  53.067  1.00  0.00     0.026 C 
HETATM   15  C14 UNL     1      29.233  -1.831  53.558  1.00  0.00     0.006 C 
HETATM   16  C15 UNL     1      29.890  -0.702  53.648  1.00  0.00     0.023 C 
HETATM   17  C16 UNL     1      29.701   0.718  53.371  1.00  0.00     0.003 C 
HETATM   18  C17 UNL     1      28.752   1.531  53.012  1.00  0.00     0.015 C 
HETATM   19  C18 UNL     1      25.737  -1.576  52.877  1.00  0.00     0.049 C 
HETATM   20  C19 UNL     1      24.677   0.843  52.814  1.00  0.00     0.039 C 
HETATM   21  C20 UNL     1      24.752   1.510  54.189  1.00  0.00     0.025 C 
HETATM   22  C21 UNL     1      23.324   0.343  52.649  1.00  0.00     0.212 C 
HETATM   23  C22 UNL     1      22.988  -1.098  52.742  1.00  0.00     0.212 C 
HETATM   24  O2  UNL     1      21.701  -0.690  53.194  1.00  0.00    -0.386 OA
HETATM   25  C23 UNL     1      22.430   0.317  53.877  1.00  0.00     0.212 C 
HETATM   26  N2  UNL     1      22.598   0.942  51.547  1.00  0.00     0.099 N 
HETATM   27  C24 UNL     1      21.495   1.717  51.983  1.00  0.00     0.279 C 
HETATM   28  H26 UNL     1      22.291   0.286  50.819  1.00  0.00     0.317 HD
ENDROOT
BRANCH  15  29
HETATM   29  N1  UNL     1      29.849  -3.041  54.049  1.00  0.00    -0.303 NA
HETATM   30  H12 UNL     1      30.196  -4.016  54.011  1.00  0.00     0.124 HD
HETATM   31  H13 UNL     1      30.013  -3.963  53.566  1.00  0.00     0.124 HD
ENDBRANCH  15  29
TORSDOF 1
ENDMDL
MODEL 9
REMARK VINA RESULT:      -8.5      3.144      5.703
REMARK  1 active torsions:
REMARK  status: ('A' for Active; 'I' for Inactive)
REMARK    1  A    between atoms: C14_15  and  N1_16 
ROOT
HETATM    1  C1  UNL     1      16.292   4.274  49.226  1.00  0.00     0.016 C 
HETATM    2  C2  UNL     1      16.751   2.891  48.840  1.00  0.00     0.032 C 
HETATM    3  C3  UNL     1      16.565   1.979  50.026  1.00  0.00    -0.021 C 
HETATM    4  C4  UNL     1      17.259   1.283  50.911  1.00  0.00    -0.003 C 
HETATM    5  C5  UNL     1      18.615   0.978  51.302  1.00  0.00     0.012 C 
HETATM    6  C6  UNL     1      19.913   1.157  51.119  1.00  0.00     0.005 C 
HETATM    7  C7  UNL     1      20.591   0.285  52.138  1.00  0.00     0.189 C 
HETATM    8  O1  UNL     1      20.128  -0.529  53.024  1.00  0.00    -0.287 OA
HETATM    9  C8  UNL     1      22.042   0.237  52.278  1.00  0.00     0.012 C 
HETATM   10  C9  UNL     1      22.862   1.011  51.464  1.00  0.00     0.000 C 
HETATM   11  C10 UNL     1      22.026   2.232  51.305  1.00  0.00    -0.000 C 
HETATM   12  C11 UNL     1      21.692   2.598  52.687  1.00  0.00     0.049 C 
HETATM   13  C12 UNL     1      23.254   2.869  52.767  1.00  0.00    -0.076 C 
HETATM   14  C13 UNL     1      24.593   2.993  52.883  1.00  0.00     0.026 C 
HETATM   15  C14 UNL     1      25.348   1.892  53.396  1.00  0.00     0.006 C 
HETATM   16  C15 UNL     1      25.158   0.628  53.679  1.00  0.00     0.023 C 
HETATM   17  C16 UNL     1      24.116  -0.389  53.577  1.00  0.00     0.003 C 
HETATM   18  C17 UNL     1      22.934  -0.535  53.056  1.00  0.00     0.015 C 
HETATM   19  C18 UNL     1      22.877   3.440  51.336  1.00  0.00     0.049 C 
HETATM   20  C19 UNL     1      20.967   1.903  50.353  1.00  0.00     0.039 C 
HETATM   21  C20 UNL     1      21.541   0.868  49.384  1.00  0.00     0.025 C 
HETATM   22  C21 UNL     1      20.394   2.972  49.555  1.00  0.00     0.212 C 
HETATM   23  C22 UNL     1      21.044   4.297  49.409  1.00  0.00     0.212 C 
HETATM   24  O2  UNL     1      20.421   4.378  48.132  1.00  0.00    -0.386 OA
HETATM   25  C23 UNL     1      20.719   2.992  48.070  1.00  0.00     0.212 C 
HETATM   26  N2  UNL     1      18.966   3.147  49.729  1.00  0.00     0.099 N 
HETATM   27  C24 UNL     1      18.236   2.843  48.553  1.00  0.00     0.279 C 
HETATM   28  H26 UNL     1      18.679   4.066  50.085  1.00  0.00     0.317 HD
ENDROOT
BRANCH  15  29
HETATM   29  N1  UNL     1      26.648   2.475  53.632  1.00  0.00    -0.303 NA
HETATM   30  H12 UNL     1      27.329   3.179  53.968  1.00  0.00     0.124 HD
HETATM   31  H13 UNL     1      26.909   3.387  54.091  1.00  0.00     0.124 HD
ENDBRANCH  15  29
TORSDOF 1
ENDMDL
