MODEL 1
REMARK VINA RESULT:      -8.4      0.000      0.000
REMARK  4 active torsions:
REMARK  status: ('A' for Active; 'I' for Inactive)
REMARK    1  A    between atoms: C4_6  and  C5_7 
REMARK       I    between atoms: C5_7  and  N1_9 
REMARK    2  A    between atoms: N1_9  and  C6_10 
REMARK    3  A    between atoms: C10_16  and  N4_17 
REMARK    4  A    between atoms: N4_17  and  C11_18 
ROOT
HETATM    1  C6  UNL     1      28.497   6.006  48.071  1.00  0.00     0.134 A 
HETATM    2  C7  UNL     1      27.470   7.056  47.963  1.00  0.00     0.034 A 
HETATM    3  C8  UNL     1      26.332   6.587  48.441  1.00  0.00     0.070 A 
HETATM    4  N2  UNL     1      25.155   7.223  48.524  1.00  0.00    -0.241 NA
HETATM    5  C9  UNL     1      24.098   6.594  49.040  1.00  0.00     0.235 A 
HETATM    6  N3  UNL     1      24.255   5.341  49.457  1.00  0.00    -0.224 NA
HETATM    7  C10 UNL     1      25.365   4.623  49.422  1.00  0.00     0.141 A 
HETATM    8  C17 UNL     1      26.444   5.297  48.884  1.00  0.00     0.037 A 
HETATM    9  C18 UNL     1      27.713   4.899  48.688  1.00  0.00     0.020 A 
ENDROOT
BRANCH   1  10
HETATM   10  N1  UNL     1      29.603   6.410  48.917  1.00  0.00    -0.348 N 
HETATM   11  C5  UNL     1      30.898   5.921  48.522  1.00  0.00     0.240 C 
HETATM   12  O2  UNL     1      31.022   5.184  47.492  1.00  0.00    -0.272 OA
HETATM   13  H4  UNL     1      29.400   7.009  49.731  1.00  0.00     0.163 HD
BRANCH  11  14
HETATM   14  C4  UNL     1      32.059   6.329  49.387  1.00  0.00     0.217 A 
HETATM   15  C1  UNL     1      32.365   7.753  49.189  1.00  0.00     0.172 A 
HETATM   16  O1  UNL     1      31.541   8.525  49.764  1.00  0.00    -0.291 OA
HETATM   17  C2  UNL     1      33.508   8.105  48.404  1.00  0.00     0.058 A 
HETATM   18  C3  UNL     1      34.232   7.087  48.008  1.00  0.00     0.050 A 
HETATM   19  S1  UNL     1      33.518   5.550  48.605  1.00  0.00    -0.119 SA
ENDBRANCH  11  14
ENDBRANCH   1  10
BRANCH   7  20
HETATM   20  N4  UNL     1      25.547   3.300  49.858  1.00  0.00    -0.340 N 
HETATM   21  H8  UNL     1      25.554   2.520  49.148  1.00  0.00     0.167 HD
BRANCH  20  22
HETATM   22  C11 UNL     1      25.733   2.834  51.182  1.00  0.00     0.035 A 
HETATM   23  C12 UNL     1      24.724   2.876  52.151  1.00  0.00     0.029 A 
HETATM   24  C13 UNL     1      24.875   2.434  53.437  1.00  0.00     0.004 A 
HETATM   25  C14 UNL     1      26.079   1.906  53.849  1.00  0.00     0.019 A 
HETATM   26  C15 UNL     1      27.108   1.838  52.944  1.00  0.00     0.013 A 
HETATM   27 BR1  UNL     1      28.753   1.105  53.545  1.00  0.00    -0.051 Br
HETATM   28  C16 UNL     1      26.906   2.295  51.670  1.00  0.00     0.048 A 
ENDBRANCH  20  22
ENDBRANCH   7  20
TORSDOF 4
ENDMDL
MODEL 2
REMARK VINA RESULT:      -8.2      5.893      9.960
REMARK  4 active torsions:
REMARK  status: ('A' for Active; 'I' for Inactive)
REMARK    1  A    between atoms: C4_6  and  C5_7 
REMARK       I    between atoms: C5_7  and  N1_9 
REMARK    2  A    between atoms: N1_9  and  C6_10 
REMARK    3  A    between atoms: C10_16  and  N4_17 
REMARK    4  A    between atoms: N4_17  and  C11_18 
ROOT
HETATM    1  C6  UNL     1      24.443  -0.047  53.249  1.00  0.00     0.134 A 
HETATM    2  C7  UNL     1      25.498   0.131  54.261  1.00  0.00     0.034 A 
HETATM    3  C8  UNL     1      26.442   0.906  53.758  1.00  0.00     0.070 A 
HETATM    4  N2  UNL     1      27.573   1.310  54.353  1.00  0.00    -0.241 NA
HETATM    5  C9  UNL     1      28.422   2.099  53.693  1.00  0.00     0.235 A 
HETATM    6  N3  UNL     1      28.109   2.458  52.451  1.00  0.00    -0.224 NA
HETATM    7  C10 UNL     1      27.026   2.118  51.772  1.00  0.00     0.141 A 
HETATM    8  C17 UNL     1      26.164   1.302  52.478  1.00  0.00     0.037 A 
HETATM    9  C18 UNL     1      24.984   0.764  52.123  1.00  0.00     0.020 A 
ENDROOT
BRANCH   1  10
HETATM   10  N1  UNL     1      23.162   0.460  53.702  1.00  0.00    -0.348 N 
HETATM   11  C5  UNL     1      22.019  -0.347  53.361  1.00  0.00     0.240 C 
HETATM   12  O2  UNL     1      22.166  -1.428  52.705  1.00  0.00    -0.272 OA
HETATM   13  H4  UNL     1      23.147   1.346  54.227  1.00  0.00     0.163 HD
BRANCH  11  14
HETATM   14  C4  UNL     1      20.681   0.162  53.822  1.00  0.00     0.217 A 
HETATM   15  C1  UNL     1      19.606  -0.705  53.319  1.00  0.00     0.172 A 
HETATM   16  O1  UNL     1      19.514  -1.802  53.949  1.00  0.00    -0.291 OA
HETATM   17  C2  UNL     1      18.812  -0.245  52.222  1.00  0.00     0.058 A 
HETATM   18  C3  UNL     1      19.080   0.976  51.829  1.00  0.00     0.050 A 
HETATM   19  S1  UNL     1      20.394   1.675  52.835  1.00  0.00    -0.119 SA
ENDBRANCH  11  14
ENDBRANCH   1  10
BRANCH   7  20
HETATM   20  N4  UNL     1      26.682   2.489  50.462  1.00  0.00    -0.340 N 
HETATM   21  H8  UNL     1      26.620   1.744  49.716  1.00  0.00     0.167 HD
BRANCH  20  22
HETATM   22  C11 UNL     1      26.391   3.783  49.967  1.00  0.00     0.035 A 
HETATM   23  C12 UNL     1      27.204   4.443  49.041  1.00  0.00     0.029 A 
HETATM   24  C13 UNL     1      26.948   5.693  48.546  1.00  0.00     0.004 A 
HETATM   25  C14 UNL     1      25.829   6.383  48.958  1.00  0.00     0.019 A 
HETATM   26  C15 UNL     1      24.992   5.788  49.867  1.00  0.00     0.013 A 
HETATM   27 BR1  UNL     1      23.459   6.767  50.413  1.00  0.00    -0.051 Br
HETATM   28  C16 UNL     1      25.294   4.537  50.331  1.00  0.00     0.048 A 
ENDBRANCH  20  22
ENDBRANCH   7  20
TORSDOF 4
ENDMDL
MODEL 3
REMARK VINA RESULT:      -7.9      5.038      7.856
REMARK  4 active torsions:
REMARK  status: ('A' for Active; 'I' for Inactive)
REMARK    1  A    between atoms: C4_6  and  C5_7 
REMARK       I    between atoms: C5_7  and  N1_9 
REMARK    2  A    between atoms: N1_9  and  C6_10 
REMARK    3  A    between atoms: C10_16  and  N4_17 
REMARK    4  A    between atoms: N4_17  and  C11_18 
ROOT
HETATM    1  C6  UNL     1      23.518   1.881  51.986  1.00  0.00     0.134 A 
HETATM    2  C7  UNL     1      22.652   1.288  50.954  1.00  0.00     0.034 A 
HETATM    3  C8  UNL     1      22.603   2.108  49.919  1.00  0.00     0.070 A 
HETATM    4  N2  UNL     1      21.926   1.942  48.774  1.00  0.00    -0.241 NA
HETATM    5  C9  UNL     1      21.991   2.878  47.826  1.00  0.00     0.235 A 
HETATM    6  N3  UNL     1      22.735   3.957  48.058  1.00  0.00    -0.224 NA
HETATM    7  C10 UNL     1      23.439   4.219  49.146  1.00  0.00     0.141 A 
HETATM    8  C17 UNL     1      23.355   3.235  50.111  1.00  0.00     0.037 A 
HETATM    9  C18 UNL     1      23.924   3.154  51.327  1.00  0.00     0.020 A 
ENDROOT
BRANCH   1  10
HETATM   10  N1  UNL     1      24.666   1.045  52.280  1.00  0.00    -0.348 N 
HETATM   11  C5  UNL     1      24.460   0.039  53.290  1.00  0.00     0.240 C 
HETATM   12  O2  UNL     1      23.329  -0.077  53.862  1.00  0.00    -0.272 OA
HETATM   13  H4  UNL     1      25.540   1.217  51.762  1.00  0.00     0.163 HD
BRANCH  11  14
HETATM   14  C4  UNL     1      25.639  -0.839  53.609  1.00  0.00     0.217 A 
HETATM   15  C1  UNL     1      26.347  -0.331  54.792  1.00  0.00     0.172 A 
HETATM   16  O1  UNL     1      25.744  -0.580  55.879  1.00  0.00    -0.291 OA
HETATM   17  C2  UNL     1      27.584   0.362  54.604  1.00  0.00     0.058 A 
HETATM   18  C3  UNL     1      28.010   0.391  53.366  1.00  0.00     0.050 A 
HETATM   19  S1  UNL     1      26.858  -0.476  52.294  1.00  0.00    -0.119 SA
ENDBRANCH  11  14
ENDBRANCH   1  10
BRANCH   7  20
HETATM   20  N4  UNL     1      24.229   5.352  49.405  1.00  0.00    -0.340 N 
HETATM   21  H8  UNL     1      23.829   6.135  49.989  1.00  0.00     0.167 HD
BRANCH  20  22
HETATM   22  C11 UNL     1      25.552   5.612  48.976  1.00  0.00     0.035 A 
HETATM   23  C12 UNL     1      26.579   4.666  49.065  1.00  0.00     0.029 A 
HETATM   24  C13 UNL     1      27.867   4.890  48.658  1.00  0.00     0.004 A 
HETATM   25  C14 UNL     1      28.220   6.108  48.121  1.00  0.00     0.019 A 
HETATM   26  C15 UNL     1      27.256   7.077  48.008  1.00  0.00     0.013 A 
HETATM   27 BR1  UNL     1      27.777   8.745  47.263  1.00  0.00    -0.051 Br
HETATM   28  C16 UNL     1      25.984   6.803  48.430  1.00  0.00     0.048 A 
ENDBRANCH  20  22
ENDBRANCH   7  20
TORSDOF 4
ENDMDL
MODEL 4
REMARK VINA RESULT:      -7.9      5.558      6.796
REMARK  4 active torsions:
REMARK  status: ('A' for Active; 'I' for Inactive)
REMARK    1  A    between atoms: C4_6  and  C5_7 
REMARK       I    between atoms: C5_7  and  N1_9 
REMARK    2  A    between atoms: N1_9  and  C6_10 
REMARK    3  A    between atoms: C10_16  and  N4_17 
REMARK    4  A    between atoms: N4_17  and  C11_18 
ROOT
HETATM    1  C6  UNL     1      24.812   3.280  51.083  1.00  0.00     0.134 A 
HETATM    2  C7  UNL     1      24.264   4.646  51.038  1.00  0.00     0.034 A 
HETATM    3  C8  UNL     1      22.963   4.573  50.819  1.00  0.00     0.070 A 
HETATM    4  N2  UNL     1      22.093   5.587  50.708  1.00  0.00    -0.241 NA
HETATM    5  C9  UNL     1      20.804   5.331  50.485  1.00  0.00     0.235 A 
HETATM    6  N3  UNL     1      20.425   4.060  50.378  1.00  0.00    -0.224 NA
HETATM    7  C10 UNL     1      21.196   2.989  50.470  1.00  0.00     0.141 A 
HETATM    8  C17 UNL     1      22.526   3.282  50.702  1.00  0.00     0.037 A 
HETATM    9  C18 UNL     1      23.585   2.468  50.851  1.00  0.00     0.020 A 
ENDROOT
BRANCH   1  10
HETATM   10  N1  UNL     1      25.416   2.977  52.366  1.00  0.00    -0.348 N 
HETATM   11  C5  UNL     1      26.444   1.969  52.347  1.00  0.00     0.240 C 
HETATM   12  O2  UNL     1      26.772   1.404  51.254  1.00  0.00    -0.272 OA
HETATM   13  H4  UNL     1      25.081   3.489  53.195  1.00  0.00     0.163 HD
BRANCH  11  14
HETATM   14  C4  UNL     1      27.083   1.640  53.668  1.00  0.00     0.217 A 
HETATM   15  C1  UNL     1      28.546   1.636  53.539  1.00  0.00     0.172 A 
HETATM   16  O1  UNL     1      29.045   2.800  53.478  1.00  0.00    -0.291 OA
HETATM   17  C2  UNL     1      29.226   0.378  53.496  1.00  0.00     0.058 A 
HETATM   18  C3  UNL     1      28.455  -0.665  53.672  1.00  0.00     0.050 A 
HETATM   19  S1  UNL     1      26.753  -0.143  53.913  1.00  0.00    -0.119 SA
ENDBRANCH  11  14
ENDBRANCH   1  10
BRANCH   7  20
HETATM   20  N4  UNL     1      20.811   1.642  50.361  1.00  0.00    -0.340 N 
HETATM   21  H8  UNL     1      20.862   1.168  49.419  1.00  0.00     0.167 HD
BRANCH  20  22
HETATM   22  C11 UNL     1      20.340   0.782  51.381  1.00  0.00     0.035 A 
HETATM   23  C12 UNL     1      19.008   0.364  51.468  1.00  0.00     0.029 A 
HETATM   24  C13 UNL     1      18.525  -0.467  52.443  1.00  0.00     0.004 A 
HETATM   25  C14 UNL     1      19.367  -0.946  53.422  1.00  0.00     0.019 A 
HETATM   26  C15 UNL     1      20.687  -0.571  53.391  1.00  0.00     0.013 A 
HETATM   27 BR1  UNL     1      21.820  -1.250  54.755  1.00  0.00    -0.051 Br
HETATM   28  C16 UNL     1      21.119   0.262  52.395  1.00  0.00     0.048 A 
ENDBRANCH  20  22
ENDBRANCH   7  20
TORSDOF 4
ENDMDL
MODEL 5
REMARK VINA RESULT:      -7.8      2.251      2.529
REMARK  4 active torsions:
REMARK  status: ('A' for Active; 'I' for Inactive)
REMARK    1  A    between atoms: C4_6  and  C5_7 
REMARK       I    between atoms: C5_7  and  N1_9 
REMARK    2  A    between atoms: N1_9  and  C6_10 
REMARK    3  A    between atoms: C10_16  and  N4_17 
REMARK    4  A    between atoms: N4_17  and  C11_18 
ROOT
HETATM    1  C6  UNL     1      27.189   5.665  48.609  1.00  0.00     0.134 A 
HETATM    2  C7  UNL     1      26.460   6.743  49.298  1.00  0.00     0.034 A 
HETATM    3  C8  UNL     1      25.511   6.204  50.043  1.00  0.00     0.070 A 
HETATM    4  N2  UNL     1      24.626   6.837  50.827  1.00  0.00    -0.241 NA
HETATM    5  C9  UNL     1      23.730   6.130  51.517  1.00  0.00     0.235 A 
HETATM    6  N3  UNL     1      23.749   4.805  51.398  1.00  0.00    -0.224 NA
HETATM    7  C10 UNL     1      24.573   4.084  50.658  1.00  0.00     0.141 A 
HETATM    8  C17 UNL     1      25.491   4.839  49.954  1.00  0.00     0.037 A 
HETATM    9  C18 UNL     1      26.470   4.462  49.113  1.00  0.00     0.020 A 
ENDROOT
BRANCH   1  10
HETATM   10  N1  UNL     1      28.592   5.637  48.973  1.00  0.00    -0.348 N 
HETATM   11  C5  UNL     1      29.478   6.351  48.090  1.00  0.00     0.240 C 
HETATM   12  O2  UNL     1      29.019   6.955  47.067  1.00  0.00    -0.272 OA
HETATM   13  H4  UNL     1      28.865   5.120  49.821  1.00  0.00     0.163 HD
BRANCH  11  14
HETATM   14  C4  UNL     1      30.938   6.334  48.450  1.00  0.00     0.217 A 
HETATM   15  C1  UNL     1      31.641   7.437  47.781  1.00  0.00     0.172 A 
HETATM   16  O1  UNL     1      31.422   8.565  48.317  1.00  0.00    -0.291 OA
HETATM   17  C2  UNL     1      32.459   7.140  46.646  1.00  0.00     0.058 A 
HETATM   18  C3  UNL     1      32.568   5.863  46.372  1.00  0.00     0.050 A 
HETATM   19  S1  UNL     1      31.622   4.894  47.552  1.00  0.00    -0.119 SA
ENDBRANCH  11  14
ENDBRANCH   1  10
BRANCH   7  20
HETATM   20  N4  UNL     1      24.606   2.686  50.523  1.00  0.00    -0.340 N 
HETATM   21  H8  UNL     1      24.624   2.262  49.556  1.00  0.00     0.167 HD
BRANCH  20  22
HETATM   22  C11 UNL     1      24.619   1.708  51.547  1.00  0.00     0.035 A 
HETATM   23  C12 UNL     1      25.794   1.104  52.005  1.00  0.00     0.029 A 
HETATM   24  C13 UNL     1      25.836   0.157  52.993  1.00  0.00     0.004 A 
HETATM   25  C14 UNL     1      24.673  -0.258  53.602  1.00  0.00     0.019 A 
HETATM   26  C15 UNL     1      23.487   0.297  53.195  1.00  0.00     0.013 A 
HETATM   27 BR1  UNL     1      21.902  -0.298  54.056  1.00  0.00    -0.051 Br
HETATM   28  C16 UNL     1      23.499   1.240  52.203  1.00  0.00     0.048 A 
ENDBRANCH  20  22
ENDBRANCH   7  20
TORSDOF 4
ENDMDL
MODEL 6
REMARK VINA RESULT:      -7.8      6.614      8.641
REMARK  4 active torsions:
REMARK  status: ('A' for Active; 'I' for Inactive)
REMARK    1  A    between atoms: C4_6  and  C5_7 
REMARK       I    between atoms: C5_7  and  N1_9 
REMARK    2  A    between atoms: N1_9  and  C6_10 
REMARK    3  A    between atoms: C10_16  and  N4_17 
REMARK    4  A    between atoms: N4_17  and  C11_18 
ROOT
HETATM    1  C6  UNL     1      23.571   0.545  53.936  1.00  0.00     0.134 A 
HETATM    2  C7  UNL     1      22.775  -0.599  54.408  1.00  0.00     0.034 A 
HETATM    3  C8  UNL     1      21.581  -0.548  53.844  1.00  0.00     0.070 A 
HETATM    4  N2  UNL     1      20.560  -1.401  54.008  1.00  0.00    -0.241 NA
HETATM    5  C9  UNL     1      19.416  -1.196  53.354  1.00  0.00     0.235 A 
HETATM    6  N3  UNL     1      19.331  -0.136  52.554  1.00  0.00    -0.224 NA
HETATM    7  C10 UNL     1      20.271   0.764  52.322  1.00  0.00     0.141 A 
HETATM    8  C17 UNL     1      21.446   0.529  53.010  1.00  0.00     0.037 A 
HETATM    9  C18 UNL     1      22.601   1.216  53.025  1.00  0.00     0.020 A 
ENDROOT
BRANCH   1  10
HETATM   10  N1  UNL     1      24.763   0.125  53.227  1.00  0.00    -0.348 N 
HETATM   11  C5  UNL     1      25.942   0.916  53.468  1.00  0.00     0.240 C 
HETATM   12  O2  UNL     1      25.898   1.912  54.259  1.00  0.00    -0.272 OA
HETATM   13  H4  UNL     1      24.697  -0.696  52.607  1.00  0.00     0.163 HD
BRANCH  11  14
HETATM   14  C4  UNL     1      27.190   0.496  52.741  1.00  0.00     0.217 A 
HETATM   15  C1  UNL     1      27.799  -0.666  53.404  1.00  0.00     0.172 A 
HETATM   16  O1  UNL     1      27.183  -1.750  53.175  1.00  0.00    -0.291 OA
HETATM   17  C2  UNL     1      28.967  -0.463  54.204  1.00  0.00     0.058 A 
HETATM   18  C3  UNL     1      29.434   0.761  54.186  1.00  0.00     0.050 A 
HETATM   19  S1  UNL     1      28.415   1.797  53.129  1.00  0.00    -0.119 SA
ENDBRANCH  11  14
ENDBRANCH   1  10
BRANCH   7  20
HETATM   20  N4  UNL     1      20.197   1.886  51.480  1.00  0.00    -0.340 N 
HETATM   21  H8  UNL     1      19.525   2.665  51.719  1.00  0.00     0.167 HD
BRANCH  20  22
HETATM   22  C11 UNL     1      20.929   2.141  50.296  1.00  0.00     0.035 A 
HETATM   23  C12 UNL     1      21.137   1.173  49.308  1.00  0.00     0.029 A 
HETATM   24  C13 UNL     1      21.840   1.391  48.153  1.00  0.00     0.004 A 
HETATM   25  C14 UNL     1      22.396   2.626  47.906  1.00  0.00     0.019 A 
HETATM   26  C15 UNL     1      22.227   3.618  48.839  1.00  0.00     0.013 A 
HETATM   27 BR1  UNL     1      23.006   5.310  48.466  1.00  0.00    -0.051 Br
HETATM   28  C16 UNL     1      21.516   3.349  49.976  1.00  0.00     0.048 A 
ENDBRANCH  20  22
ENDBRANCH   7  20
TORSDOF 4
ENDMDL
MODEL 7
REMARK VINA RESULT:      -7.7      2.492      3.647
REMARK  4 active torsions:
REMARK  status: ('A' for Active; 'I' for Inactive)
REMARK    1  A    between atoms: C4_6  and  C5_7 
REMARK       I    between atoms: C5_7  and  N1_9 
REMARK    2  A    between atoms: N1_9  and  C6_10 
REMARK    3  A    between atoms: C10_16  and  N4_17 
REMARK    4  A    between atoms: N4_17  and  C11_18 
ROOT
HETATM    1  C6  UNL     1      25.766   4.488  49.158  1.00  0.00     0.134 A 
HETATM    2  C7  UNL     1      24.298   4.588  49.122  1.00  0.00     0.034 A 
HETATM    3  C8  UNL     1      23.810   4.070  50.235  1.00  0.00     0.070 A 
HETATM    4  N2  UNL     1      22.523   3.966  50.595  1.00  0.00    -0.241 NA
HETATM    5  C9  UNL     1      22.206   3.412  51.766  1.00  0.00     0.235 A 
HETATM    6  N3  UNL     1      23.194   2.976  52.542  1.00  0.00    -0.224 NA
HETATM    7  C10 UNL     1      24.490   3.029  52.286  1.00  0.00     0.141 A 
HETATM    8  C17 UNL     1      24.792   3.607  51.069  1.00  0.00     0.037 A 
HETATM    9  C18 UNL     1      25.979   3.830  50.478  1.00  0.00     0.020 A 
ENDROOT
BRANCH   1  10
HETATM   10  N1  UNL     1      26.403   5.789  49.104  1.00  0.00    -0.348 N 
HETATM   11  C5  UNL     1      27.767   5.795  48.642  1.00  0.00     0.240 C 
HETATM   12  O2  UNL     1      28.340   4.707  48.312  1.00  0.00    -0.272 OA
HETATM   13  H4  UNL     1      25.855   6.612  49.393  1.00  0.00     0.163 HD
BRANCH  11  14
HETATM   14  C4  UNL     1      28.445   7.136  48.578  1.00  0.00     0.217 A 
HETATM   15  C1  UNL     1      28.086   7.830  47.334  1.00  0.00     0.172 A 
HETATM   16  O1  UNL     1      26.915   8.315  47.354  1.00  0.00    -0.291 OA
HETATM   17  C2  UNL     1      29.048   7.883  46.277  1.00  0.00     0.058 A 
HETATM   18  C3  UNL     1      30.215   7.368  46.576  1.00  0.00     0.050 A 
HETATM   19  S1  UNL     1      30.206   6.752  48.263  1.00  0.00    -0.119 SA
ENDBRANCH  11  14
ENDBRANCH   1  10
BRANCH   7  20
HETATM   20  N4  UNL     1      25.545   2.575  53.096  1.00  0.00    -0.340 N 
HETATM   21  H8  UNL     1      25.939   3.216  53.835  1.00  0.00     0.167 HD
BRANCH  20  22
HETATM   22  C11 UNL     1      26.191   1.316  53.064  1.00  0.00     0.035 A 
HETATM   23  C12 UNL     1      25.522   0.125  52.762  1.00  0.00     0.029 A 
HETATM   24  C13 UNL     1      26.121  -1.106  52.725  1.00  0.00     0.004 A 
HETATM   25  C14 UNL     1      27.466  -1.227  52.995  1.00  0.00     0.019 A 
HETATM   26  C15 UNL     1      28.178  -0.094  53.299  1.00  0.00     0.013 A 
HETATM   27 BR1  UNL     1      30.030  -0.299  53.665  1.00  0.00    -0.051 Br
HETATM   28  C16 UNL     1      27.532   1.111  53.323  1.00  0.00     0.048 A 
ENDBRANCH  20  22
ENDBRANCH   7  20
TORSDOF 4
ENDMDL
MODEL 8
REMARK VINA RESULT:      -7.7      4.808      6.147
REMARK  4 active torsions:
REMARK  status: ('A' for Active; 'I' for Inactive)
REMARK    1  A    between atoms: C4_6  and  C5_7 
REMARK       I    between atoms: C5_7  and  N1_9 
REMARK    2  A    between atoms: N1_9  and  C6_10 
REMARK    3  A    between atoms: C10_16  and  N4_17 
REMARK    4  A    between atoms: N4_17  and  C11_18 
ROOT
HETATM    1  C6  UNL     1      26.310   3.261  50.096  1.00  0.00     0.134 A 
HETATM    2  C7  UNL     1      25.964   4.631  49.683  1.00  0.00     0.034 A 
HETATM    3  C8  UNL     1      24.724   4.638  49.229  1.00  0.00     0.070 A 
HETATM    4  N2  UNL     1      24.030   5.683  48.756  1.00  0.00    -0.241 NA
HETATM    5  C9  UNL     1      22.776   5.509  48.336  1.00  0.00     0.235 A 
HETATM    6  N3  UNL     1      22.256   4.286  48.402  1.00  0.00    -0.224 NA
HETATM    7  C10 UNL     1      22.849   3.191  48.848  1.00  0.00     0.141 A 
HETATM    8  C17 UNL     1      24.145   3.399  49.277  1.00  0.00     0.037 A 
HETATM    9  C18 UNL     1      25.044   2.539  49.786  1.00  0.00     0.020 A 
ENDROOT
BRANCH   1  10
HETATM   10  N1  UNL     1      26.635   3.183  51.507  1.00  0.00    -0.348 N 
HETATM   11  C5  UNL     1      26.871   1.857  52.017  1.00  0.00     0.240 C 
HETATM   12  O2  UNL     1      26.790   0.846  51.247  1.00  0.00    -0.272 OA
HETATM   13  H4  UNL     1      26.676   4.059  52.047  1.00  0.00     0.163 HD
BRANCH  11  14
HETATM   14  C4  UNL     1      27.210   1.754  53.479  1.00  0.00     0.217 A 
HETATM   15  C1  UNL     1      28.666   1.806  53.669  1.00  0.00     0.172 A 
HETATM   16  O1  UNL     1      29.144   2.973  53.541  1.00  0.00    -0.291 OA
HETATM   17  C2  UNL     1      29.362   0.592  53.963  1.00  0.00     0.058 A 
HETATM   18  C3  UNL     1      28.590  -0.454  54.125  1.00  0.00     0.050 A 
HETATM   19  S1  UNL     1      26.867   0.011  53.915  1.00  0.00    -0.119 SA
ENDBRANCH  11  14
ENDBRANCH   1  10
BRANCH   7  20
HETATM   20  N4  UNL     1      22.313   1.895  48.925  1.00  0.00    -0.340 N 
HETATM   21  H8  UNL     1      22.523   1.205  48.154  1.00  0.00     0.167 HD
BRANCH  20  22
HETATM   22  C11 UNL     1      21.489   1.348  49.937  1.00  0.00     0.035 A 
HETATM   23  C12 UNL     1      20.099   1.246  49.813  1.00  0.00     0.029 A 
HETATM   24  C13 UNL     1      19.278   0.722  50.776  1.00  0.00     0.004 A 
HETATM   25  C14 UNL     1      19.810   0.254  51.957  1.00  0.00     0.019 A 
HETATM   26  C15 UNL     1      21.168   0.327  52.138  1.00  0.00     0.013 A 
HETATM   27 BR1  UNL     1      21.867  -0.328  53.778  1.00  0.00    -0.051 Br
HETATM   28  C16 UNL     1      21.944   0.860  51.146  1.00  0.00     0.048 A 
ENDBRANCH  20  22
ENDBRANCH   7  20
TORSDOF 4
ENDMDL
MODEL 9
REMARK VINA RESULT:      -7.6      5.950      7.829
REMARK  4 active torsions:
REMARK  status: ('A' for Active; 'I' for Inactive)
REMARK    1  A    between atoms: C4_6  and  C5_7 
REMARK       I    between atoms: C5_7  and  N1_9 
REMARK    2  A    between atoms: N1_9  and  C6_10 
REMARK    3  A    between atoms: C10_16  and  N4_17 
REMARK    4  A    between atoms: N4_17  and  C11_18 
ROOT
HETATM    1  C6  UNL     1      21.773   1.965  50.792  1.00  0.00     0.134 A 
HETATM    2  C7  UNL     1      20.766   1.805  51.855  1.00  0.00     0.034 A 
HETATM    3  C8  UNL     1      21.260   1.016  52.792  1.00  0.00     0.070 A 
HETATM    4  N2  UNL     1      20.666   0.619  53.926  1.00  0.00    -0.241 NA
HETATM    5  C9  UNL     1      21.317  -0.186  54.767  1.00  0.00     0.235 A 
HETATM    6  N3  UNL     1      22.549  -0.569  54.442  1.00  0.00    -0.224 NA
HETATM    7  C10 UNL     1      23.225  -0.239  53.356  1.00  0.00     0.141 A 
HETATM    8  C17 UNL     1      22.530   0.594  52.502  1.00  0.00     0.037 A 
HETATM    9  C18 UNL     1      22.887   1.130  51.321  1.00  0.00     0.020 A 
ENDROOT
BRANCH   1  10
HETATM   10  N1  UNL     1      22.177   3.348  50.629  1.00  0.00    -0.348 N 
HETATM   11  C5  UNL     1      22.588   3.723  49.300  1.00  0.00     0.240 C 
HETATM   12  O2  UNL     1      22.582   2.866  48.359  1.00  0.00    -0.272 OA
HETATM   13  H4  UNL     1      22.147   3.965  51.454  1.00  0.00     0.163 HD
BRANCH  11  14
HETATM   14  C4  UNL     1      23.011   5.154  49.110  1.00  0.00     0.217 A 
HETATM   15  C1  UNL     1      23.238   5.795  50.413  1.00  0.00     0.172 A 
HETATM   16  O1  UNL     1      24.328   5.444  50.958  1.00  0.00    -0.291 OA
HETATM   17  C2  UNL     1      22.253   6.705  50.910  1.00  0.00     0.058 A 
HETATM   18  C3  UNL     1      21.266   6.944  50.083  1.00  0.00     0.050 A 
HETATM   19  S1  UNL     1      21.495   6.018  48.561  1.00  0.00    -0.119 SA
ENDBRANCH  11  14
ENDBRANCH   1  10
BRANCH   7  20
HETATM   20  N4  UNL     1      24.525  -0.635  53.000  1.00  0.00    -0.340 N 
HETATM   21  H8  UNL     1      24.661  -1.535  52.465  1.00  0.00     0.167 HD
BRANCH  20  22
HETATM   22  C11 UNL     1      25.746   0.030  53.267  1.00  0.00     0.035 A 
HETATM   23  C12 UNL     1      25.823   1.403  53.520  1.00  0.00     0.029 A 
HETATM   24  C13 UNL     1      26.989   2.073  53.781  1.00  0.00     0.004 A 
HETATM   25  C14 UNL     1      28.185   1.391  53.807  1.00  0.00     0.019 A 
HETATM   26  C15 UNL     1      28.175   0.041  53.566  1.00  0.00     0.013 A 
HETATM   27 BR1  UNL     1      29.842  -0.867  53.610  1.00  0.00    -0.051 Br
HETATM   28  C16 UNL     1      26.983  -0.581  53.310  1.00  0.00     0.048 A 
ENDBRANCH  20  22
ENDBRANCH   7  20
TORSDOF 4
ENDMDL
