MODEL 1
REMARK VINA RESULT:      -8.8      0.000      0.000
REMARK  3 active torsions:
REMARK  status: ('A' for Active; 'I' for Inactive)
REMARK    1  A    between atoms: O1_2  and  C2_3 
REMARK    2  A    between atoms: C11_15  and  N3_16 
REMARK    3  A    between atoms: N3_16  and  C12_17 
ROOT
HETATM    1  C2  UNL     1      26.489   2.376  51.618  1.00  0.00     0.099 C 
HETATM    2  C3  UNL     1      25.325   1.721  51.934  1.00  0.00     0.032 C 
HETATM    3  C4  UNL     1      25.851   0.680  52.776  1.00  0.00     0.043 C 
HETATM    4  C5  UNL     1      26.793  -0.145  51.957  1.00  0.00     0.031 C 
HETATM    5  C6  UNL     1      26.508   1.673  53.720  1.00  0.00     0.033 C 
HETATM    6  C7  UNL     1      27.319   2.335  52.860  1.00  0.00     0.107 C 
HETATM    7  O2  UNL     1      28.495   2.615  53.603  1.00  0.00    -0.301 OA
HETATM    8  C8  UNL     1      29.043   1.493  54.327  1.00  0.00     0.431 C 
HETATM    9  N1  UNL     1      28.656   0.354  54.755  1.00  0.00    -0.362 NA
HETATM   10  C9  UNL     1      27.452  -0.328  54.693  1.00  0.00     0.198 C 
HETATM   11  N2  UNL     1      26.271  -0.816  54.517  1.00  0.00    -0.247 NA
HETATM   12  C10 UNL     1      25.235  -0.192  53.695  1.00  0.00     0.067 C 
HETATM   13  C11 UNL     1      23.994  -0.517  53.923  1.00  0.00     0.117 C 
ENDROOT
BRANCH  13  14
HETATM   14  N3  UNL     1      22.987   0.089  53.127  1.00  0.00    -0.364 N 
HETATM   15  H12 UNL     1      23.392   0.849  52.535  1.00  0.00     0.165 HD
BRANCH  14  16
HETATM   16  C12 UNL     1      21.613  -0.297  53.139  1.00  0.00     0.033 A 
HETATM   17  C13 UNL     1      21.209  -1.188  54.087  1.00  0.00     0.029 A 
HETATM   18  C14 UNL     1      19.862  -1.552  54.083  1.00  0.00     0.004 A 
HETATM   19  C15 UNL     1      19.017  -1.020  53.159  1.00  0.00     0.019 A 
HETATM   20  C16 UNL     1      19.478  -0.109  52.204  1.00  0.00     0.013 A 
HETATM   21 BR1  UNL     1      18.303   0.637  50.912  1.00  0.00    -0.051 Br
HETATM   22  C17 UNL     1      20.817   0.285  52.171  1.00  0.00     0.048 A 
ENDBRANCH  14  16
ENDBRANCH  13  14
BRANCH   1  23
HETATM   23  O1  UNL     1      27.168   3.052  50.599  1.00  0.00    -0.353 OA
HETATM   24  C1  UNL     1      26.504   3.899  49.686  1.00  0.00     0.210 C 
ENDBRANCH   1  23
TORSDOF 3
ENDMDL
MODEL 2
REMARK VINA RESULT:      -8.5      3.349      6.317
REMARK  3 active torsions:
REMARK  status: ('A' for Active; 'I' for Inactive)
REMARK    1  A    between atoms: O1_2  and  C2_3 
REMARK    2  A    between atoms: C11_15  and  N3_16 
REMARK    3  A    between atoms: N3_16  and  C12_17 
ROOT
HETATM    1  C2  UNL     1      28.071   0.598  53.796  1.00  0.00     0.099 C 
HETATM    2  C3  UNL     1      27.709   1.510  52.835  1.00  0.00     0.032 C 
HETATM    3  C4  UNL     1      26.393   1.022  52.519  1.00  0.00     0.043 C 
HETATM    4  C5  UNL     1      26.531  -0.372  51.992  1.00  0.00     0.031 C 
HETATM    5  C6  UNL     1      25.925   1.129  53.960  1.00  0.00     0.033 C 
HETATM    6  C7  UNL     1      26.825   0.324  54.575  1.00  0.00     0.107 C 
HETATM    7  O2  UNL     1      26.096  -0.328  55.602  1.00  0.00    -0.301 OA
HETATM    8  C8  UNL     1      24.840  -0.905  55.188  1.00  0.00     0.431 C 
HETATM    9  N1  UNL     1      24.007  -0.787  54.229  1.00  0.00    -0.362 NA
HETATM   10  C9  UNL     1      23.965   0.010  53.096  1.00  0.00     0.198 C 
HETATM   11  N2  UNL     1      24.109   0.809  52.094  1.00  0.00    -0.247 NA
HETATM   12  C10 UNL     1      25.307   1.610  51.842  1.00  0.00     0.067 C 
HETATM   13  C11 UNL     1      25.190   2.664  51.086  1.00  0.00     0.117 C 
ENDROOT
BRANCH  13  14
HETATM   14  N3  UNL     1      26.351   3.442  50.842  1.00  0.00    -0.364 N 
HETATM   15  H12 UNL     1      27.162   3.079  51.393  1.00  0.00     0.165 HD
BRANCH  14  16
HETATM   16  C12 UNL     1      26.395   4.564  49.961  1.00  0.00     0.033 A 
HETATM   17  C13 UNL     1      27.453   4.666  49.109  1.00  0.00     0.029 A 
HETATM   18  C14 UNL     1      27.477   5.771  48.256  1.00  0.00     0.004 A 
HETATM   19  C15 UNL     1      26.471   6.685  48.299  1.00  0.00     0.019 A 
HETATM   20  C16 UNL     1      25.404   6.538  49.191  1.00  0.00     0.013 A 
HETATM   21 BR1  UNL     1      23.997   7.812  49.255  1.00  0.00    -0.051 Br
HETATM   22  C17 UNL     1      25.338   5.450  50.063  1.00  0.00     0.048 A 
ENDBRANCH  14  16
ENDBRANCH  13  14
BRANCH   1  23
HETATM   23  O1  UNL     1      29.140  -0.145  54.306  1.00  0.00    -0.353 OA
HETATM   24  C1  UNL     1      29.782  -1.154  53.556  1.00  0.00     0.210 C 
ENDBRANCH   1  23
TORSDOF 3
ENDMDL
MODEL 3
REMARK VINA RESULT:      -8.2      3.483      5.938
REMARK  3 active torsions:
REMARK  status: ('A' for Active; 'I' for Inactive)
REMARK    1  A    between atoms: O1_2  and  C2_3 
REMARK    2  A    between atoms: C11_15  and  N3_16 
REMARK    3  A    between atoms: N3_16  and  C12_17 
ROOT
HETATM    1  C2  UNL     1      24.512   0.066  53.119  1.00  0.00     0.099 C 
HETATM    2  C3  UNL     1      24.569   1.026  52.140  1.00  0.00     0.032 C 
HETATM    3  C4  UNL     1      25.843   1.617  52.451  1.00  0.00     0.043 C 
HETATM    4  C5  UNL     1      25.765   2.184  53.833  1.00  0.00     0.031 C 
HETATM    5  C6  UNL     1      26.572   0.290  52.332  1.00  0.00     0.033 C 
HETATM    6  C7  UNL     1      25.910  -0.442  53.261  1.00  0.00     0.107 C 
HETATM    7  O2  UNL     1      26.899  -1.271  53.851  1.00  0.00    -0.301 OA
HETATM    8  C8  UNL     1      28.106  -0.591  54.254  1.00  0.00     0.431 C 
HETATM    9  N1  UNL     1      28.713   0.503  54.004  1.00  0.00    -0.362 NA
HETATM   10  C9  UNL     1      28.438   1.577  53.172  1.00  0.00     0.198 C 
HETATM   11  N2  UNL     1      28.007   2.487  52.365  1.00  0.00    -0.247 NA
HETATM   12  C10 UNL     1      26.699   2.457  51.712  1.00  0.00     0.067 C 
HETATM   13  C11 UNL     1      26.541   3.163  50.628  1.00  0.00     0.117 C 
ENDROOT
BRANCH  13  14
HETATM   14  N3  UNL     1      25.272   3.134  49.992  1.00  0.00    -0.364 N 
HETATM   15  H12 UNL     1      24.817   2.202  50.117  1.00  0.00     0.165 HD
BRANCH  14  16
HETATM   16  C12 UNL     1      24.705   4.235  49.282  1.00  0.00     0.033 A 
HETATM   17  C13 UNL     1      23.422   4.119  48.843  1.00  0.00     0.029 A 
HETATM   18  C14 UNL     1      22.886   5.206  48.150  1.00  0.00     0.004 A 
HETATM   19  C15 UNL     1      23.641   6.318  47.943  1.00  0.00     0.019 A 
HETATM   20  C16 UNL     1      24.956   6.392  48.414  1.00  0.00     0.013 A 
HETATM   21 BR1  UNL     1      26.014   7.943  48.127  1.00  0.00    -0.051 Br
HETATM   22  C17 UNL     1      25.533   5.329  49.110  1.00  0.00     0.048 A 
ENDBRANCH  14  16
ENDBRANCH  13  14
BRANCH   1  23
HETATM   23  O1  UNL     1      23.658  -0.599  54.005  1.00  0.00    -0.353 OA
HETATM   24  C1  UNL     1      22.353  -0.991  53.642  1.00  0.00     0.210 C 
ENDBRANCH   1  23
TORSDOF 3
ENDMDL
MODEL 4
REMARK VINA RESULT:      -7.9      3.209      6.375
REMARK  3 active torsions:
REMARK  status: ('A' for Active; 'I' for Inactive)
REMARK    1  A    between atoms: O1_2  and  C2_3 
REMARK    2  A    between atoms: C11_15  and  N3_16 
REMARK    3  A    between atoms: N3_16  and  C12_17 
ROOT
HETATM    1  C2  UNL     1      22.816   1.333  52.651  1.00  0.00     0.099 C 
HETATM    2  C3  UNL     1      23.681   1.921  51.762  1.00  0.00     0.032 C 
HETATM    3  C4  UNL     1      24.906   1.823  52.511  1.00  0.00     0.043 C 
HETATM    4  C5  UNL     1      24.737   2.602  53.777  1.00  0.00     0.031 C 
HETATM    5  C6  UNL     1      24.785   0.316  52.653  1.00  0.00     0.033 C 
HETATM    6  C7  UNL     1      23.588   0.219  53.281  1.00  0.00     0.107 C 
HETATM    7  O2  UNL     1      23.729  -0.869  54.181  1.00  0.00    -0.301 OA
HETATM    8  C8  UNL     1      24.922  -0.840  54.993  1.00  0.00     0.431 C 
HETATM    9  N1  UNL     1      26.069  -0.282  54.981  1.00  0.00    -0.362 NA
HETATM   10  C9  UNL     1      26.692   0.598  54.112  1.00  0.00     0.198 C 
HETATM   11  N2  UNL     1      27.097   1.427  53.209  1.00  0.00    -0.247 NA
HETATM   12  C10 UNL     1      26.256   1.947  52.131  1.00  0.00     0.067 C 
HETATM   13  C11 UNL     1      26.846   2.411  51.066  1.00  0.00     0.117 C 
ENDROOT
BRANCH  13  14
HETATM   14  N3  UNL     1      26.032   2.915  50.018  1.00  0.00    -0.364 N 
HETATM   15  H12 UNL     1      25.349   2.191  49.700  1.00  0.00     0.165 HD
BRANCH  14  16
HETATM   16  C12 UNL     1      26.139   4.233  49.482  1.00  0.00     0.033 A 
HETATM   17  C13 UNL     1      27.318   4.594  48.905  1.00  0.00     0.029 A 
HETATM   18  C14 UNL     1      27.403   5.887  48.386  1.00  0.00     0.004 A 
HETATM   19  C15 UNL     1      26.334   6.724  48.470  1.00  0.00     0.019 A 
HETATM   20  C16 UNL     1      25.142   6.309  49.072  1.00  0.00     0.013 A 
HETATM   21 BR1  UNL     1      23.647   7.474  49.191  1.00  0.00    -0.051 Br
HETATM   22  C17 UNL     1      25.012   5.025  49.605  1.00  0.00     0.048 A 
ENDBRANCH  14  16
ENDBRANCH  13  14
BRANCH   1  23
HETATM   23  O1  UNL     1      21.519   1.383  53.170  1.00  0.00    -0.353 OA
HETATM   24  C1  UNL     1      20.603   0.322  53.011  1.00  0.00     0.210 C 
ENDBRANCH   1  23
TORSDOF 3
ENDMDL
MODEL 5
REMARK VINA RESULT:      -7.6      3.805      7.095
REMARK  3 active torsions:
REMARK  status: ('A' for Active; 'I' for Inactive)
REMARK    1  A    between atoms: O1_2  and  C2_3 
REMARK    2  A    between atoms: C11_15  and  N3_16 
REMARK    3  A    between atoms: N3_16  and  C12_17 
ROOT
HETATM    1  C2  UNL     1      21.585   1.909  50.222  1.00  0.00     0.099 C 
HETATM    2  C3  UNL     1      22.773   1.574  50.824  1.00  0.00     0.032 C 
HETATM    3  C4  UNL     1      22.279   1.101  52.090  1.00  0.00     0.043 C 
HETATM    4  C5  UNL     1      21.572   2.235  52.763  1.00  0.00     0.031 C 
HETATM    5  C6  UNL     1      21.377   0.068  51.438  1.00  0.00     0.033 C 
HETATM    6  C7  UNL     1      20.609   0.865  50.657  1.00  0.00     0.107 C 
HETATM    7  O2  UNL     1      19.317   0.278  50.688  1.00  0.00    -0.301 OA
HETATM    8  C8  UNL     1      18.830  -0.058  52.003  1.00  0.00     0.431 C 
HETATM    9  N1  UNL     1      19.301  -0.259  53.172  1.00  0.00    -0.362 NA
HETATM   10  C9  UNL     1      20.581  -0.233  53.700  1.00  0.00     0.198 C 
HETATM   11  N2  UNL     1      21.830  -0.140  54.014  1.00  0.00    -0.247 NA
HETATM   12  C10 UNL     1      22.876   0.329  53.106  1.00  0.00     0.067 C 
HETATM   13  C11 UNL     1      24.107  -0.014  53.362  1.00  0.00     0.117 C 
ENDROOT
BRANCH  13  14
HETATM   14  N3  UNL     1      25.122   0.441  52.481  1.00  0.00    -0.364 N 
HETATM   15  H12 UNL     1      24.755   0.529  51.507  1.00  0.00     0.165 HD
BRANCH  14  16
HETATM   16  C12 UNL     1      26.460   0.734  52.883  1.00  0.00     0.033 A 
HETATM   17  C13 UNL     1      26.788   2.037  53.109  1.00  0.00     0.029 A 
HETATM   18  C14 UNL     1      28.101   2.303  53.501  1.00  0.00     0.004 A 
HETATM   19  C15 UNL     1      28.987   1.281  53.642  1.00  0.00     0.019 A 
HETATM   20  C16 UNL     1      28.606  -0.041  53.398  1.00  0.00     0.013 A 
HETATM   21 BR1  UNL     1      29.841  -1.471  53.593  1.00  0.00    -0.051 Br
HETATM   22  C17 UNL     1      27.303  -0.354  53.004  1.00  0.00     0.048 A 
ENDBRANCH  14  16
ENDBRANCH  13  14
BRANCH   1  23
HETATM   23  O1  UNL     1      20.967   2.834  49.374  1.00  0.00    -0.353 OA
HETATM   24  C1  UNL     1      20.411   2.463  48.132  1.00  0.00     0.210 C 
ENDBRANCH   1  23
TORSDOF 3
ENDMDL
MODEL 6
REMARK VINA RESULT:      -7.6      4.084      7.168
REMARK  3 active torsions:
REMARK  status: ('A' for Active; 'I' for Inactive)
REMARK    1  A    between atoms: O1_2  and  C2_3 
REMARK    2  A    between atoms: C11_15  and  N3_16 
REMARK    3  A    between atoms: N3_16  and  C12_17 
ROOT
HETATM    1  C2  UNL     1      22.114   2.727  51.921  1.00  0.00     0.099 C 
HETATM    2  C3  UNL     1      23.146   3.172  51.133  1.00  0.00     0.032 C 
HETATM    3  C4  UNL     1      24.254   2.548  51.805  1.00  0.00     0.043 C 
HETATM    4  C5  UNL     1      24.304   3.078  53.204  1.00  0.00     0.031 C 
HETATM    5  C6  UNL     1      23.659   1.159  51.657  1.00  0.00     0.033 C 
HETATM    6  C7  UNL     1      22.475   1.326  52.295  1.00  0.00     0.107 C 
HETATM    7  O2  UNL     1      22.238   0.095  52.962  1.00  0.00    -0.301 OA
HETATM    8  C8  UNL     1      23.355  -0.413  53.722  1.00  0.00     0.431 C 
HETATM    9  N1  UNL     1      24.619  -0.256  53.779  1.00  0.00    -0.362 NA
HETATM   10  C9  UNL     1      25.514   0.535  53.075  1.00  0.00     0.198 C 
HETATM   11  N2  UNL     1      26.186   1.352  52.337  1.00  0.00    -0.247 NA
HETATM   12  C10 UNL     1      25.585   2.311  51.410  1.00  0.00     0.067 C 
HETATM   13  C11 UNL     1      26.322   2.763  50.435  1.00  0.00     0.117 C 
ENDROOT
BRANCH  13  14
HETATM   14  N3  UNL     1      25.739   3.692  49.534  1.00  0.00    -0.364 N 
HETATM   15  H12 UNL     1      24.986   3.238  48.970  1.00  0.00     0.165 HD
BRANCH  14  16
HETATM   16  C12 UNL     1      26.136   5.059  49.423  1.00  0.00     0.033 A 
HETATM   17  C13 UNL     1      25.427   5.988  50.122  1.00  0.00     0.029 A 
HETATM   18  C14 UNL     1      25.831   7.319  50.000  1.00  0.00     0.004 A 
HETATM   19  C15 UNL     1      26.892   7.637  49.210  1.00  0.00     0.019 A 
HETATM   20  C16 UNL     1      27.591   6.648  48.512  1.00  0.00     0.013 A 
HETATM   21 BR1  UNL     1      29.073   7.087  47.408  1.00  0.00    -0.051 Br
HETATM   22  C17 UNL     1      27.222   5.304  48.603  1.00  0.00     0.048 A 
ENDBRANCH  14  16
ENDBRANCH  13  14
BRANCH   1  23
HETATM   23  O1  UNL     1      20.884   3.082  52.484  1.00  0.00    -0.353 OA
HETATM   24  C1  UNL     1      19.657   2.604  51.977  1.00  0.00     0.210 C 
ENDBRANCH   1  23
TORSDOF 3
ENDMDL
MODEL 7
REMARK VINA RESULT:      -7.5      2.785      4.516
REMARK  3 active torsions:
REMARK  status: ('A' for Active; 'I' for Inactive)
REMARK    1  A    between atoms: O1_2  and  C2_3 
REMARK    2  A    between atoms: C11_15  and  N3_16 
REMARK    3  A    between atoms: N3_16  and  C12_17 
ROOT
HETATM    1  C2  UNL     1      25.691   2.763  51.140  1.00  0.00     0.099 C 
HETATM    2  C3  UNL     1      24.465   2.150  51.223  1.00  0.00     0.032 C 
HETATM    3  C4  UNL     1      23.641   3.291  51.519  1.00  0.00     0.043 C 
HETATM    4  C5  UNL     1      24.103   3.870  52.819  1.00  0.00     0.031 C 
HETATM    5  C6  UNL     1      24.096   4.037  50.276  1.00  0.00     0.033 C 
HETATM    6  C7  UNL     1      25.433   4.083  50.489  1.00  0.00     0.107 C 
HETATM    7  O2  UNL     1      25.843   5.346  49.987  1.00  0.00    -0.301 OA
HETATM    8  C8  UNL     1      25.046   6.466  50.425  1.00  0.00     0.431 C 
HETATM    9  N1  UNL     1      23.888   6.677  50.917  1.00  0.00    -0.362 NA
HETATM   10  C9  UNL     1      22.833   5.848  51.261  1.00  0.00     0.198 C 
HETATM   11  N2  UNL     1      21.975   4.926  51.542  1.00  0.00    -0.247 NA
HETATM   12  C10 UNL     1      22.248   3.491  51.454  1.00  0.00     0.067 C 
HETATM   13  C11 UNL     1      21.234   2.682  51.340  1.00  0.00     0.117 C 
ENDROOT
BRANCH  13  14
HETATM   14  N3  UNL     1      21.497   1.290  51.254  1.00  0.00    -0.364 N 
HETATM   15  H12 UNL     1      21.944   1.054  50.339  1.00  0.00     0.165 HD
BRANCH  14  16
HETATM   16  C12 UNL     1      21.189   0.350  52.283  1.00  0.00     0.033 A 
HETATM   17  C13 UNL     1      22.188  -0.014  53.134  1.00  0.00     0.029 A 
HETATM   18  C14 UNL     1      21.867  -0.934  54.134  1.00  0.00     0.004 A 
HETATM   19  C15 UNL     1      20.602  -1.424  54.225  1.00  0.00     0.019 A 
HETATM   20  C16 UNL     1      19.608  -1.021  53.327  1.00  0.00     0.013 A 
HETATM   21 BR1  UNL     1      17.839  -1.702  53.451  1.00  0.00    -0.051 Br
HETATM   22  C17 UNL     1      19.884  -0.103  52.312  1.00  0.00     0.048 A 
ENDBRANCH  14  16
ENDBRANCH  13  14
BRANCH   1  23
HETATM   23  O1  UNL     1      27.052   2.616  51.425  1.00  0.00    -0.353 OA
HETATM   24  C1  UNL     1      27.512   2.109  52.659  1.00  0.00     0.210 C 
ENDBRANCH   1  23
TORSDOF 3
ENDMDL
MODEL 8
REMARK VINA RESULT:      -7.5      2.948      4.772
REMARK  3 active torsions:
REMARK  status: ('A' for Active; 'I' for Inactive)
REMARK    1  A    between atoms: O1_2  and  C2_3 
REMARK    2  A    between atoms: C11_15  and  N3_16 
REMARK    3  A    between atoms: N3_16  and  C12_17 
ROOT
HETATM    1  C2  UNL     1      26.378   2.472  51.183  1.00  0.00     0.099 C 
HETATM    2  C3  UNL     1      25.132   1.931  50.981  1.00  0.00     0.032 C 
HETATM    3  C4  UNL     1      24.447   3.085  50.461  1.00  0.00     0.043 C 
HETATM    4  C5  UNL     1      24.469   4.148  51.514  1.00  0.00     0.031 C 
HETATM    5  C6  UNL     1      25.449   3.265  49.334  1.00  0.00     0.033 C 
HETATM    6  C7  UNL     1      26.596   3.409  50.040  1.00  0.00     0.107 C 
HETATM    7  O2  UNL     1      27.358   4.363  49.316  1.00  0.00    -0.301 OA
HETATM    8  C8  UNL     1      26.641   5.555  48.933  1.00  0.00     0.431 C 
HETATM    9  N1  UNL     1      25.432   5.935  48.788  1.00  0.00    -0.362 NA
HETATM   10  C9  UNL     1      24.209   5.305  48.955  1.00  0.00     0.198 C 
HETATM   11  N2  UNL     1      23.176   4.567  49.184  1.00  0.00    -0.247 NA
HETATM   12  C10 UNL     1      23.232   3.225  49.762  1.00  0.00     0.067 C 
HETATM   13  C11 UNL     1      22.223   2.427  49.556  1.00  0.00     0.117 C 
ENDROOT
BRANCH  13  14
HETATM   14  N3  UNL     1      22.277   1.124  50.115  1.00  0.00    -0.364 N 
HETATM   15  H12 UNL     1      23.044   0.566  49.678  1.00  0.00     0.165 HD
BRANCH  14  16
HETATM   16  C12 UNL     1      21.399   0.652  51.137  1.00  0.00     0.033 A 
HETATM   17  C13 UNL     1      20.058   0.729  50.912  1.00  0.00     0.029 A 
HETATM   18  C14 UNL     1      19.216   0.262  51.923  1.00  0.00     0.004 A 
HETATM   19  C15 UNL     1      19.747  -0.242  53.069  1.00  0.00     0.019 A 
HETATM   20  C16 UNL     1      21.131  -0.300  53.256  1.00  0.00     0.013 A 
HETATM   21 BR1  UNL     1      21.877  -1.004  54.855  1.00  0.00    -0.051 Br
HETATM   22  C17 UNL     1      22.011   0.155  52.272  1.00  0.00     0.048 A 
ENDBRANCH  14  16
ENDBRANCH  13  14
BRANCH   1  23
HETATM   23  O1  UNL     1      27.489   2.469  52.032  1.00  0.00    -0.353 OA
HETATM   24  C1  UNL     1      27.653   1.511  53.055  1.00  0.00     0.210 C 
ENDBRANCH   1  23
TORSDOF 3
ENDMDL
MODEL 9
REMARK VINA RESULT:      -7.4      3.930      6.830
REMARK  3 active torsions:
REMARK  status: ('A' for Active; 'I' for Inactive)
REMARK    1  A    between atoms: O1_2  and  C2_3 
REMARK    2  A    between atoms: C11_15  and  N3_16 
REMARK    3  A    between atoms: N3_16  and  C12_17 
ROOT
HETATM    1  C2  UNL     1      25.385   1.364  52.078  1.00  0.00     0.099 C 
HETATM    2  C3  UNL     1      25.029   2.690  52.046  1.00  0.00     0.032 C 
HETATM    3  C4  UNL     1      23.599   2.557  51.952  1.00  0.00     0.043 C 
HETATM    4  C5  UNL     1      23.285   1.828  50.684  1.00  0.00     0.031 C 
HETATM    5  C6  UNL     1      23.519   1.724  53.219  1.00  0.00     0.033 C 
HETATM    6  C7  UNL     1      24.327   0.687  52.887  1.00  0.00     0.107 C 
HETATM    7  O2  UNL     1      23.726  -0.454  53.480  1.00  0.00    -0.301 OA
HETATM    8  C8  UNL     1      22.310  -0.593  53.242  1.00  0.00     0.431 C 
HETATM    9  N1  UNL     1      21.327   0.139  52.887  1.00  0.00    -0.362 NA
HETATM   10  C9  UNL     1      21.207   1.478  52.556  1.00  0.00     0.198 C 
HETATM   11  N2  UNL     1      21.293   2.732  52.261  1.00  0.00    -0.247 NA
HETATM   12  C10 UNL     1      22.551   3.472  52.169  1.00  0.00     0.067 C 
HETATM   13  C11 UNL     1      22.507   4.769  52.291  1.00  0.00     0.117 C 
ENDROOT
BRANCH  13  14
HETATM   14  N3  UNL     1      23.727   5.489  52.203  1.00  0.00    -0.364 N 
HETATM   15  H12 UNL     1      24.329   5.300  53.036  1.00  0.00     0.165 HD
BRANCH  14  16
HETATM   16  C12 UNL     1      24.074   6.349  51.118  1.00  0.00     0.033 A 
HETATM   17  C13 UNL     1      23.235   7.382  50.829  1.00  0.00     0.029 A 
HETATM   18  C14 UNL     1      23.592   8.212  49.765  1.00  0.00     0.004 A 
HETATM   19  C15 UNL     1      24.737   7.971  49.071  1.00  0.00     0.019 A 
HETATM   20  C16 UNL     1      25.568   6.898  49.405  1.00  0.00     0.013 A 
HETATM   21 BR1  UNL     1      27.168   6.559  48.438  1.00  0.00    -0.051 Br
HETATM   22  C17 UNL     1      25.251   6.042  50.461  1.00  0.00     0.048 A 
ENDBRANCH  14  16
ENDBRANCH  13  14
BRANCH   1  23
HETATM   23  O1  UNL     1      26.342   0.438  51.652  1.00  0.00    -0.353 OA
HETATM   24  C1  UNL     1      27.070  -0.362  52.557  1.00  0.00     0.210 C 
ENDBRANCH   1  23
TORSDOF 3
ENDMDL
