MODEL 1
REMARK VINA RESULT:      -8.7      0.000      0.000
REMARK  2 active torsions:
REMARK  status: ('A' for Active; 'I' for Inactive)
REMARK    1  A    between atoms: C5_5  and  N1_6 
REMARK    2  A    between atoms: N1_6  and  C6_7 
ROOT
HETATM    1  N1  UNL     1      25.380   2.461  53.153  1.00  0.00    -0.349 N 
HETATM    2  H6  UNL     1      24.921   2.490  54.088  1.00  0.00     0.167 HD
ENDROOT
BRANCH   1   3
HETATM    3  C5  UNL     1      25.150   2.861  51.838  1.00  0.00     0.097 C 
HETATM    4  C4  UNL     1      24.170   2.478  51.043  1.00  0.00    -0.038 A 
HETATM    5  C3  UNL     1      23.189   1.533  51.540  1.00  0.00     0.018 A 
HETATM    6  C14 UNL     1      24.222   3.115  49.704  1.00  0.00     0.082 A 
HETATM    7  C2  UNL     1      22.199   1.231  50.723  1.00  0.00    -0.032 A 
HETATM    8  C1  UNL     1      21.134   0.280  51.120  1.00  0.00     0.050 C 
HETATM    9  C16 UNL     1      22.193   1.860  49.389  1.00  0.00     0.070 A 
HETATM   10  C15 UNL     1      23.067   2.703  48.886  1.00  0.00    -0.007 A 
HETATM   11  N4  UNL     1      21.474   1.945  48.160  1.00  0.00    -0.259 NA
HETATM   12  C17 UNL     1      22.311   2.764  47.655  1.00  0.00     0.127 A 
ENDBRANCH   1   3
BRANCH   1  13
HETATM   13  C6  UNL     1      26.417   1.793  53.858  1.00  0.00     0.145 C 
HETATM   14  C7  UNL     1      27.665   2.215  53.800  1.00  0.00     0.166 C 
HETATM   15  N2  UNL     1      29.019   2.048  54.198  1.00  0.00    -0.269 NA
HETATM   16  C8  UNL     1      29.513   0.869  54.027  1.00  0.00     0.116 C 
HETATM   17  C9  UNL     1      28.966  -0.364  53.494  1.00  0.00     0.019 C 
HETATM   18  C10 UNL     1      27.784  -0.600  53.028  1.00  0.00     0.002 C 
HETATM   19  C11 UNL     1      26.404  -0.330  52.638  1.00  0.00     0.015 C 
HETATM   20  C12 UNL     1      25.395  -0.504  53.494  1.00  0.00     0.008 C 
HETATM   21  C13 UNL     1      25.708  -0.132  54.709  1.00  0.00     0.100 C 
HETATM   22  N3  UNL     1      26.698   0.705  54.733  1.00  0.00    -0.227 NA
ENDBRANCH   1  13
TORSDOF 2
ENDMDL
MODEL 2
REMARK VINA RESULT:      -8.4      2.306      3.328
REMARK  2 active torsions:
REMARK  status: ('A' for Active; 'I' for Inactive)
REMARK    1  A    between atoms: C5_5  and  N1_6 
REMARK    2  A    between atoms: N1_6  and  C6_7 
ROOT
HETATM    1  N1  UNL     1      25.745   1.696  51.721  1.00  0.00    -0.349 N 
HETATM    2  H6  UNL     1      26.213   0.811  51.432  1.00  0.00     0.167 HD
ENDROOT
BRANCH   1   3
HETATM    3  C5  UNL     1      24.840   2.635  51.229  1.00  0.00     0.097 C 
HETATM    4  C4  UNL     1      25.091   3.645  50.421  1.00  0.00    -0.038 A 
HETATM    5  C3  UNL     1      26.448   3.855  49.956  1.00  0.00     0.018 A 
HETATM    6  C14 UNL     1      23.883   4.440  50.088  1.00  0.00     0.082 A 
HETATM    7  C2  UNL     1      26.631   4.844  49.103  1.00  0.00    -0.032 A 
HETATM    8  C1  UNL     1      27.973   5.153  48.556  1.00  0.00     0.050 C 
HETATM    9  C16 UNL     1      25.454   5.648  48.722  1.00  0.00     0.070 A 
HETATM   10  C15 UNL     1      24.212   5.511  49.129  1.00  0.00    -0.007 A 
HETATM   11  N4  UNL     1      25.021   6.745  47.921  1.00  0.00    -0.259 NA
HETATM   12  C17 UNL     1      23.810   6.629  48.305  1.00  0.00     0.127 A 
ENDBRANCH   1   3
BRANCH   1  13
HETATM   13  C6  UNL     1      26.486   1.512  52.919  1.00  0.00     0.145 C 
HETATM   14  C7  UNL     1      27.598   2.184  53.146  1.00  0.00     0.166 C 
HETATM   15  N2  UNL     1      28.692   2.457  54.010  1.00  0.00    -0.269 NA
HETATM   16  C8  UNL     1      29.345   1.427  54.432  1.00  0.00     0.116 C 
HETATM   17  C9  UNL     1      29.199   0.003  54.202  1.00  0.00     0.019 C 
HETATM   18  C10 UNL     1      28.334  -0.624  53.476  1.00  0.00     0.002 C 
HETATM   19  C11 UNL     1      27.202  -0.805  52.574  1.00  0.00     0.015 C 
HETATM   20  C12 UNL     1      25.962  -0.972  53.042  1.00  0.00     0.008 C 
HETATM   21  C13 UNL     1      25.723  -0.219  54.085  1.00  0.00     0.100 C 
HETATM   22  N3  UNL     1      26.520   0.803  54.154  1.00  0.00    -0.227 NA
ENDBRANCH   1  13
TORSDOF 2
ENDMDL
MODEL 3
REMARK VINA RESULT:      -8.4      1.839      2.112
REMARK  2 active torsions:
REMARK  status: ('A' for Active; 'I' for Inactive)
REMARK    1  A    between atoms: C5_5  and  N1_6 
REMARK    2  A    between atoms: N1_6  and  C6_7 
ROOT
HETATM    1  N1  UNL     1      25.727   1.777  51.905  1.00  0.00    -0.349 N 
HETATM    2  H6  UNL     1      26.315   1.013  51.509  1.00  0.00     0.167 HD
ENDROOT
BRANCH   1   3
HETATM    3  C5  UNL     1      24.684   2.624  51.533  1.00  0.00     0.097 C 
HETATM    4  C4  UNL     1      23.400   2.478  51.792  1.00  0.00    -0.038 A 
HETATM    5  C3  UNL     1      22.962   1.320  52.548  1.00  0.00     0.018 A 
HETATM    6  C14 UNL     1      22.567   3.581  51.253  1.00  0.00     0.082 A 
HETATM    7  C2  UNL     1      21.675   1.255  52.828  1.00  0.00    -0.032 A 
HETATM    8  C1  UNL     1      21.109   0.122  53.597  1.00  0.00     0.050 C 
HETATM    9  C16 UNL     1      20.809   2.343  52.335  1.00  0.00     0.070 A 
HETATM   10  C15 UNL     1      21.154   3.399  51.632  1.00  0.00    -0.007 A 
HETATM   11  N4  UNL     1      19.465   2.819  52.304  1.00  0.00    -0.259 NA
HETATM   12  C17 UNL     1      19.780   3.850  51.621  1.00  0.00     0.127 A 
ENDBRANCH   1   3
BRANCH   1  13
HETATM   13  C6  UNL     1      26.508   1.558  53.072  1.00  0.00     0.145 C 
HETATM   14  C7  UNL     1      27.633   2.216  53.274  1.00  0.00     0.166 C 
HETATM   15  N2  UNL     1      28.759   2.461  54.106  1.00  0.00    -0.269 NA
HETATM   16  C8  UNL     1      29.417   1.416  54.480  1.00  0.00     0.116 C 
HETATM   17  C9  UNL     1      29.250  -0.002  54.224  1.00  0.00     0.019 C 
HETATM   18  C10 UNL     1      28.355  -0.604  53.514  1.00  0.00     0.002 C 
HETATM   19  C11 UNL     1      27.190  -0.756  52.649  1.00  0.00     0.015 C 
HETATM   20  C12 UNL     1      25.966  -0.923  53.157  1.00  0.00     0.008 C 
HETATM   21  C13 UNL     1      25.770  -0.192  54.225  1.00  0.00     0.100 C 
HETATM   22  N3  UNL     1      26.578   0.821  54.288  1.00  0.00    -0.227 NA
ENDBRANCH   1  13
TORSDOF 2
ENDMDL
MODEL 4
REMARK VINA RESULT:      -8.1      1.735      3.286
REMARK  2 active torsions:
REMARK  status: ('A' for Active; 'I' for Inactive)
REMARK    1  A    between atoms: C5_5  and  N1_6 
REMARK    2  A    between atoms: N1_6  and  C6_7 
ROOT
HETATM    1  N1  UNL     1      25.091  -0.103  53.872  1.00  0.00    -0.349 N 
HETATM    2  H6  UNL     1      25.744   0.403  54.508  1.00  0.00     0.167 HD
ENDROOT
BRANCH   1   3
HETATM    3  C5  UNL     1      23.727  -0.346  53.716  1.00  0.00     0.097 C 
HETATM    4  C4  UNL     1      22.917   0.178  52.819  1.00  0.00    -0.038 A 
HETATM    5  C3  UNL     1      23.449   1.124  51.857  1.00  0.00     0.018 A 
HETATM    6  C14 UNL     1      21.522  -0.315  52.933  1.00  0.00     0.082 A 
HETATM    7  C2  UNL     1      22.606   1.572  50.946  1.00  0.00    -0.032 A 
HETATM    8  C1  UNL     1      23.034   2.540  49.909  1.00  0.00     0.050 C 
HETATM    9  C16 UNL     1      21.213   1.090  51.004  1.00  0.00     0.070 A 
HETATM   10  C15 UNL     1      20.680   0.251  51.865  1.00  0.00    -0.007 A 
HETATM   11  N4  UNL     1      19.938   1.179  50.372  1.00  0.00    -0.259 NA
HETATM   12  C17 UNL     1      19.402   0.368  51.198  1.00  0.00     0.127 A 
ENDBRANCH   1   3
BRANCH   1  13
HETATM   13  C6  UNL     1      26.284  -0.459  53.188  1.00  0.00     0.145 C 
HETATM   14  C7  UNL     1      26.777  -1.680  53.263  1.00  0.00     0.166 C 
HETATM   15  N2  UNL     1      27.792  -2.600  52.886  1.00  0.00    -0.269 NA
HETATM   16  C8  UNL     1      29.006  -2.205  53.074  1.00  0.00     0.116 C 
HETATM   17  C9  UNL     1      29.576  -0.982  53.606  1.00  0.00     0.019 C 
HETATM   18  C10 UNL     1      28.977   0.071  54.055  1.00  0.00     0.002 C 
HETATM   19  C11 UNL     1      27.867   0.944  54.422  1.00  0.00     0.015 C 
HETATM   20  C12 UNL     1      27.354   1.817  53.551  1.00  0.00     0.008 C 
HETATM   21  C13 UNL     1      27.295   1.328  52.339  1.00  0.00     0.100 C 
HETATM   22  N3  UNL     1      27.306   0.031  52.325  1.00  0.00    -0.227 NA
ENDBRANCH   1  13
TORSDOF 2
ENDMDL
MODEL 5
REMARK VINA RESULT:      -7.8      2.078      6.797
REMARK  2 active torsions:
REMARK  status: ('A' for Active; 'I' for Inactive)
REMARK    1  A    between atoms: C5_5  and  N1_6 
REMARK    2  A    between atoms: N1_6  and  C6_7 
ROOT
HETATM    1  N1  UNL     1      23.764   0.945  53.172  1.00  0.00    -0.349 N 
HETATM    2  H6  UNL     1      23.249   1.501  53.887  1.00  0.00     0.167 HD
ENDROOT
BRANCH   1   3
HETATM    3  C5  UNL     1      24.676  -0.107  53.091  1.00  0.00     0.097 C 
HETATM    4  C4  UNL     1      25.990  -0.036  53.165  1.00  0.00    -0.038 A 
HETATM    5  C3  UNL     1      26.616   1.258  53.352  1.00  0.00     0.018 A 
HETATM    6  C14 UNL     1      26.653  -1.359  53.052  1.00  0.00     0.082 A 
HETATM    7  C2  UNL     1      27.929   1.263  53.478  1.00  0.00    -0.032 A 
HETATM    8  C1  UNL     1      28.681   2.524  53.677  1.00  0.00     0.050 C 
HETATM    9  C16 UNL     1      28.631  -0.032  53.398  1.00  0.00     0.070 A 
HETATM   10  C15 UNL     1      28.112  -1.226  53.210  1.00  0.00    -0.007 A 
HETATM   11  N4  UNL     1      29.914  -0.650  53.454  1.00  0.00    -0.259 NA
HETATM   12  C17 UNL     1      29.430  -1.816  53.272  1.00  0.00     0.127 A 
ENDBRANCH   1   3
BRANCH   1  13
HETATM   13  C6  UNL     1      23.078   1.784  52.254  1.00  0.00     0.145 C 
HETATM   14  C7  UNL     1      23.179   3.098  52.322  1.00  0.00     0.166 C 
HETATM   15  N2  UNL     1      22.817   4.368  51.798  1.00  0.00    -0.269 NA
HETATM   16  C8  UNL     1      21.552   4.572  51.645  1.00  0.00     0.116 C 
HETATM   17  C9  UNL     1      20.381   3.756  51.904  1.00  0.00     0.019 C 
HETATM   18  C10 UNL     1      20.309   2.559  52.383  1.00  0.00     0.002 C 
HETATM   19  C11 UNL     1      20.776   1.287  52.925  1.00  0.00     0.015 C 
HETATM   20  C12 UNL     1      21.054   0.253  52.127  1.00  0.00     0.008 C 
HETATM   21  C13 UNL     1      21.638   0.629  51.018  1.00  0.00     0.100 C 
HETATM   22  N3  UNL     1      22.210   1.788  51.125  1.00  0.00    -0.227 NA
ENDBRANCH   1  13
TORSDOF 2
ENDMDL
MODEL 6
REMARK VINA RESULT:      -7.7      1.485      6.796
REMARK  2 active torsions:
REMARK  status: ('A' for Active; 'I' for Inactive)
REMARK    1  A    between atoms: C5_5  and  N1_6 
REMARK    2  A    between atoms: N1_6  and  C6_7 
ROOT
HETATM    1  N1  UNL     1      23.783   1.153  52.634  1.00  0.00    -0.349 N 
HETATM    2  H6  UNL     1      23.454   1.934  53.241  1.00  0.00     0.167 HD
ENDROOT
BRANCH   1   3
HETATM    3  C5  UNL     1      24.653   0.064  52.673  1.00  0.00     0.097 C 
HETATM    4  C4  UNL     1      25.952   0.083  52.890  1.00  0.00    -0.038 A 
HETATM    5  C3  UNL     1      26.609   1.355  53.122  1.00  0.00     0.018 A 
HETATM    6  C14 UNL     1      26.567  -1.268  52.874  1.00  0.00     0.082 A 
HETATM    7  C2  UNL     1      27.899   1.309  53.391  1.00  0.00    -0.032 A 
HETATM    8  C1  UNL     1      28.678   2.543  53.649  1.00  0.00     0.050 C 
HETATM    9  C16 UNL     1      28.550  -0.015  53.412  1.00  0.00     0.070 A 
HETATM   10  C15 UNL     1      28.005  -1.190  53.190  1.00  0.00    -0.007 A 
HETATM   11  N4  UNL     1      29.792  -0.683  53.620  1.00  0.00    -0.259 NA
HETATM   12  C17 UNL     1      29.282  -1.832  53.407  1.00  0.00     0.127 A 
ENDBRANCH   1   3
BRANCH   1  13
HETATM   13  C6  UNL     1      22.892   1.724  51.687  1.00  0.00     0.145 C 
HETATM   14  C7  UNL     1      22.403   1.011  50.691  1.00  0.00     0.166 C 
HETATM   15  N2  UNL     1      21.575   0.950  49.538  1.00  0.00    -0.269 NA
HETATM   16  C8  UNL     1      21.781   1.865  48.651  1.00  0.00     0.116 C 
HETATM   17  C9  UNL     1      22.709   2.976  48.575  1.00  0.00     0.019 C 
HETATM   18  C10 UNL     1      23.613   3.346  49.421  1.00  0.00     0.002 C 
HETATM   19  C11 UNL     1      24.423   3.320  50.634  1.00  0.00     0.015 C 
HETATM   20  C12 UNL     1      24.050   3.985  51.731  1.00  0.00     0.008 C 
HETATM   21  C13 UNL     1      22.758   3.929  51.927  1.00  0.00     0.100 C 
HETATM   22  N3  UNL     1      22.207   2.920  51.326  1.00  0.00    -0.227 NA
ENDBRANCH   1  13
TORSDOF 2
ENDMDL
MODEL 7
REMARK VINA RESULT:      -7.7      3.342      4.924
REMARK  2 active torsions:
REMARK  status: ('A' for Active; 'I' for Inactive)
REMARK    1  A    between atoms: C5_5  and  N1_6 
REMARK    2  A    between atoms: N1_6  and  C6_7 
ROOT
HETATM    1  N1  UNL     1      25.670   2.416  50.509  1.00  0.00    -0.349 N 
HETATM    2  H6  UNL     1      24.718   1.993  50.470  1.00  0.00     0.167 HD
ENDROOT
BRANCH   1   3
HETATM    3  C5  UNL     1      26.543   3.157  49.713  1.00  0.00     0.097 C 
HETATM    4  C4  UNL     1      26.511   4.454  49.480  1.00  0.00    -0.038 A 
HETATM    5  C3  UNL     1      25.470   5.255  50.095  1.00  0.00     0.018 A 
HETATM    6  C14 UNL     1      27.606   4.914  48.590  1.00  0.00     0.082 A 
HETATM    7  C2  UNL     1      25.522   6.554  49.875  1.00  0.00    -0.032 A 
HETATM    8  C1  UNL     1      24.514   7.475  50.453  1.00  0.00     0.050 C 
HETATM    9  C16 UNL     1      26.608   7.062  49.016  1.00  0.00     0.070 A 
HETATM   10  C15 UNL     1      27.560   6.378  48.422  1.00  0.00    -0.007 A 
HETATM   11  N4  UNL     1      27.168   8.244  48.449  1.00  0.00    -0.259 NA
HETATM   12  C17 UNL     1      28.099   7.597  47.863  1.00  0.00     0.127 A 
ENDBRANCH   1   3
BRANCH   1  13
HETATM   13  C6  UNL     1      25.687   1.870  51.821  1.00  0.00     0.145 C 
HETATM   14  C7  UNL     1      26.267   0.713  52.072  1.00  0.00     0.166 C 
HETATM   15  N2  UNL     1      26.612  -0.288  53.020  1.00  0.00    -0.269 NA
HETATM   16  C8  UNL     1      25.641  -0.728  53.748  1.00  0.00     0.116 C 
HETATM   17  C9  UNL     1      24.228  -0.411  53.807  1.00  0.00     0.019 C 
HETATM   18  C10 UNL     1      23.549   0.433  53.103  1.00  0.00     0.002 C 
HETATM   19  C11 UNL     1      23.289   1.454  52.093  1.00  0.00     0.015 C 
HETATM   20  C12 UNL     1      23.373   2.754  52.385  1.00  0.00     0.008 C 
HETATM   21  C13 UNL     1      24.368   3.016  53.193  1.00  0.00     0.100 C 
HETATM   22  N3  UNL     1      25.284   2.098  53.168  1.00  0.00    -0.227 NA
ENDBRANCH   1  13
TORSDOF 2
ENDMDL
MODEL 8
REMARK VINA RESULT:      -7.6      1.962      6.987
REMARK  2 active torsions:
REMARK  status: ('A' for Active; 'I' for Inactive)
REMARK    1  A    between atoms: C5_5  and  N1_6 
REMARK    2  A    between atoms: N1_6  and  C6_7 
ROOT
HETATM    1  N1  UNL     1      24.115   1.399  52.150  1.00  0.00    -0.349 N 
HETATM    2  H6  UNL     1      24.189   2.421  51.958  1.00  0.00     0.167 HD
ENDROOT
BRANCH   1   3
HETATM    3  C5  UNL     1      24.925   0.267  52.236  1.00  0.00     0.097 C 
HETATM    4  C4  UNL     1      26.190   0.212  52.599  1.00  0.00    -0.038 A 
HETATM    5  C3  UNL     1      26.872   1.439  52.962  1.00  0.00     0.018 A 
HETATM    6  C14 UNL     1      26.741  -1.166  52.590  1.00  0.00     0.082 A 
HETATM    7  C2  UNL     1      28.119   1.317  53.374  1.00  0.00    -0.032 A 
HETATM    8  C1  UNL     1      28.918   2.500  53.775  1.00  0.00     0.050 C 
HETATM    9  C16 UNL     1      28.703  -0.037  53.406  1.00  0.00     0.070 A 
HETATM   10  C15 UNL     1      28.135  -1.173  53.069  1.00  0.00    -0.007 A 
HETATM   11  N4  UNL     1      29.882  -0.774  53.722  1.00  0.00    -0.259 NA
HETATM   12  C17 UNL     1      29.348  -1.887  53.399  1.00  0.00     0.127 A 
ENDBRANCH   1   3
BRANCH   1  13
HETATM   13  C6  UNL     1      22.731   1.687  52.297  1.00  0.00     0.145 C 
HETATM   14  C7  UNL     1      21.970   0.985  53.114  1.00  0.00     0.166 C 
HETATM   15  N2  UNL     1      20.684   0.758  53.675  1.00  0.00    -0.269 NA
HETATM   16  C8  UNL     1      19.717   0.639  52.829  1.00  0.00     0.116 C 
HETATM   17  C9  UNL     1      19.659   0.685  51.381  1.00  0.00     0.019 C 
HETATM   18  C10 UNL     1      20.614   0.863  50.530  1.00  0.00     0.002 C 
HETATM   19  C11 UNL     1      21.973   1.087  50.047  1.00  0.00     0.015 C 
HETATM   20  C12 UNL     1      22.445   2.320  49.853  1.00  0.00     0.008 C 
HETATM   21  C13 UNL     1      22.043   3.155  50.778  1.00  0.00     0.100 C 
HETATM   22  N3  UNL     1      21.684   2.552  51.869  1.00  0.00    -0.227 NA
ENDBRANCH   1  13
TORSDOF 2
ENDMDL
MODEL 9
REMARK VINA RESULT:      -7.5      3.604      5.001
REMARK  2 active torsions:
REMARK  status: ('A' for Active; 'I' for Inactive)
REMARK    1  A    between atoms: C5_5  and  N1_6 
REMARK    2  A    between atoms: N1_6  and  C6_7 
ROOT
HETATM    1  N1  UNL     1      25.665   2.879  50.479  1.00  0.00    -0.349 N 
HETATM    2  H6  UNL     1      25.911   1.913  50.174  1.00  0.00     0.167 HD
ENDROOT
BRANCH   1   3
HETATM    3  C5  UNL     1      25.275   4.103  49.939  1.00  0.00     0.097 C 
HETATM    4  C4  UNL     1      26.026   4.969  49.289  1.00  0.00    -0.038 A 
HETATM    5  C3  UNL     1      27.430   4.668  49.083  1.00  0.00     0.018 A 
HETATM    6  C14 UNL     1      25.278   6.169  48.840  1.00  0.00     0.082 A 
HETATM    7  C2  UNL     1      28.120   5.542  48.377  1.00  0.00    -0.032 A 
HETATM    8  C1  UNL     1      29.562   5.342  48.098  1.00  0.00     0.050 C 
HETATM    9  C16 UNL     1      27.413   6.740  47.886  1.00  0.00     0.070 A 
HETATM   10  C15 UNL     1      26.152   7.066  48.062  1.00  0.00    -0.007 A 
HETATM   11  N4  UNL     1      27.572   7.943  47.138  1.00  0.00    -0.259 NA
HETATM   12  C17 UNL     1      26.351   8.278  47.298  1.00  0.00     0.127 A 
ENDBRANCH   1   3
BRANCH   1  13
HETATM   13  C6  UNL     1      25.917   2.361  51.779  1.00  0.00     0.145 C 
HETATM   14  C7  UNL     1      26.914   1.528  52.001  1.00  0.00     0.166 C 
HETATM   15  N2  UNL     1      27.643   0.732  52.925  1.00  0.00    -0.269 NA
HETATM   16  C8  UNL     1      26.940  -0.072  53.649  1.00  0.00     0.116 C 
HETATM   17  C9  UNL     1      25.518  -0.349  53.722  1.00  0.00     0.019 C 
HETATM   18  C10 UNL     1      24.549   0.166  53.041  1.00  0.00     0.002 C 
HETATM   19  C11 UNL     1      23.889   1.016  52.055  1.00  0.00     0.015 C 
HETATM   20  C12 UNL     1      23.450   2.235  52.375  1.00  0.00     0.008 C 
HETATM   21  C13 UNL     1      24.268   2.859  53.183  1.00  0.00     0.100 C 
HETATM   22  N3  UNL     1      25.475   2.385  53.132  1.00  0.00    -0.227 NA
ENDBRANCH   1  13
TORSDOF 2
ENDMDL
