MODEL 1
REMARK VINA RESULT:      -6.8      0.000      0.000
REMARK  6 active torsions:
REMARK  status: ('A' for Active; 'I' for Inactive)
REMARK    1  A    between atoms: C2_2  and  C3_3 
REMARK    2  A    between atoms: C3_3  and  C4_4 
REMARK    3  A    between atoms: C4_4  and  N1_5 
REMARK       I    between atoms: N1_5  and  C5_6 
REMARK    4  A    between atoms: C5_6  and  C6_8 
REMARK    5  A    between atoms: N2_12  and  C10_13 
REMARK    6  A    between atoms: C10_13  and  C11_14 
ROOT
HETATM    1  C6  UNL     1      24.993   2.045  52.546  1.00  0.00     0.031 C 
HETATM    2  C7  UNL     1      24.353   3.190  52.429  1.00  0.00     0.018 C 
HETATM    3  C8  UNL     1      22.944   3.475  52.285  1.00  0.00     0.018 C 
HETATM    4  C9  UNL     1      21.818   2.792  52.168  1.00  0.00     0.085 C 
HETATM    5  N2  UNL     1      21.043   1.556  52.080  1.00  0.00    -0.387 N 
HETATM    6  C12 UNL     1      21.202   0.855  53.312  1.00  0.00     0.146 C 
HETATM    7  C13 UNL     1      22.025  -0.386  53.302  1.00  0.00     0.123 C 
HETATM    8 CL2  UNL     1      21.885  -1.039  55.015  1.00  0.00    -0.119 Cl
HETATM    9  C14 UNL     1      23.476  -0.192  53.071  1.00  0.00    -0.004 C 
HETATM   10  C15 UNL     1      24.258   0.828  52.820  1.00  0.00     0.014 C 
ENDROOT
BRANCH   1  11
HETATM   11  C5  UNL     1      26.445   2.125  52.646  1.00  0.00     0.251 C 
HETATM   12  N1  UNL     1      27.233   2.370  53.792  1.00  0.00    -0.357 N 
HETATM   13  H10 UNL     1      26.723   2.510  54.689  1.00  0.00     0.162 HD
HETATM   14  O1  UNL     1      27.191   1.976  51.656  1.00  0.00    -0.268 OA
BRANCH  12  15
HETATM   15  C4  UNL     1      28.659   2.432  53.790  1.00  0.00     0.123 C 
BRANCH  15  16
HETATM   16  C3  UNL     1      29.352   1.322  54.522  1.00  0.00     0.019 C 
BRANCH  16  17
HETATM   17  C2  UNL     1      29.742   0.270  53.475  1.00  0.00    -0.003 C 
HETATM   18  C1  UNL     1      28.773  -0.905  53.507  1.00  0.00     0.005 C 
ENDBRANCH  16  17
ENDBRANCH  15  16
ENDBRANCH  12  15
ENDBRANCH   1  11
BRANCH   5  19
HETATM   19  C10 UNL     1      20.428   1.493  50.795  1.00  0.00     0.137 C 
BRANCH  19  20
HETATM   20  C11 UNL     1      21.122   0.935  49.625  1.00  0.00     0.134 C 
HETATM   21 CL1  UNL     1      22.326   1.895  48.810  1.00  0.00    -0.129 Cl
ENDBRANCH  19  20
ENDBRANCH   5  19
TORSDOF 6
ENDMDL
MODEL 2
REMARK VINA RESULT:      -6.5      1.758      3.074
REMARK  6 active torsions:
REMARK  status: ('A' for Active; 'I' for Inactive)
REMARK    1  A    between atoms: C2_2  and  C3_3 
REMARK    2  A    between atoms: C3_3  and  C4_4 
REMARK    3  A    between atoms: C4_4  and  N1_5 
REMARK       I    between atoms: N1_5  and  C5_6 
REMARK    4  A    between atoms: C5_6  and  C6_8 
REMARK    5  A    between atoms: N2_12  and  C10_13 
REMARK    6  A    between atoms: C10_13  and  C11_14 
ROOT
HETATM    1  C6  UNL     1      25.071   1.865  51.911  1.00  0.00     0.031 C 
HETATM    2  C7  UNL     1      24.567   0.863  52.601  1.00  0.00     0.018 C 
HETATM    3  C8  UNL     1      23.237   0.298  52.613  1.00  0.00     0.018 C 
HETATM    4  C9  UNL     1      22.069   0.542  52.044  1.00  0.00     0.085 C 
HETATM    5  N2  UNL     1      21.173   1.298  51.171  1.00  0.00    -0.387 N 
HETATM    6  C12 UNL     1      21.665   1.178  49.837  1.00  0.00     0.146 C 
HETATM    7  C13 UNL     1      22.284   2.382  49.216  1.00  0.00     0.123 C 
HETATM    8 CL2  UNL     1      22.667   1.861  47.496  1.00  0.00    -0.119 Cl
HETATM    9  C14 UNL     1      23.579   2.809  49.798  1.00  0.00    -0.004 C 
HETATM   10  C15 UNL     1      24.339   2.413  50.788  1.00  0.00     0.014 C 
ENDROOT
BRANCH   1  11
HETATM   11  C5  UNL     1      26.467   2.190  52.173  1.00  0.00     0.251 C 
HETATM   12  N1  UNL     1      27.206   1.995  53.361  1.00  0.00    -0.357 N 
HETATM   13  H10 UNL     1      26.699   1.562  54.160  1.00  0.00     0.162 HD
HETATM   14  O1  UNL     1      27.203   2.711  51.310  1.00  0.00    -0.268 OA
BRANCH  12  15
HETATM   15  C4  UNL     1      28.579   2.349  53.523  1.00  0.00     0.123 C 
BRANCH  15  16
HETATM   16  C3  UNL     1      29.356   1.490  54.475  1.00  0.00     0.019 C 
BRANCH  16  17
HETATM   17  C2  UNL     1      28.881   0.046  54.266  1.00  0.00    -0.003 C 
HETATM   18  C1  UNL     1      29.943  -0.770  53.542  1.00  0.00     0.005 C 
ENDBRANCH  16  17
ENDBRANCH  15  16
ENDBRANCH  12  15
ENDBRANCH   1  11
BRANCH   5  19
HETATM   19  C10 UNL     1      20.151   1.891  51.969  1.00  0.00     0.137 C 
BRANCH  19  20
HETATM   20  C11 UNL     1      20.035   3.347  52.131  1.00  0.00     0.134 C 
HETATM   21 CL1  UNL     1      21.479   4.301  52.332  1.00  0.00    -0.129 Cl
ENDBRANCH  19  20
ENDBRANCH   5  19
TORSDOF 6
ENDMDL
MODEL 3
REMARK VINA RESULT:      -6.4      3.406      7.425
REMARK  6 active torsions:
REMARK  status: ('A' for Active; 'I' for Inactive)
REMARK    1  A    between atoms: C2_2  and  C3_3 
REMARK    2  A    between atoms: C3_3  and  C4_4 
REMARK    3  A    between atoms: C4_4  and  N1_5 
REMARK       I    between atoms: N1_5  and  C5_6 
REMARK    4  A    between atoms: C5_6  and  C6_8 
REMARK    5  A    between atoms: N2_12  and  C10_13 
REMARK    6  A    between atoms: C10_13  and  C11_14 
ROOT
HETATM    1  C6  UNL     1      22.441  -0.600  53.897  1.00  0.00     0.031 C 
HETATM    2  C7  UNL     1      23.308  -1.083  54.763  1.00  0.00     0.018 C 
HETATM    3  C8  UNL     1      24.719  -0.826  54.932  1.00  0.00     0.018 C 
HETATM    4  C9  UNL     1      25.660  -0.117  54.331  1.00  0.00     0.085 C 
HETATM    5  N2  UNL     1      26.151   0.789  53.294  1.00  0.00    -0.387 N 
HETATM    6  C12 UNL     1      25.478   2.037  53.454  1.00  0.00     0.146 C 
HETATM    7  C13 UNL     1      24.461   2.411  52.432  1.00  0.00     0.123 C 
HETATM    8 CL2  UNL     1      23.927   4.101  52.919  1.00  0.00    -0.119 Cl
HETATM    9  C14 UNL     1      23.226   1.593  52.427  1.00  0.00    -0.004 C 
HETATM   10  C15 UNL     1      22.788   0.551  53.089  1.00  0.00     0.014 C 
ENDROOT
BRANCH   1  11
HETATM   11  C5  UNL     1      21.079  -1.109  53.996  1.00  0.00     0.251 C 
HETATM   12  N1  UNL     1      19.919  -0.646  53.337  1.00  0.00    -0.357 N 
HETATM   13  H10 UNL     1      20.039   0.162  52.692  1.00  0.00     0.162 HD
HETATM   14  O1  UNL     1      20.781  -2.076  54.728  1.00  0.00    -0.268 OA
BRANCH  12  15
HETATM   15  C4  UNL     1      18.619  -1.213  53.502  1.00  0.00     0.123 C 
BRANCH  15  16
HETATM   16  C3  UNL     1      17.576  -0.715  52.547  1.00  0.00     0.019 C 
BRANCH  16  17
HETATM   17  C2  UNL     1      18.318  -0.069  51.369  1.00  0.00    -0.003 C 
HETATM   18  C1  UNL     1      17.425  -0.010  50.137  1.00  0.00     0.005 C 
ENDBRANCH  16  17
ENDBRANCH  15  16
ENDBRANCH  12  15
ENDBRANCH   1  11
BRANCH   5  19
HETATM   19  C10 UNL     1      27.107   0.095  52.495  1.00  0.00     0.137 C 
BRANCH  19  20
HETATM   20  C11 UNL     1      28.080  -0.838  53.080  1.00  0.00     0.134 C 
HETATM   21 CL1  UNL     1      29.327  -0.223  54.130  1.00  0.00    -0.129 Cl
ENDBRANCH  19  20
ENDBRANCH   5  19
TORSDOF 6
ENDMDL
MODEL 4
REMARK VINA RESULT:      -6.4      1.621      1.822
REMARK  6 active torsions:
REMARK  status: ('A' for Active; 'I' for Inactive)
REMARK    1  A    between atoms: C2_2  and  C3_3 
REMARK    2  A    between atoms: C3_3  and  C4_4 
REMARK    3  A    between atoms: C4_4  and  N1_5 
REMARK       I    between atoms: N1_5  and  C5_6 
REMARK    4  A    between atoms: C5_6  and  C6_8 
REMARK    5  A    between atoms: N2_12  and  C10_13 
REMARK    6  A    between atoms: C10_13  and  C11_14 
ROOT
HETATM    1  C6  UNL     1      24.701   1.357  52.956  1.00  0.00     0.031 C 
HETATM    2  C7  UNL     1      24.697   2.669  53.072  1.00  0.00     0.018 C 
HETATM    3  C8  UNL     1      23.682   3.643  52.742  1.00  0.00     0.018 C 
HETATM    4  C9  UNL     1      22.477   3.650  52.198  1.00  0.00     0.085 C 
HETATM    5  N2  UNL     1      21.319   3.007  51.580  1.00  0.00    -0.387 N 
HETATM    6  C12 UNL     1      20.749   2.122  52.544  1.00  0.00     0.146 C 
HETATM    7  C13 UNL     1      20.907   0.658  52.317  1.00  0.00     0.123 C 
HETATM    8 CL2  UNL     1      19.950  -0.118  53.682  1.00  0.00    -0.119 Cl
HETATM    9  C14 UNL     1      22.286   0.134  52.453  1.00  0.00    -0.004 C 
HETATM   10  C15 UNL     1      23.467   0.648  52.690  1.00  0.00     0.014 C 
ENDROOT
BRANCH   1  11
HETATM   11  C5  UNL     1      25.924   0.678  53.365  1.00  0.00     0.251 C 
HETATM   12  N1  UNL     1      26.740   0.940  54.489  1.00  0.00    -0.357 N 
HETATM   13  H10 UNL     1      26.437   1.714  55.115  1.00  0.00     0.162 HD
HETATM   14  O1  UNL     1      26.409  -0.271  52.716  1.00  0.00    -0.268 OA
BRANCH  12  15
HETATM   15  C4  UNL     1      27.928   0.217  54.808  1.00  0.00     0.123 C 
BRANCH  15  16
HETATM   16  C3  UNL     1      29.213   0.908  54.464  1.00  0.00     0.019 C 
BRANCH  16  17
HETATM   17  C2  UNL     1      29.932   0.031  53.430  1.00  0.00    -0.003 C 
HETATM   18  C1  UNL     1      29.538  -1.430  53.597  1.00  0.00     0.005 C 
ENDBRANCH  16  17
ENDBRANCH  15  16
ENDBRANCH  12  15
ENDBRANCH   1  11
BRANCH   5  19
HETATM   19  C10 UNL     1      21.191   3.484  50.242  1.00  0.00     0.137 C 
BRANCH  19  20
HETATM   20  C11 UNL     1      22.003   4.597  49.731  1.00  0.00     0.134 C 
HETATM   21 CL1  UNL     1      23.395   4.253  48.741  1.00  0.00    -0.129 Cl
ENDBRANCH  19  20
ENDBRANCH   5  19
TORSDOF 6
ENDMDL
MODEL 5
REMARK VINA RESULT:      -6.3      1.774      3.379
REMARK  6 active torsions:
REMARK  status: ('A' for Active; 'I' for Inactive)
REMARK    1  A    between atoms: C2_2  and  C3_3 
REMARK    2  A    between atoms: C3_3  and  C4_4 
REMARK    3  A    between atoms: C4_4  and  N1_5 
REMARK       I    between atoms: N1_5  and  C5_6 
REMARK    4  A    between atoms: C5_6  and  C6_8 
REMARK    5  A    between atoms: N2_12  and  C10_13 
REMARK    6  A    between atoms: C10_13  and  C11_14 
ROOT
HETATM    1  C6  UNL     1      24.660   0.731  53.401  1.00  0.00     0.031 C 
HETATM    2  C7  UNL     1      24.070  -0.438  53.538  1.00  0.00     0.018 C 
HETATM    3  C8  UNL     1      22.791  -0.913  53.061  1.00  0.00     0.018 C 
HETATM    4  C9  UNL     1      21.753  -0.425  52.402  1.00  0.00     0.085 C 
HETATM    5  N2  UNL     1      21.023   0.641  51.720  1.00  0.00    -0.387 N 
HETATM    6  C12 UNL     1      21.781   1.020  50.572  1.00  0.00     0.146 C 
HETATM    7  C13 UNL     1      22.462   2.345  50.598  1.00  0.00     0.123 C 
HETATM    8 CL2  UNL     1      23.209   2.504  48.926  1.00  0.00    -0.119 Cl
HETATM    9  C14 UNL     1      23.591   2.466  51.549  1.00  0.00    -0.004 C 
HETATM   10  C15 UNL     1      24.150   1.693  52.446  1.00  0.00     0.014 C 
ENDROOT
BRANCH   1  11
HETATM   11  C5  UNL     1      25.959   0.876  54.046  1.00  0.00     0.251 C 
HETATM   12  N1  UNL     1      26.851  -0.137  54.461  1.00  0.00    -0.357 N 
HETATM   13  H10 UNL     1      26.555  -1.120  54.287  1.00  0.00     0.162 HD
HETATM   14  O1  UNL     1      26.448   1.993  54.316  1.00  0.00    -0.268 OA
BRANCH  12  15
HETATM   15  C4  UNL     1      28.109   0.105  55.090  1.00  0.00     0.123 C 
BRANCH  15  16
HETATM   16  C3  UNL     1      29.304   0.025  54.189  1.00  0.00     0.019 C 
BRANCH  16  17
HETATM   17  C2  UNL     1      28.956  -0.965  53.069  1.00  0.00    -0.003 C 
HETATM   18  C1  UNL     1      29.494  -2.352  53.391  1.00  0.00     0.005 C 
ENDBRANCH  16  17
ENDBRANCH  15  16
ENDBRANCH  12  15
ENDBRANCH   1  11
BRANCH   5  19
HETATM   19  C10 UNL     1      19.835   0.925  52.456  1.00  0.00     0.137 C 
BRANCH  19  20
HETATM   20  C11 UNL     1      18.607   0.135  52.287  1.00  0.00     0.134 C 
HETATM   21 CL1  UNL     1      18.369  -1.290  53.260  1.00  0.00    -0.129 Cl
ENDBRANCH  19  20
ENDBRANCH   5  19
TORSDOF 6
ENDMDL
MODEL 6
REMARK VINA RESULT:      -6.3      4.071      7.817
REMARK  6 active torsions:
REMARK  status: ('A' for Active; 'I' for Inactive)
REMARK    1  A    between atoms: C2_2  and  C3_3 
REMARK    2  A    between atoms: C3_3  and  C4_4 
REMARK    3  A    between atoms: C4_4  and  N1_5 
REMARK       I    between atoms: N1_5  and  C5_6 
REMARK    4  A    between atoms: C5_6  and  C6_8 
REMARK    5  A    between atoms: N2_12  and  C10_13 
REMARK    6  A    between atoms: C10_13  and  C11_14 
ROOT
HETATM    1  C6  UNL     1      21.124  -0.425  53.310  1.00  0.00     0.031 C 
HETATM    2  C7  UNL     1      21.588  -1.013  54.393  1.00  0.00     0.018 C 
HETATM    3  C8  UNL     1      22.936  -1.135  54.900  1.00  0.00     0.018 C 
HETATM    4  C9  UNL     1      24.155  -0.795  54.518  1.00  0.00     0.085 C 
HETATM    5  N2  UNL     1      25.115  -0.199  53.591  1.00  0.00    -0.387 N 
HETATM    6  C12 UNL     1      24.827   1.196  53.505  1.00  0.00     0.146 C 
HETATM    7  C13 UNL     1      24.226   1.702  52.239  1.00  0.00     0.123 C 
HETATM    8 CL2  UNL     1      24.126   3.522  52.480  1.00  0.00    -0.119 Cl
HETATM    9  C14 UNL     1      22.838   1.262  51.968  1.00  0.00    -0.004 C 
HETATM   10  C15 UNL     1      21.972   0.474  52.554  1.00  0.00     0.014 C 
ENDROOT
BRANCH   1  11
HETATM   11  C5  UNL     1      19.687  -0.521  53.090  1.00  0.00     0.251 C 
HETATM   12  N1  UNL     1      18.751  -1.345  53.753  1.00  0.00    -0.357 N 
HETATM   13  H10 UNL     1      19.123  -1.967  54.501  1.00  0.00     0.162 HD
HETATM   14  O1  UNL     1      19.097   0.164  52.229  1.00  0.00    -0.268 OA
BRANCH  12  15
HETATM   15  C4  UNL     1      17.354  -1.371  53.464  1.00  0.00     0.123 C 
BRANCH  15  16
HETATM   16  C3  UNL     1      16.850  -2.636  52.837  1.00  0.00     0.019 C 
BRANCH  16  17
HETATM   17  C2  UNL     1      17.443  -3.802  53.641  1.00  0.00    -0.003 C 
HETATM   18  C1  UNL     1      16.354  -4.786  54.044  1.00  0.00     0.005 C 
ENDBRANCH  16  17
ENDBRANCH  15  16
ENDBRANCH  12  15
ENDBRANCH   1  11
BRANCH   5  19
HETATM   19  C10 UNL     1      25.975  -1.225  53.100  1.00  0.00     0.137 C 
BRANCH  19  20
HETATM   20  C11 UNL     1      27.373  -0.961  52.732  1.00  0.00     0.134 C 
HETATM   21 CL1  UNL     1      28.592  -2.150  53.104  1.00  0.00    -0.129 Cl
ENDBRANCH  19  20
ENDBRANCH   5  19
TORSDOF 6
ENDMDL
MODEL 7
REMARK VINA RESULT:      -6.1      3.702      5.952
REMARK  6 active torsions:
REMARK  status: ('A' for Active; 'I' for Inactive)
REMARK    1  A    between atoms: C2_2  and  C3_3 
REMARK    2  A    between atoms: C3_3  and  C4_4 
REMARK    3  A    between atoms: C4_4  and  N1_5 
REMARK       I    between atoms: N1_5  and  C5_6 
REMARK    4  A    between atoms: C5_6  and  C6_8 
REMARK    5  A    between atoms: N2_12  and  C10_13 
REMARK    6  A    between atoms: C10_13  and  C11_14 
ROOT
HETATM    1  C6  UNL     1      25.036   3.072  51.419  1.00  0.00     0.031 C 
HETATM    2  C7  UNL     1      26.209   2.592  51.060  1.00  0.00     0.018 C 
HETATM    3  C8  UNL     1      26.963   1.467  51.561  1.00  0.00     0.018 C 
HETATM    4  C9  UNL     1      26.847   0.563  52.519  1.00  0.00     0.085 C 
HETATM    5  N2  UNL     1      26.164  -0.058  53.652  1.00  0.00    -0.387 N 
HETATM    6  C12 UNL     1      24.918  -0.569  53.181  1.00  0.00     0.146 C 
HETATM    7  C13 UNL     1      23.675   0.132  53.610  1.00  0.00     0.123 C 
HETATM    8 CL2  UNL     1      22.314  -0.884  52.908  1.00  0.00    -0.119 Cl
HETATM    9  C14 UNL     1      23.482   1.491  53.053  1.00  0.00    -0.004 C 
HETATM   10  C15 UNL     1      24.167   2.295  52.278  1.00  0.00     0.014 C 
ENDROOT
BRANCH   1  11
HETATM   11  C5  UNL     1      24.580   4.258  50.706  1.00  0.00     0.251 C 
HETATM   12  N1  UNL     1      24.877   4.658  49.384  1.00  0.00    -0.357 N 
HETATM   13  H10 UNL     1      25.501   4.030  48.836  1.00  0.00     0.162 HD
HETATM   14  O1  UNL     1      23.825   5.103  51.233  1.00  0.00    -0.268 OA
BRANCH  12  15
HETATM   15  C4  UNL     1      24.380   5.846  48.771  1.00  0.00     0.123 C 
BRANCH  15  16
HETATM   16  C3  UNL     1      25.424   6.767  48.214  1.00  0.00     0.019 C 
BRANCH  16  17
HETATM   17  C2  UNL     1      26.790   6.178  48.595  1.00  0.00    -0.003 C 
HETATM   18  C1  UNL     1      27.916   6.957  47.928  1.00  0.00     0.005 C 
ENDBRANCH  16  17
ENDBRANCH  15  16
ENDBRANCH  12  15
ENDBRANCH   1  11
BRANCH   5  19
HETATM   19  C10 UNL     1      26.980   0.087  54.813  1.00  0.00     0.137 C 
BRANCH  19  20
HETATM   20  C11 UNL     1      28.444   0.191  54.728  1.00  0.00     0.134 C 
HETATM   21 CL1  UNL     1      29.339  -1.043  53.885  1.00  0.00    -0.129 Cl
ENDBRANCH  19  20
ENDBRANCH   5  19
TORSDOF 6
ENDMDL
MODEL 8
REMARK VINA RESULT:      -5.9      2.298      3.336
REMARK  6 active torsions:
REMARK  status: ('A' for Active; 'I' for Inactive)
REMARK    1  A    between atoms: C2_2  and  C3_3 
REMARK    2  A    between atoms: C3_3  and  C4_4 
REMARK    3  A    between atoms: C4_4  and  N1_5 
REMARK       I    between atoms: N1_5  and  C5_6 
REMARK    4  A    between atoms: C5_6  and  C6_8 
REMARK    5  A    between atoms: N2_12  and  C10_13 
REMARK    6  A    between atoms: C10_13  and  C11_14 
ROOT
HETATM    1  C6  UNL     1      24.637   1.970  53.097  1.00  0.00     0.031 C 
HETATM    2  C7  UNL     1      24.139   0.997  52.364  1.00  0.00     0.018 C 
HETATM    3  C8  UNL     1      22.926   0.929  51.582  1.00  0.00     0.018 C 
HETATM    4  C9  UNL     1      21.883   1.702  51.330  1.00  0.00     0.085 C 
HETATM    5  N2  UNL     1      21.100   2.927  51.476  1.00  0.00    -0.387 N 
HETATM    6  C12 UNL     1      21.875   4.003  50.949  1.00  0.00     0.146 C 
HETATM    7  C13 UNL     1      22.445   4.984  51.914  1.00  0.00     0.123 C 
HETATM    8 CL2  UNL     1      23.252   6.250  50.853  1.00  0.00    -0.119 Cl
HETATM    9  C14 UNL     1      23.516   4.468  52.797  1.00  0.00    -0.004 C 
HETATM   10  C15 UNL     1      24.095   3.309  52.992  1.00  0.00     0.014 C 
ENDROOT
BRANCH   1  11
HETATM   11  C5  UNL     1      25.889   1.682  53.785  1.00  0.00     0.251 C 
HETATM   12  N1  UNL     1      26.384   0.433  54.221  1.00  0.00    -0.357 N 
HETATM   13  H10 UNL     1      25.788  -0.398  54.029  1.00  0.00     0.162 HD
HETATM   14  O1  UNL     1      26.709   2.577  54.081  1.00  0.00    -0.268 OA
BRANCH  12  15
HETATM   15  C4  UNL     1      27.630   0.250  54.892  1.00  0.00     0.123 C 
BRANCH  15  16
HETATM   16  C3  UNL     1      28.779  -0.153  54.017  1.00  0.00     0.019 C 
BRANCH  16  17
HETATM   17  C2  UNL     1      28.257  -1.233  53.060  1.00  0.00    -0.003 C 
HETATM   18  C1  UNL     1      29.075  -2.510  53.193  1.00  0.00     0.005 C 
ENDBRANCH  16  17
ENDBRANCH  15  16
ENDBRANCH  12  15
ENDBRANCH   1  11
BRANCH   5  19
HETATM   19  C10 UNL     1      19.860   2.606  52.104  1.00  0.00     0.137 C 
BRANCH  19  20
HETATM   20  C11 UNL     1      19.146   1.353  51.822  1.00  0.00     0.134 C 
HETATM   21 CL1  UNL     1      18.594   1.032  50.201  1.00  0.00    -0.129 Cl
ENDBRANCH  19  20
ENDBRANCH   5  19
TORSDOF 6
ENDMDL
MODEL 9
REMARK VINA RESULT:      -5.6      4.246      5.249
REMARK  6 active torsions:
REMARK  status: ('A' for Active; 'I' for Inactive)
REMARK    1  A    between atoms: C2_2  and  C3_3 
REMARK    2  A    between atoms: C3_3  and  C4_4 
REMARK    3  A    between atoms: C4_4  and  N1_5 
REMARK       I    between atoms: N1_5  and  C5_6 
REMARK    4  A    between atoms: C5_6  and  C6_8 
REMARK    5  A    between atoms: N2_12  and  C10_13 
REMARK    6  A    between atoms: C10_13  and  C11_14 
ROOT
HETATM    1  C6  UNL     1      25.517   4.124  50.241  1.00  0.00     0.031 C 
HETATM    2  C7  UNL     1      24.379   4.600  50.702  1.00  0.00     0.018 C 
HETATM    3  C8  UNL     1      23.379   3.998  51.553  1.00  0.00     0.018 C 
HETATM    4  C9  UNL     1      23.166   2.829  52.132  1.00  0.00     0.085 C 
HETATM    5  N2  UNL     1      23.510   1.442  52.440  1.00  0.00    -0.387 N 
HETATM    6  C12 UNL     1      24.732   1.451  53.176  1.00  0.00     0.146 C 
HETATM    7  C13 UNL     1      25.958   0.955  52.490  1.00  0.00     0.123 C 
HETATM    8 CL2  UNL     1      27.260   1.014  53.786  1.00  0.00    -0.119 Cl
HETATM    9  C14 UNL     1      26.461   1.803  51.385  1.00  0.00    -0.004 C 
HETATM   10  C15 UNL     1      26.072   2.906  50.795  1.00  0.00     0.014 C 
ENDROOT
BRANCH   1  11
HETATM   11  C5  UNL     1      26.279   5.008  49.369  1.00  0.00     0.251 C 
HETATM   12  N1  UNL     1      27.672   5.022  49.134  1.00  0.00    -0.357 N 
HETATM   13  H10 UNL     1      28.239   4.312  49.641  1.00  0.00     0.162 HD
HETATM   14  O1  UNL     1      25.738   5.908  48.694  1.00  0.00    -0.268 OA
BRANCH  12  15
HETATM   15  C4  UNL     1      28.332   5.935  48.257  1.00  0.00     0.123 C 
BRANCH  15  16
HETATM   16  C3  UNL     1      29.811   5.736  48.115  1.00  0.00     0.019 C 
BRANCH  16  17
HETATM   17  C2  UNL     1      30.370   6.996  47.441  1.00  0.00    -0.003 C 
HETATM   18  C1  UNL     1      29.279   7.719  46.664  1.00  0.00     0.005 C 
ENDBRANCH  16  17
ENDBRANCH  15  16
ENDBRANCH  12  15
ENDBRANCH   1  11
BRANCH   5  19
HETATM   19  C10 UNL     1      22.513   0.589  51.882  1.00  0.00     0.137 C 
BRANCH  19  20
HETATM   20  C11 UNL     1      21.569  -0.161  52.722  1.00  0.00     0.134 C 
HETATM   21 CL1  UNL     1      21.545   0.124  54.441  1.00  0.00    -0.129 Cl
ENDBRANCH  19  20
ENDBRANCH   5  19
TORSDOF 6
ENDMDL
