MODEL 1
REMARK VINA RESULT:      -7.3      0.000      0.000
REMARK  7 active torsions:
REMARK  status: ('A' for Active; 'I' for Inactive)
REMARK    1  A    between atoms: N1_2  and  C3_4 
REMARK    2  A    between atoms: C3_4  and  C4_5 
REMARK    3  A    between atoms: C4_5  and  C5_6 
REMARK    4  A    between atoms: C5_6  and  O1_7 
REMARK    5  A    between atoms: O1_7  and  C6_8 
REMARK    6  A    between atoms: C11_14  and  C12_15 
REMARK    7  A    between atoms: C13_16  and  C14_18 
ROOT
HETATM    1  C6  UNL     1      20.516  -0.078  53.738  1.00  0.00     0.046 C 
HETATM    2  C7  UNL     1      21.137  -1.200  54.156  1.00  0.00     0.033 C 
HETATM    3  C8  UNL     1      22.556  -1.386  54.540  1.00  0.00     0.020 C 
HETATM    4  C9  UNL     1      23.695  -0.815  54.105  1.00  0.00     0.100 C 
HETATM    5  N2  UNL     1      23.969   0.169  53.124  1.00  0.00    -0.294 N 
HETATM    6  C10 UNL     1      25.337   0.050  52.901  1.00  0.00     0.136 A 
HETATM    7  C11 UNL     1      26.076  -0.846  53.516  1.00  0.00     0.054 C 
HETATM    8  N3  UNL     1      25.941   0.921  51.960  1.00  0.00    -0.224 NA
HETATM    9  C15 UNL     1      25.202   1.777  51.357  1.00  0.00     0.237 A 
HETATM   10  N4  UNL     1      23.813   1.865  51.612  1.00  0.00    -0.228 NA
HETATM   11  C16 UNL     1      23.165   1.123  52.447  1.00  0.00     0.113 A 
HETATM   12  C17 UNL     1      21.789   1.585  52.349  1.00  0.00     0.085 C 
HETATM   13  C18 UNL     1      20.879   1.330  53.486  1.00  0.00     0.072 C 
ENDROOT
BRANCH   1  14
HETATM   14  O1  UNL     1      19.170  -0.375  53.489  1.00  0.00    -0.355 OA
BRANCH  14  15
HETATM   15  C5  UNL     1      18.754  -1.711  53.616  1.00  0.00     0.177 C 
BRANCH  15  16
HETATM   16  C4  UNL     1      17.354  -1.913  53.063  1.00  0.00     0.057 C 
BRANCH  16  17
HETATM   17  C3  UNL     1      16.805  -0.608  52.547  1.00  0.00     0.273 C 
BRANCH  17  18
HETATM   18  N1  UNL     1      15.424  -0.387  52.871  1.00  0.00     0.080 N 
HETATM   19  C1  UNL     1      14.948   0.941  52.645  1.00  0.00     0.309 C 
HETATM   20  C2  UNL     1      14.575  -1.367  52.224  1.00  0.00     0.309 C 
ENDBRANCH  17  18
ENDBRANCH  16  17
ENDBRANCH  15  16
ENDBRANCH  14  15
ENDBRANCH   1  14
BRANCH   7  21
HETATM   21  C12 UNL     1      27.521  -0.867  53.189  1.00  0.00     0.042 C 
HETATM   22  C13 UNL     1      28.624  -0.243  53.549  1.00  0.00     0.107 C 
HETATM   23  F1  UNL     1      29.887  -0.409  53.121  1.00  0.00    -0.210 F 
BRANCH  22  24
HETATM   24  C14 UNL     1      28.705   0.838  54.568  1.00  0.00     0.184 C 
HETATM   25 CL1  UNL     1      28.682   2.429  53.728  1.00  0.00    -0.123 Cl
ENDBRANCH  22  24
ENDBRANCH   7  21
TORSDOF 7
ENDMDL
MODEL 2
REMARK VINA RESULT:      -7.3      2.408      3.481
REMARK  7 active torsions:
REMARK  status: ('A' for Active; 'I' for Inactive)
REMARK    1  A    between atoms: N1_2  and  C3_4 
REMARK    2  A    between atoms: C3_4  and  C4_5 
REMARK    3  A    between atoms: C4_5  and  C5_6 
REMARK    4  A    between atoms: C5_6  and  O1_7 
REMARK    5  A    between atoms: O1_7  and  C6_8 
REMARK    6  A    between atoms: C11_14  and  C12_15 
REMARK    7  A    between atoms: C13_16  and  C14_18 
ROOT
HETATM    1  C6  UNL     1      20.940   1.911  52.448  1.00  0.00     0.046 C 
HETATM    2  C7  UNL     1      21.980   2.509  51.833  1.00  0.00     0.033 C 
HETATM    3  C8  UNL     1      23.297   1.934  51.468  1.00  0.00     0.020 C 
HETATM    4  C9  UNL     1      24.070   0.998  52.049  1.00  0.00     0.100 C 
HETATM    5  N2  UNL     1      23.921   0.212  53.218  1.00  0.00    -0.294 N 
HETATM    6  C10 UNL     1      25.201  -0.277  53.459  1.00  0.00     0.136 A 
HETATM    7  C11 UNL     1      26.229   0.033  52.701  1.00  0.00     0.054 C 
HETATM    8  N3  UNL     1      25.394  -1.126  54.577  1.00  0.00    -0.224 NA
HETATM    9  C15 UNL     1      24.385  -1.404  55.316  1.00  0.00     0.237 A 
HETATM   10  N4  UNL     1      23.099  -0.884  55.036  1.00  0.00    -0.228 NA
HETATM   11  C16 UNL     1      22.813  -0.106  54.047  1.00  0.00     0.113 A 
HETATM   12  C17 UNL     1      21.390   0.154  54.189  1.00  0.00     0.085 C 
HETATM   13  C18 UNL     1      20.628   0.575  52.994  1.00  0.00     0.072 C 
ENDROOT
BRANCH   1  14
HETATM   14  O1  UNL     1      19.903   2.841  52.586  1.00  0.00    -0.355 OA
BRANCH  14  15
HETATM   15  C5  UNL     1      19.883   3.941  51.713  1.00  0.00     0.177 C 
BRANCH  15  16
HETATM   16  C4  UNL     1      18.681   3.894  50.786  1.00  0.00     0.057 C 
BRANCH  16  17
HETATM   17  C3  UNL     1      17.482   3.344  51.515  1.00  0.00     0.273 C 
BRANCH  17  18
HETATM   18  N1  UNL     1      16.348   4.225  51.521  1.00  0.00     0.080 N 
HETATM   19  C1  UNL     1      15.497   4.132  50.377  1.00  0.00     0.309 C 
HETATM   20  C2  UNL     1      15.593   4.091  52.751  1.00  0.00     0.309 C 
ENDBRANCH  17  18
ENDBRANCH  16  17
ENDBRANCH  15  16
ENDBRANCH  14  15
ENDBRANCH   1  14
BRANCH   7  21
HETATM   21  C12 UNL     1      27.538  -0.556  53.066  1.00  0.00     0.042 C 
HETATM   22  C13 UNL     1      28.574  -0.266  53.825  1.00  0.00     0.107 C 
HETATM   23  F1  UNL     1      29.711  -0.953  54.032  1.00  0.00    -0.210 F 
BRANCH  22  24
HETATM   24  C14 UNL     1      28.707   0.953  54.667  1.00  0.00     0.184 C 
HETATM   25 CL1  UNL     1      28.762   2.396  53.594  1.00  0.00    -0.123 Cl
ENDBRANCH  22  24
ENDBRANCH   7  21
TORSDOF 7
ENDMDL
MODEL 3
REMARK VINA RESULT:      -7.1      2.907      3.807
REMARK  7 active torsions:
REMARK  status: ('A' for Active; 'I' for Inactive)
REMARK    1  A    between atoms: N1_2  and  C3_4 
REMARK    2  A    between atoms: C3_4  and  C4_5 
REMARK    3  A    between atoms: C4_5  and  C5_6 
REMARK    4  A    between atoms: C5_6  and  O1_7 
REMARK    5  A    between atoms: O1_7  and  C6_8 
REMARK    6  A    between atoms: C11_14  and  C12_15 
REMARK    7  A    between atoms: C13_16  and  C14_18 
ROOT
HETATM    1  C6  UNL     1      21.011   1.750  52.274  1.00  0.00     0.046 C 
HETATM    2  C7  UNL     1      21.227   0.467  52.629  1.00  0.00     0.033 C 
HETATM    3  C8  UNL     1      22.444  -0.139  53.221  1.00  0.00     0.020 C 
HETATM    4  C9  UNL     1      23.754   0.131  53.074  1.00  0.00     0.100 C 
HETATM    5  N2  UNL     1      24.463   1.085  52.305  1.00  0.00    -0.294 N 
HETATM    6  C10 UNL     1      25.772   0.613  52.305  1.00  0.00     0.136 A 
HETATM    7  C11 UNL     1      26.117  -0.505  52.904  1.00  0.00     0.054 C 
HETATM    8  N3  UNL     1      26.756   1.364  51.616  1.00  0.00    -0.224 NA
HETATM    9  C15 UNL     1      26.399   2.442  51.023  1.00  0.00     0.237 A 
HETATM   10  N4  UNL     1      25.056   2.888  51.045  1.00  0.00    -0.228 NA
HETATM   11  C16 UNL     1      24.084   2.282  51.642  1.00  0.00     0.113 A 
HETATM   12  C17 UNL     1      22.921   3.114  51.376  1.00  0.00     0.085 C 
HETATM   13  C18 UNL     1      21.764   3.019  52.291  1.00  0.00     0.072 C 
ENDROOT
BRANCH   1  14
HETATM   14  O1  UNL     1      19.714   1.861  51.758  1.00  0.00    -0.355 OA
BRANCH  14  15
HETATM   15  C5  UNL     1      19.465   2.867  50.810  1.00  0.00     0.177 C 
BRANCH  15  16
HETATM   16  C4  UNL     1      18.875   2.295  49.533  1.00  0.00     0.057 C 
BRANCH  16  17
HETATM   17  C3  UNL     1      19.732   2.667  48.351  1.00  0.00     0.273 C 
BRANCH  17  18
HETATM   18  N1  UNL     1      21.137   2.455  48.559  1.00  0.00     0.080 N 
HETATM   19  C1  UNL     1      21.551   1.088  48.585  1.00  0.00     0.309 C 
HETATM   20  C2  UNL     1      21.923   3.225  47.618  1.00  0.00     0.309 C 
ENDBRANCH  17  18
ENDBRANCH  16  17
ENDBRANCH  15  16
ENDBRANCH  14  15
ENDBRANCH   1  14
BRANCH   7  21
HETATM   21  C12 UNL     1      27.545  -0.896  52.831  1.00  0.00     0.042 C 
HETATM   22  C13 UNL     1      28.664  -0.674  53.489  1.00  0.00     0.107 C 
HETATM   23  F1  UNL     1      29.905  -1.136  53.259  1.00  0.00    -0.210 F 
BRANCH  22  24
HETATM   24  C14 UNL     1      28.793   0.182  54.700  1.00  0.00     0.184 C 
HETATM   25 CL1  UNL     1      29.091   1.878  54.180  1.00  0.00    -0.123 Cl
ENDBRANCH  22  24
ENDBRANCH   7  21
TORSDOF 7
ENDMDL
MODEL 4
REMARK VINA RESULT:      -7.0      5.794     10.166
REMARK  7 active torsions:
REMARK  status: ('A' for Active; 'I' for Inactive)
REMARK    1  A    between atoms: N1_2  and  C3_4 
REMARK    2  A    between atoms: C3_4  and  C4_5 
REMARK    3  A    between atoms: C4_5  and  C5_6 
REMARK    4  A    between atoms: C5_6  and  O1_7 
REMARK    5  A    between atoms: O1_7  and  C6_8 
REMARK    6  A    between atoms: C11_14  and  C12_15 
REMARK    7  A    between atoms: C13_16  and  C14_18 
ROOT
HETATM    1  C6  UNL     1      26.613   5.962  48.676  1.00  0.00     0.046 C 
HETATM    2  C7  UNL     1      27.287   4.814  48.894  1.00  0.00     0.033 C 
HETATM    3  C8  UNL     1      26.757   3.490  49.298  1.00  0.00     0.020 C 
HETATM    4  C9  UNL     1      25.719   3.127  50.075  1.00  0.00     0.100 C 
HETATM    5  N2  UNL     1      24.747   3.865  50.794  1.00  0.00    -0.294 N 
HETATM    6  C10 UNL     1      24.198   2.934  51.669  1.00  0.00     0.136 A 
HETATM    7  C11 UNL     1      24.614   1.688  51.724  1.00  0.00     0.054 C 
HETATM    8  N3  UNL     1      23.166   3.360  52.541  1.00  0.00    -0.224 NA
HETATM    9  C15 UNL     1      22.785   4.583  52.487  1.00  0.00     0.237 A 
HETATM   10  N4  UNL     1      23.371   5.500  51.582  1.00  0.00    -0.228 NA
HETATM   11  C16 UNL     1      24.314   5.216  50.747  1.00  0.00     0.113 A 
HETATM   12  C17 UNL     1      24.574   6.469  50.056  1.00  0.00     0.085 C 
HETATM   13  C18 UNL     1      25.210   6.418  48.722  1.00  0.00     0.072 C 
ENDROOT
BRANCH   1  14
HETATM   14  O1  UNL     1      27.527   6.958  48.310  1.00  0.00    -0.355 OA
BRANCH  14  15
HETATM   15  C5  UNL     1      28.766   6.556  47.785  1.00  0.00     0.177 C 
BRANCH  15  16
HETATM   16  C4  UNL     1      29.385   7.645  46.926  1.00  0.00     0.057 C 
BRANCH  16  17
HETATM   17  C3  UNL     1      30.687   8.106  47.528  1.00  0.00     0.273 C 
BRANCH  17  18
HETATM   18  N1  UNL     1      30.658   8.230  48.958  1.00  0.00     0.080 N 
HETATM   19  C1  UNL     1      31.835   7.786  49.634  1.00  0.00     0.309 C 
HETATM   20  C2  UNL     1      30.300   9.577  49.354  1.00  0.00     0.309 C 
ENDBRANCH  17  18
ENDBRANCH  16  17
ENDBRANCH  15  16
ENDBRANCH  14  15
ENDBRANCH   1  14
BRANCH   7  21
HETATM   21  C12 UNL     1      23.943   0.796  52.699  1.00  0.00     0.042 C 
HETATM   22  C13 UNL     1      24.275  -0.067  53.638  1.00  0.00     0.107 C 
HETATM   23  F1  UNL     1      23.493  -0.805  54.445  1.00  0.00    -0.210 F 
BRANCH  22  24
HETATM   24  C14 UNL     1      25.667  -0.421  54.027  1.00  0.00     0.184 C 
HETATM   25 CL1  UNL     1      26.430  -1.335  52.678  1.00  0.00    -0.123 Cl
ENDBRANCH  22  24
ENDBRANCH   7  21
TORSDOF 7
ENDMDL
MODEL 5
REMARK VINA RESULT:      -7.0      4.689      8.911
REMARK  7 active torsions:
REMARK  status: ('A' for Active; 'I' for Inactive)
REMARK    1  A    between atoms: N1_2  and  C3_4 
REMARK    2  A    between atoms: C3_4  and  C4_5 
REMARK    3  A    between atoms: C4_5  and  C5_6 
REMARK    4  A    between atoms: C5_6  and  O1_7 
REMARK    5  A    between atoms: O1_7  and  C6_8 
REMARK    6  A    between atoms: C11_14  and  C12_15 
REMARK    7  A    between atoms: C13_16  and  C14_18 
ROOT
HETATM    1  C6  UNL     1      26.533   2.352  52.243  1.00  0.00     0.046 C 
HETATM    2  C7  UNL     1      26.265   2.698  50.967  1.00  0.00     0.033 C 
HETATM    3  C8  UNL     1      24.956   3.016  50.348  1.00  0.00     0.020 C 
HETATM    4  C9  UNL     1      23.710   2.560  50.576  1.00  0.00     0.100 C 
HETATM    5  N2  UNL     1      23.181   1.611  51.484  1.00  0.00    -0.294 N 
HETATM    6  C10 UNL     1      21.917   1.328  50.975  1.00  0.00     0.136 A 
HETATM    7  C11 UNL     1      21.464   1.875  49.869  1.00  0.00     0.054 C 
HETATM    8  N3  UNL     1      21.104   0.401  51.675  1.00  0.00    -0.224 NA
HETATM    9  C15 UNL     1      21.569  -0.135  52.742  1.00  0.00     0.237 A 
HETATM   10  N4  UNL     1      22.861   0.179  53.226  1.00  0.00    -0.228 NA
HETATM   11  C16 UNL     1      23.680   1.007  52.668  1.00  0.00     0.113 A 
HETATM   12  C17 UNL     1      24.857   0.984  53.522  1.00  0.00     0.085 C 
HETATM   13  C18 UNL     1      25.772   2.145  53.491  1.00  0.00     0.072 C 
ENDROOT
BRANCH   1  14
HETATM   14  O1  UNL     1      27.912   2.145  52.373  1.00  0.00    -0.355 OA
BRANCH  14  15
HETATM   15  C5  UNL     1      28.522   2.504  53.585  1.00  0.00     0.177 C 
BRANCH  15  16
HETATM   16  C4  UNL     1      29.382   1.378  54.131  1.00  0.00     0.057 C 
BRANCH  16  17
HETATM   17  C3  UNL     1      28.511   0.271  54.668  1.00  0.00     0.273 C 
BRANCH  17  18
HETATM   18  N1  UNL     1      28.643  -0.971  53.959  1.00  0.00     0.080 N 
HETATM   19  C1  UNL     1      27.630  -1.228  52.985  1.00  0.00     0.309 C 
HETATM   20  C2  UNL     1      29.968  -1.104  53.388  1.00  0.00     0.309 C 
ENDBRANCH  17  18
ENDBRANCH  16  17
ENDBRANCH  15  16
ENDBRANCH  14  15
ENDBRANCH   1  14
BRANCH   7  21
HETATM   21  C12 UNL     1      20.100   1.490  49.436  1.00  0.00     0.042 C 
HETATM   22  C13 UNL     1      18.892   2.014  49.397  1.00  0.00     0.107 C 
HETATM   23  F1  UNL     1      17.738   1.487  48.952  1.00  0.00    -0.210 F 
BRANCH  22  24
HETATM   24  C14 UNL     1      18.534   3.382  49.859  1.00  0.00     0.184 C 
HETATM   25 CL1  UNL     1      18.722   3.457  51.647  1.00  0.00    -0.123 Cl
ENDBRANCH  22  24
ENDBRANCH   7  21
TORSDOF 7
ENDMDL
MODEL 6
REMARK VINA RESULT:      -6.9      5.624      9.593
REMARK  7 active torsions:
REMARK  status: ('A' for Active; 'I' for Inactive)
REMARK    1  A    between atoms: N1_2  and  C3_4 
REMARK    2  A    between atoms: C3_4  and  C4_5 
REMARK    3  A    between atoms: C4_5  and  C5_6 
REMARK    4  A    between atoms: C5_6  and  O1_7 
REMARK    5  A    between atoms: O1_7  and  C6_8 
REMARK    6  A    between atoms: C11_14  and  C12_15 
REMARK    7  A    between atoms: C13_16  and  C14_18 
ROOT
HETATM    1  C6  UNL     1      25.664   6.510  48.585  1.00  0.00     0.046 C 
HETATM    2  C7  UNL     1      26.876   5.920  48.637  1.00  0.00     0.033 C 
HETATM    3  C8  UNL     1      27.208   4.509  48.942  1.00  0.00     0.020 C 
HETATM    4  C9  UNL     1      26.637   3.597  49.750  1.00  0.00     0.100 C 
HETATM    5  N2  UNL     1      25.512   3.638  50.609  1.00  0.00    -0.294 N 
HETATM    6  C10 UNL     1      25.668   2.520  51.422  1.00  0.00     0.136 A 
HETATM    7  C11 UNL     1      26.700   1.713  51.320  1.00  0.00     0.054 C 
HETATM    8  N3  UNL     1      24.680   2.263  52.405  1.00  0.00    -0.224 NA
HETATM    9  C15 UNL     1      23.690   3.070  52.503  1.00  0.00     0.237 A 
HETATM   10  N4  UNL     1      23.569   4.198  51.656  1.00  0.00    -0.228 NA
HETATM   11  C16 UNL     1      24.408   4.523  50.731  1.00  0.00     0.113 A 
HETATM   12  C17 UNL     1      23.858   5.739  50.154  1.00  0.00     0.085 C 
HETATM   13  C18 UNL     1      24.257   6.109  48.779  1.00  0.00     0.072 C 
ENDROOT
BRANCH   1  14
HETATM   14  O1  UNL     1      25.834   7.861  48.258  1.00  0.00    -0.355 OA
BRANCH  14  15
HETATM   15  C5  UNL     1      25.761   8.806  49.295  1.00  0.00     0.177 C 
BRANCH  15  16
HETATM   16  C4  UNL     1      26.784   9.912  49.112  1.00  0.00     0.057 C 
BRANCH  16  17
HETATM   17  C3  UNL     1      28.110   9.499  49.698  1.00  0.00     0.273 C 
BRANCH  17  18
HETATM   18  N1  UNL     1      29.231   9.740  48.833  1.00  0.00     0.080 N 
HETATM   19  C1  UNL     1      30.512   9.667  49.460  1.00  0.00     0.309 C 
HETATM   20  C2  UNL     1      29.171   8.894  47.658  1.00  0.00     0.309 C 
ENDBRANCH  17  18
ENDBRANCH  16  17
ENDBRANCH  15  16
ENDBRANCH  14  15
ENDBRANCH   1  14
BRANCH   7  21
HETATM   21  C12 UNL     1      26.747   0.557  52.245  1.00  0.00     0.042 C 
HETATM   22  C13 UNL     1      27.525   0.085  53.197  1.00  0.00     0.107 C 
HETATM   23  F1  UNL     1      27.393  -1.022  53.949  1.00  0.00    -0.210 F 
BRANCH  22  24
HETATM   24  C14 UNL     1      28.785   0.719  53.670  1.00  0.00     0.184 C 
HETATM   25 CL1  UNL     1      30.131  -0.461  53.490  1.00  0.00    -0.123 Cl
ENDBRANCH  22  24
ENDBRANCH   7  21
TORSDOF 7
ENDMDL
MODEL 7
REMARK VINA RESULT:      -6.9      3.178      4.427
REMARK  7 active torsions:
REMARK  status: ('A' for Active; 'I' for Inactive)
REMARK    1  A    between atoms: N1_2  and  C3_4 
REMARK    2  A    between atoms: C3_4  and  C4_5 
REMARK    3  A    between atoms: C4_5  and  C5_6 
REMARK    4  A    between atoms: C5_6  and  O1_7 
REMARK    5  A    between atoms: O1_7  and  C6_8 
REMARK    6  A    between atoms: C11_14  and  C12_15 
REMARK    7  A    between atoms: C13_16  and  C14_18 
ROOT
HETATM    1  C6  UNL     1      21.777   0.950  52.601  1.00  0.00     0.046 C 
HETATM    2  C7  UNL     1      21.526   1.925  51.704  1.00  0.00     0.033 C 
HETATM    3  C8  UNL     1      22.376   2.397  50.585  1.00  0.00     0.020 C 
HETATM    4  C9  UNL     1      23.711   2.485  50.435  1.00  0.00     0.100 C 
HETATM    5  N2  UNL     1      24.801   2.164  51.281  1.00  0.00    -0.294 N 
HETATM    6  C10 UNL     1      25.882   2.820  50.700  1.00  0.00     0.136 A 
HETATM    7  C11 UNL     1      25.759   3.563  49.622  1.00  0.00     0.054 C 
HETATM    8  N3  UNL     1      27.153   2.689  51.312  1.00  0.00    -0.224 NA
HETATM    9  C15 UNL     1      27.251   1.976  52.372  1.00  0.00     0.237 A 
HETATM   10  N4  UNL     1      26.126   1.326  52.933  1.00  0.00    -0.228 NA
HETATM   11  C16 UNL     1      24.927   1.378  52.456  1.00  0.00     0.113 A 
HETATM   12  C17 UNL     1      24.138   0.568  53.371  1.00  0.00     0.085 C 
HETATM   13  C18 UNL     1      22.866  -0.006  52.885  1.00  0.00     0.072 C 
ENDROOT
BRANCH   1  14
HETATM   14  O1  UNL     1      20.687   0.852  53.475  1.00  0.00    -0.355 OA
BRANCH  14  15
HETATM   15  C5  UNL     1      20.017  -0.380  53.561  1.00  0.00     0.177 C 
BRANCH  15  16
HETATM   16  C4  UNL     1      18.816  -0.425  52.633  1.00  0.00     0.057 C 
BRANCH  16  17
HETATM   17  C3  UNL     1      17.710  -1.239  53.253  1.00  0.00     0.273 C 
BRANCH  17  18
HETATM   18  N1  UNL     1      16.395  -0.875  52.802  1.00  0.00     0.080 N 
HETATM   19  C1  UNL     1      16.346   0.216  51.881  1.00  0.00     0.309 C 
HETATM   20  C2  UNL     1      15.685  -2.029  52.288  1.00  0.00     0.309 C 
ENDBRANCH  17  18
ENDBRANCH  16  17
ENDBRANCH  15  16
ENDBRANCH  14  15
ENDBRANCH   1  14
BRANCH   7  21
HETATM   21  C12 UNL     1      26.989   4.205  49.103  1.00  0.00     0.042 C 
HETATM   22  C13 UNL     1      27.393   5.399  48.722  1.00  0.00     0.107 C 
HETATM   23  F1  UNL     1      28.593   5.797  48.263  1.00  0.00    -0.210 F 
BRANCH  22  24
HETATM   24  C14 UNL     1      26.558   6.631  48.726  1.00  0.00     0.184 C 
HETATM   25 CL1  UNL     1      27.044   7.664  47.336  1.00  0.00    -0.123 Cl
ENDBRANCH  22  24
ENDBRANCH   7  21
TORSDOF 7
ENDMDL
MODEL 8
REMARK VINA RESULT:      -6.8      4.577      9.365
REMARK  7 active torsions:
REMARK  status: ('A' for Active; 'I' for Inactive)
REMARK    1  A    between atoms: N1_2  and  C3_4 
REMARK    2  A    between atoms: C3_4  and  C4_5 
REMARK    3  A    between atoms: C4_5  and  C5_6 
REMARK    4  A    between atoms: C5_6  and  O1_7 
REMARK    5  A    between atoms: O1_7  and  C6_8 
REMARK    6  A    between atoms: C11_14  and  C12_15 
REMARK    7  A    between atoms: C13_16  and  C14_18 
ROOT
HETATM    1  C6  UNL     1      23.153  -0.316  53.714  1.00  0.00     0.046 C 
HETATM    2  C7  UNL     1      23.042   0.507  52.652  1.00  0.00     0.033 C 
HETATM    3  C8  UNL     1      21.862   1.279  52.196  1.00  0.00     0.020 C 
HETATM    4  C9  UNL     1      20.540   1.030  52.247  1.00  0.00     0.100 C 
HETATM    5  N2  UNL     1      19.781  -0.055  52.751  1.00  0.00    -0.294 N 
HETATM    6  C10 UNL     1      18.525   0.120  52.180  1.00  0.00     0.136 A 
HETATM    7  C11 UNL     1      18.259   1.103  51.348  1.00  0.00     0.054 C 
HETATM    8  N3  UNL     1      17.508  -0.814  52.499  1.00  0.00    -0.224 NA
HETATM    9  C15 UNL     1      17.789  -1.776  53.296  1.00  0.00     0.237 A 
HETATM   10  N4  UNL     1      19.081  -1.919  53.856  1.00  0.00    -0.228 NA
HETATM   11  C16 UNL     1      20.076  -1.127  53.633  1.00  0.00     0.113 A 
HETATM   12  C17 UNL     1      21.167  -1.687  54.416  1.00  0.00     0.085 C 
HETATM   13  C18 UNL     1      22.282  -0.798  54.805  1.00  0.00     0.072 C 
ENDROOT
BRANCH   1  14
HETATM   14  O1  UNL     1      24.456  -0.826  53.755  1.00  0.00    -0.355 OA
BRANCH  14  15
HETATM   15  C5  UNL     1      25.458  -0.135  53.052  1.00  0.00     0.177 C 
BRANCH  15  16
HETATM   16  C4  UNL     1      26.844  -0.605  53.455  1.00  0.00     0.057 C 
BRANCH  16  17
HETATM   17  C3  UNL     1      27.364   0.226  54.599  1.00  0.00     0.273 C 
BRANCH  17  18
HETATM   18  N1  UNL     1      28.757   0.559  54.493  1.00  0.00     0.080 N 
HETATM   19  C1  UNL     1      29.562  -0.398  53.802  1.00  0.00     0.309 C 
HETATM   20  C2  UNL     1      28.932   1.888  53.944  1.00  0.00     0.309 C 
ENDBRANCH  17  18
ENDBRANCH  16  17
ENDBRANCH  15  16
ENDBRANCH  14  15
ENDBRANCH   1  14
BRANCH   7  21
HETATM   21  C12 UNL     1      16.880   1.177  50.811  1.00  0.00     0.042 C 
HETATM   22  C13 UNL     1      15.767   1.843  51.038  1.00  0.00     0.107 C 
HETATM   23  F1  UNL     1      14.575   1.766  50.420  1.00  0.00    -0.210 F 
BRANCH  22  24
HETATM   24  C14 UNL     1      15.588   2.886  52.084  1.00  0.00     0.184 C 
HETATM   25 CL1  UNL     1      16.540   4.340  51.621  1.00  0.00    -0.123 Cl
ENDBRANCH  22  24
ENDBRANCH   7  21
TORSDOF 7
ENDMDL
MODEL 9
REMARK VINA RESULT:      -6.7      4.981      8.120
REMARK  7 active torsions:
REMARK  status: ('A' for Active; 'I' for Inactive)
REMARK    1  A    between atoms: N1_2  and  C3_4 
REMARK    2  A    between atoms: C3_4  and  C4_5 
REMARK    3  A    between atoms: C4_5  and  C5_6 
REMARK    4  A    between atoms: C5_6  and  O1_7 
REMARK    5  A    between atoms: O1_7  and  C6_8 
REMARK    6  A    between atoms: C11_14  and  C12_15 
REMARK    7  A    between atoms: C13_16  and  C14_18 
ROOT
HETATM    1  C6  UNL     1      23.438   1.228  52.406  1.00  0.00     0.046 C 
HETATM    2  C7  UNL     1      24.148   2.120  53.126  1.00  0.00     0.033 C 
HETATM    3  C8  UNL     1      24.065   3.600  53.113  1.00  0.00     0.020 C 
HETATM    4  C9  UNL     1      23.785   4.483  52.136  1.00  0.00     0.100 C 
HETATM    5  N2  UNL     1      23.468   4.337  50.764  1.00  0.00    -0.294 N 
HETATM    6  C10 UNL     1      23.653   5.612  50.239  1.00  0.00     0.136 A 
HETATM    7  C11 UNL     1      24.065   6.623  50.971  1.00  0.00     0.054 C 
HETATM    8  N3  UNL     1      23.402   5.812  48.858  1.00  0.00    -0.224 NA
HETATM    9  C15 UNL     1      23.019   4.811  48.156  1.00  0.00     0.237 A 
HETATM   10  N4  UNL     1      22.843   3.529  48.729  1.00  0.00    -0.228 NA
HETATM   11  C16 UNL     1      23.042   3.239  49.971  1.00  0.00     0.113 A 
HETATM   12  C17 UNL     1      22.739   1.820  50.065  1.00  0.00     0.085 C 
HETATM   13  C18 UNL     1      22.372   1.265  51.385  1.00  0.00     0.072 C 
ENDROOT
BRANCH   1  14
HETATM   14  O1  UNL     1      23.856  -0.063  52.749  1.00  0.00    -0.355 OA
BRANCH  14  15
HETATM   15  C5  UNL     1      24.988  -0.194  53.570  1.00  0.00     0.177 C 
BRANCH  15  16
HETATM   16  C4  UNL     1      26.083  -0.993  52.885  1.00  0.00     0.057 C 
BRANCH  16  17
HETATM   17  C3  UNL     1      27.374  -0.217  52.887  1.00  0.00     0.273 C 
BRANCH  17  18
HETATM   18  N1  UNL     1      28.323  -0.665  53.867  1.00  0.00     0.080 N 
HETATM   19  C1  UNL     1      29.499  -1.283  53.341  1.00  0.00     0.309 C 
HETATM   20  C2  UNL     1      28.656   0.399  54.792  1.00  0.00     0.309 C 
ENDBRANCH  17  18
ENDBRANCH  16  17
ENDBRANCH  15  16
ENDBRANCH  14  15
ENDBRANCH   1  14
BRANCH   7  21
HETATM   21  C12 UNL     1      24.221   7.930  50.290  1.00  0.00     0.042 C 
HETATM   22  C13 UNL     1      25.185   8.671  49.784  1.00  0.00     0.107 C 
HETATM   23  F1  UNL     1      25.124   9.874  49.186  1.00  0.00    -0.210 F 
BRANCH  22  24
HETATM   24  C14 UNL     1      26.627   8.307  49.762  1.00  0.00     0.184 C 
HETATM   25 CL1  UNL     1      26.855   6.911  48.651  1.00  0.00    -0.123 Cl
ENDBRANCH  22  24
ENDBRANCH   7  21
TORSDOF 7
ENDMDL
