MODEL 1
REMARK VINA RESULT:      -8.0      0.000      0.000
REMARK  4 active torsions:
REMARK  status: ('A' for Active; 'I' for Inactive)
REMARK    1  A    between atoms: O1_2  and  C2_3 
REMARK    2  A    between atoms: C10_12  and  C11_13 
REMARK    3  A    between atoms: C11_13  and  C12_15 
REMARK    4  A    between atoms: C15_18  and  N2_19 
ROOT
HETATM    1  C11 UNL     1      24.809   1.459  53.269  1.00  0.00     0.212 C 
HETATM    2  O2  UNL     1      24.280   0.384  53.688  1.00  0.00    -0.285 OA
ENDROOT
BRANCH   1   3
HETATM    3  C10 UNL     1      26.205   1.654  53.556  1.00  0.00     0.125 A 
HETATM    4  C7  UNL     1      27.010   2.243  52.624  1.00  0.00    -0.002 A 
HETATM    5  C6  UNL     1      26.653   2.508  51.234  1.00  0.00     0.014 C 
HETATM    6  C8  UNL     1      28.320   2.469  52.986  1.00  0.00     0.034 A 
HETATM    7  C5  UNL     1      26.563   1.201  50.853  1.00  0.00     0.001 C 
HETATM    8  C4  UNL     1      26.756  -0.018  51.599  1.00  0.00    -0.000 C 
HETATM    9  C3  UNL     1      27.001  -0.859  52.566  1.00  0.00     0.022 C 
HETATM   10  C2  UNL     1      27.347  -1.023  53.949  1.00  0.00     0.244 C 
HETATM   11  N4  UNL     1      26.497  -0.604  55.011  1.00  0.00    -0.147 NA
HETATM   12  O3  UNL     1      26.606   0.749  55.366  1.00  0.00    -0.175 OA
HETATM   13  H28 UNL     1      26.625  -1.174  55.873  1.00  0.00     0.159 HD
HETATM   14  N1  UNL     1      27.203   1.580  54.418  1.00  0.00    -0.209 N 
HETATM   15  C9  UNL     1      28.455   1.981  54.305  1.00  0.00     0.126 A 
BRANCH  10  16
HETATM   16  O1  UNL     1      28.677  -0.688  54.293  1.00  0.00    -0.371 OA
HETATM   17  C1  UNL     1      29.600  -1.368  53.534  1.00  0.00     0.204 C 
ENDBRANCH  10  16
ENDBRANCH   1   3
BRANCH   1  18
HETATM   18  C12 UNL     1      23.869   2.294  52.572  1.00  0.00     0.017 A 
HETATM   19  C13 UNL     1      23.515   3.620  52.684  1.00  0.00     0.018 A 
HETATM   20  C14 UNL     1      22.542   4.308  52.014  1.00  0.00     0.030 A 
HETATM   21  C15 UNL     1      21.820   3.574  51.104  1.00  0.00     0.030 A 
HETATM   22  C22 UNL     1      22.046   2.239  50.869  1.00  0.00     0.030 A 
HETATM   23  C23 UNL     1      23.054   1.668  51.611  1.00  0.00     0.018 A 
BRANCH  21  24
HETATM   24  N2  UNL     1      20.795   4.271  50.366  1.00  0.00    -0.373 N 
HETATM   25  C16 UNL     1      19.448   4.287  50.960  1.00  0.00     0.154 C 
HETATM   26  C17 UNL     1      18.488   3.530  50.089  1.00  0.00     0.291 C 
HETATM   27  N3  UNL     1      18.431   4.204  48.799  1.00  0.00     0.087 N 
HETATM   28  C18 UNL     1      17.599   3.358  47.948  1.00  0.00     0.310 C 
HETATM   29  C19 UNL     1      19.723   4.304  48.199  1.00  0.00     0.296 C 
HETATM   30  C20 UNL     1      20.724   4.980  49.130  1.00  0.00     0.108 C 
HETATM   31  C21 UNL     1      22.036   5.127  48.393  1.00  0.00     0.034 C 
ENDBRANCH  21  24
ENDBRANCH   1  18
TORSDOF 4
ENDMDL
MODEL 2
REMARK VINA RESULT:      -7.9      6.071      7.308
REMARK  4 active torsions:
REMARK  status: ('A' for Active; 'I' for Inactive)
REMARK    1  A    between atoms: O1_2  and  C2_3 
REMARK    2  A    between atoms: C10_12  and  C11_13 
REMARK    3  A    between atoms: C11_13  and  C12_15 
REMARK    4  A    between atoms: C15_18  and  N2_19 
ROOT
HETATM    1  C11 UNL     1      29.235   5.732  48.351  1.00  0.00     0.212 C 
HETATM    2  O2  UNL     1      29.606   4.689  47.731  1.00  0.00    -0.285 OA
ENDROOT
BRANCH   1   3
HETATM    3  C10 UNL     1      30.267   6.640  48.774  1.00  0.00     0.125 A 
HETATM    4  C7  UNL     1      30.280   7.919  48.295  1.00  0.00    -0.002 A 
HETATM    5  C6  UNL     1      29.465   8.424  47.194  1.00  0.00     0.014 C 
HETATM    6  C8  UNL     1      31.248   8.762  48.793  1.00  0.00     0.034 A 
HETATM    7  C5  UNL     1      30.052   7.673  46.219  1.00  0.00     0.001 C 
HETATM    8  C4  UNL     1      31.118   6.703  46.284  1.00  0.00    -0.000 C 
HETATM    9  C3  UNL     1      32.065   5.923  46.728  1.00  0.00     0.022 C 
HETATM   10  C2  UNL     1      32.809   5.478  47.871  1.00  0.00     0.244 C 
HETATM   11  N4  UNL     1      32.211   4.773  48.954  1.00  0.00    -0.147 NA
HETATM   12  O3  UNL     1      31.605   5.577  49.930  1.00  0.00    -0.175 OA
HETATM   13  H28 UNL     1      32.881   4.135  49.433  1.00  0.00     0.159 HD
HETATM   14  N1  UNL     1      31.312   6.885  49.544  1.00  0.00    -0.209 N 
HETATM   15  C9  UNL     1      32.002   7.997  49.711  1.00  0.00     0.126 A 
BRANCH  10  16
HETATM   16  O1  UNL     1      33.724   6.412  48.409  1.00  0.00    -0.371 OA
HETATM   17  C1  UNL     1      34.950   5.847  48.672  1.00  0.00     0.204 C 
ENDBRANCH  10  16
ENDBRANCH   1   3
BRANCH   1  18
HETATM   18  C12 UNL     1      27.808   5.792  48.514  1.00  0.00     0.017 A 
HETATM   19  C13 UNL     1      26.863   6.753  48.234  1.00  0.00     0.018 A 
HETATM   20  C14 UNL     1      25.522   6.741  48.500  1.00  0.00     0.030 A 
HETATM   21  C15 UNL     1      25.056   5.614  49.133  1.00  0.00     0.030 A 
HETATM   22  C22 UNL     1      25.866   4.561  49.482  1.00  0.00     0.030 A 
HETATM   23  C23 UNL     1      27.195   4.701  49.157  1.00  0.00     0.018 A 
BRANCH  21  24
HETATM   24  N2  UNL     1      23.642   5.559  49.415  1.00  0.00    -0.373 N 
HETATM   25  C16 UNL     1      23.169   6.330  50.577  1.00  0.00     0.154 C 
HETATM   26  C17 UNL     1      22.639   5.405  51.633  1.00  0.00     0.291 C 
HETATM   27  N3  UNL     1      21.507   4.684  51.066  1.00  0.00     0.087 N 
HETATM   28  C18 UNL     1      21.117   3.705  52.076  1.00  0.00     0.310 C 
HETATM   29  C19 UNL     1      21.871   3.979  49.880  1.00  0.00     0.296 C 
HETATM   30  C20 UNL     1      22.508   4.905  48.848  1.00  0.00     0.108 C 
HETATM   31  C21 UNL     1      22.783   4.105  47.595  1.00  0.00     0.034 C 
ENDBRANCH  21  24
ENDBRANCH   1  18
TORSDOF 4
ENDMDL
MODEL 3
REMARK VINA RESULT:      -7.8      3.221      8.736
REMARK  4 active torsions:
REMARK  status: ('A' for Active; 'I' for Inactive)
REMARK    1  A    between atoms: O1_2  and  C2_3 
REMARK    2  A    between atoms: C10_12  and  C11_13 
REMARK    3  A    between atoms: C11_13  and  C12_15 
REMARK    4  A    between atoms: C15_18  and  N2_19 
ROOT
HETATM    1  C11 UNL     1      22.892   4.366  50.376  1.00  0.00     0.212 C 
HETATM    2  O2  UNL     1      21.730   4.202  50.860  1.00  0.00    -0.285 OA
ENDROOT
BRANCH   1   3
HETATM    3  C10 UNL     1      23.004   5.213  49.219  1.00  0.00     0.125 A 
HETATM    4  C7  UNL     1      24.047   6.088  49.121  1.00  0.00    -0.002 A 
HETATM    5  C6  UNL     1      24.974   6.432  50.194  1.00  0.00     0.014 C 
HETATM    6  C8  UNL     1      24.140   6.819  47.957  1.00  0.00     0.034 A 
HETATM    7  C5  UNL     1      24.058   7.058  50.986  1.00  0.00     0.001 C 
HETATM    8  C4  UNL     1      22.645   7.284  50.803  1.00  0.00    -0.000 C 
HETATM    9  C3  UNL     1      21.441   7.293  50.299  1.00  0.00     0.022 C 
HETATM   10  C2  UNL     1      20.603   6.904  49.201  1.00  0.00     0.244 C 
HETATM   11  N4  UNL     1      20.345   5.543  48.871  1.00  0.00    -0.147 NA
HETATM   12  O3  UNL     1      21.316   4.928  48.067  1.00  0.00    -0.175 OA
HETATM   13  H28 UNL     1      19.419   5.412  48.414  1.00  0.00     0.159 HD
HETATM   14  N1  UNL     1      22.559   5.560  48.025  1.00  0.00    -0.209 N 
HETATM   15  C9  UNL     1      23.045   6.425  47.155  1.00  0.00     0.126 A 
BRANCH  10  16
HETATM   16  O1  UNL     1      20.799   7.617  47.996  1.00  0.00    -0.371 OA
HETATM   17  C1  UNL     1      20.503   8.954  48.127  1.00  0.00     0.204 C 
ENDBRANCH  10  16
ENDBRANCH   1   3
BRANCH   1  18
HETATM   18  C12 UNL     1      23.895   3.640  51.108  1.00  0.00     0.017 A 
HETATM   19  C13 UNL     1      24.941   2.830  50.731  1.00  0.00     0.018 A 
HETATM   20  C14 UNL     1      25.802   2.117  51.519  1.00  0.00     0.030 A 
HETATM   21  C15 UNL     1      25.593   2.229  52.872  1.00  0.00     0.030 A 
HETATM   22  C22 UNL     1      24.592   2.998  53.415  1.00  0.00     0.030 A 
HETATM   23  C23 UNL     1      23.797   3.662  52.511  1.00  0.00     0.018 A 
BRANCH  21  24
HETATM   24  N2  UNL     1      26.493   1.503  53.736  1.00  0.00    -0.373 N 
HETATM   25  C16 UNL     1      27.778   2.153  54.046  1.00  0.00     0.154 C 
HETATM   26  C17 UNL     1      28.914   1.360  53.468  1.00  0.00     0.291 C 
HETATM   27  N3  UNL     1      28.900   0.043  54.091  1.00  0.00     0.087 N 
HETATM   28  C18 UNL     1      29.927  -0.731  53.401  1.00  0.00     0.310 C 
HETATM   29  C19 UNL     1      27.647  -0.615  53.905  1.00  0.00     0.296 C 
HETATM   30  C20 UNL     1      26.484   0.240  54.398  1.00  0.00     0.108 C 
HETATM   31  C21 UNL     1      25.208  -0.558  54.248  1.00  0.00     0.034 C 
ENDBRANCH  21  24
ENDBRANCH   1  18
TORSDOF 4
ENDMDL
MODEL 4
REMARK VINA RESULT:      -7.8      2.933      8.709
REMARK  4 active torsions:
REMARK  status: ('A' for Active; 'I' for Inactive)
REMARK    1  A    between atoms: O1_2  and  C2_3 
REMARK    2  A    between atoms: C10_12  and  C11_13 
REMARK    3  A    between atoms: C11_13  and  C12_15 
REMARK    4  A    between atoms: C15_18  and  N2_19 
ROOT
HETATM    1  C11 UNL     1      23.113   4.080  49.852  1.00  0.00     0.212 C 
HETATM    2  O2  UNL     1      23.636   4.915  49.052  1.00  0.00    -0.285 OA
ENDROOT
BRANCH   1   3
HETATM    3  C10 UNL     1      21.686   3.913  49.781  1.00  0.00     0.125 A 
HETATM    4  C7  UNL     1      21.157   2.660  49.663  1.00  0.00    -0.002 A 
HETATM    5  C6  UNL     1      21.907   1.443  49.370  1.00  0.00     0.014 C 
HETATM    6  C8  UNL     1      19.784   2.560  49.676  1.00  0.00     0.034 A 
HETATM    7  C5  UNL     1      22.271   1.796  48.104  1.00  0.00     0.001 C 
HETATM    8  C4  UNL     1      21.998   2.987  47.338  1.00  0.00    -0.000 C 
HETATM    9  C3  UNL     1      21.560   4.162  46.978  1.00  0.00     0.022 C 
HETATM   10  C2  UNL     1      20.811   5.325  47.359  1.00  0.00     0.244 C 
HETATM   11  N4  UNL     1      21.218   6.194  48.411  1.00  0.00    -0.147 NA
HETATM   12  O3  UNL     1      20.838   5.792  49.700  1.00  0.00    -0.175 OA
HETATM   13  H28 UNL     1      20.891   7.173  48.270  1.00  0.00     0.159 HD
HETATM   14  N1  UNL     1      20.482   4.451  49.838  1.00  0.00    -0.209 N 
HETATM   15  C9  UNL     1      19.293   3.879  49.805  1.00  0.00     0.126 A 
BRANCH  10  16
HETATM   16  O1  UNL     1      19.411   5.152  47.452  1.00  0.00    -0.371 OA
HETATM   17  C1  UNL     1      18.847   4.810  46.246  1.00  0.00     0.204 C 
ENDBRANCH  10  16
ENDBRANCH   1   3
BRANCH   1  18
HETATM   18  C12 UNL     1      24.090   3.451  50.699  1.00  0.00     0.017 A 
HETATM   19  C13 UNL     1      25.269   2.784  50.452  1.00  0.00     0.018 A 
HETATM   20  C14 UNL     1      26.097   2.149  51.334  1.00  0.00     0.030 A 
HETATM   21  C15 UNL     1      25.697   2.184  52.649  1.00  0.00     0.030 A 
HETATM   22  C22 UNL     1      24.547   2.808  53.066  1.00  0.00     0.030 A 
HETATM   23  C23 UNL     1      23.804   3.407  52.076  1.00  0.00     0.018 A 
BRANCH  21  24
HETATM   24  N2  UNL     1      26.556   1.538  53.612  1.00  0.00    -0.373 N 
HETATM   25  C16 UNL     1      27.831   2.209  53.915  1.00  0.00     0.154 C 
HETATM   26  C17 UNL     1      28.984   1.363  53.460  1.00  0.00     0.291 C 
HETATM   27  N3  UNL     1      28.936   0.109  54.199  1.00  0.00     0.087 N 
HETATM   28  C18 UNL     1      29.985  -0.728  53.626  1.00  0.00     0.310 C 
HETATM   29  C19 UNL     1      27.687  -0.559  54.022  1.00  0.00     0.296 C 
HETATM   30  C20 UNL     1      26.511   0.340  54.385  1.00  0.00     0.108 C 
HETATM   31  C21 UNL     1      25.237  -0.464  54.256  1.00  0.00     0.034 C 
ENDBRANCH  21  24
ENDBRANCH   1  18
TORSDOF 4
ENDMDL
MODEL 5
REMARK VINA RESULT:      -7.7      5.293      8.362
REMARK  4 active torsions:
REMARK  status: ('A' for Active; 'I' for Inactive)
REMARK    1  A    between atoms: O1_2  and  C2_3 
REMARK    2  A    between atoms: C10_12  and  C11_13 
REMARK    3  A    between atoms: C11_13  and  C12_15 
REMARK    4  A    between atoms: C15_18  and  N2_19 
ROOT
HETATM    1  C11 UNL     1      24.572   4.818  50.307  1.00  0.00     0.212 C 
HETATM    2  O2  UNL     1      24.388   5.292  51.470  1.00  0.00    -0.285 OA
ENDROOT
BRANCH   1   3
HETATM    3  C10 UNL     1      23.665   3.791  49.871  1.00  0.00     0.125 A 
HETATM    4  C7  UNL     1      23.041   3.909  48.662  1.00  0.00    -0.002 A 
HETATM    5  C6  UNL     1      23.019   5.106  47.829  1.00  0.00     0.014 C 
HETATM    6  C8  UNL     1      22.243   2.858  48.268  1.00  0.00     0.034 A 
HETATM    7  C5  UNL     1      22.282   5.869  48.686  1.00  0.00     0.001 C 
HETATM    8  C4  UNL     1      21.728   5.569  49.983  1.00  0.00    -0.000 C 
HETATM    9  C3  UNL     1      21.400   4.947  51.082  1.00  0.00     0.022 C 
HETATM   10  C2  UNL     1      21.483   3.729  51.836  1.00  0.00     0.244 C 
HETATM   11  N4  UNL     1      22.713   3.211  52.332  1.00  0.00    -0.147 NA
HETATM   12  O3  UNL     1      23.451   2.443  51.419  1.00  0.00    -0.175 OA
HETATM   13  H28 UNL     1      22.588   2.647  53.199  1.00  0.00     0.159 HD
HETATM   14  N1  UNL     1      23.114   2.608  50.075  1.00  0.00    -0.209 N 
HETATM   15  C9  UNL     1      22.301   1.905  49.310  1.00  0.00     0.126 A 
BRANCH  10  16
HETATM   16  O1  UNL     1      20.721   2.647  51.341  1.00  0.00    -0.371 OA
HETATM   17  C1  UNL     1      20.037   1.991  52.337  1.00  0.00     0.204 C 
ENDBRANCH  10  16
ENDBRANCH   1   3
BRANCH   1  18
HETATM   18  C12 UNL     1      25.693   5.424  49.641  1.00  0.00     0.017 A 
HETATM   19  C13 UNL     1      26.779   4.918  48.964  1.00  0.00     0.018 A 
HETATM   20  C14 UNL     1      27.843   5.587  48.426  1.00  0.00     0.030 A 
HETATM   21  C15 UNL     1      27.822   6.953  48.582  1.00  0.00     0.030 A 
HETATM   22  C22 UNL     1      26.811   7.617  49.233  1.00  0.00     0.030 A 
HETATM   23  C23 UNL     1      25.801   6.825  49.727  1.00  0.00     0.018 A 
BRANCH  21  24
HETATM   24  N2  UNL     1      28.921   7.694  48.012  1.00  0.00    -0.373 N 
HETATM   25  C16 UNL     1      30.166   7.737  48.797  1.00  0.00     0.154 C 
HETATM   26  C17 UNL     1      30.450   9.142  49.242  1.00  0.00     0.291 C 
HETATM   27  N3  UNL     1      30.627   9.961  48.051  1.00  0.00     0.087 N 
HETATM   28  C18 UNL     1      30.760  11.333  48.530  1.00  0.00     0.310 C 
HETATM   29  C19 UNL     1      29.486   9.898  47.194  1.00  0.00     0.296 C 
HETATM   30  C20 UNL     1      29.136   8.459  46.828  1.00  0.00     0.108 C 
HETATM   31  C21 UNL     1      27.979   8.482  45.855  1.00  0.00     0.034 C 
ENDBRANCH  21  24
ENDBRANCH   1  18
TORSDOF 4
ENDMDL
MODEL 6
REMARK VINA RESULT:      -7.6      4.742      7.876
REMARK  4 active torsions:
REMARK  status: ('A' for Active; 'I' for Inactive)
REMARK    1  A    between atoms: O1_2  and  C2_3 
REMARK    2  A    between atoms: C10_12  and  C11_13 
REMARK    3  A    between atoms: C11_13  and  C12_15 
REMARK    4  A    between atoms: C15_18  and  N2_19 
ROOT
HETATM    1  C11 UNL     1      23.656   3.843  49.368  1.00  0.00     0.212 C 
HETATM    2  O2  UNL     1      24.105   2.735  48.942  1.00  0.00    -0.285 OA
ENDROOT
BRANCH   1   3
HETATM    3  C10 UNL     1      22.384   3.815  50.040  1.00  0.00     0.125 A 
HETATM    4  C7  UNL     1      22.262   4.377  51.279  1.00  0.00    -0.002 A 
HETATM    5  C6  UNL     1      23.365   4.824  52.123  1.00  0.00     0.014 C 
HETATM    6  C8  UNL     1      21.004   4.384  51.838  1.00  0.00     0.034 A 
HETATM    7  C5  UNL     1      23.894   3.587  52.344  1.00  0.00     0.001 C 
HETATM    8  C4  UNL     1      23.483   2.285  51.878  1.00  0.00    -0.000 C 
HETATM    9  C3  UNL     1      22.830   1.326  51.282  1.00  0.00     0.022 C 
HETATM   10  C2  UNL     1      21.724   0.980  50.436  1.00  0.00     0.244 C 
HETATM   11  N4  UNL     1      21.626   1.406  49.080  1.00  0.00    -0.147 NA
HETATM   12  O3  UNL     1      21.091   2.688  48.892  1.00  0.00    -0.175 OA
HETATM   13  H28 UNL     1      21.083   0.741  48.492  1.00  0.00     0.159 HD
HETATM   14  N1  UNL     1      21.097   3.520  50.012  1.00  0.00    -0.209 N 
HETATM   15  C9  UNL     1      20.152   3.754  50.903  1.00  0.00     0.126 A 
BRANCH  10  16
HETATM   16  O1  UNL     1      20.442   1.095  51.023  1.00  0.00    -0.371 OA
HETATM   17  C1  UNL     1      20.282   0.246  52.093  1.00  0.00     0.204 C 
ENDBRANCH  10  16
ENDBRANCH   1   3
BRANCH   1  18
HETATM   18  C12 UNL     1      24.539   4.939  49.077  1.00  0.00     0.017 A 
HETATM   19  C13 UNL     1      24.343   6.208  48.582  1.00  0.00     0.018 A 
HETATM   20  C14 UNL     1      25.272   7.160  48.268  1.00  0.00     0.030 A 
HETATM   21  C15 UNL     1      26.581   6.799  48.477  1.00  0.00     0.030 A 
HETATM   22  C22 UNL     1      26.951   5.570  48.968  1.00  0.00     0.030 A 
HETATM   23  C23 UNL     1      25.917   4.705  49.242  1.00  0.00     0.018 A 
BRANCH  21  24
HETATM   24  N2  UNL     1      27.589   7.785  48.172  1.00  0.00    -0.373 N 
HETATM   25  C16 UNL     1      28.294   7.634  46.888  1.00  0.00     0.154 C 
HETATM   26  C17 UNL     1      29.746   7.338  47.124  1.00  0.00     0.291 C 
HETATM   27  N3  UNL     1      30.322   8.470  47.837  1.00  0.00     0.087 N 
HETATM   28  C18 UNL     1      31.689   8.077  48.164  1.00  0.00     0.310 C 
HETATM   29  C19 UNL     1      29.630   8.733  49.057  1.00  0.00     0.296 C 
HETATM   30  C20 UNL     1      28.136   8.929  48.826  1.00  0.00     0.108 C 
HETATM   31  C21 UNL     1      27.491   9.287  50.146  1.00  0.00     0.034 C 
ENDBRANCH  21  24
ENDBRANCH   1  18
TORSDOF 4
ENDMDL
MODEL 7
REMARK VINA RESULT:      -7.4      5.787      8.695
REMARK  4 active torsions:
REMARK  status: ('A' for Active; 'I' for Inactive)
REMARK    1  A    between atoms: O1_2  and  C2_3 
REMARK    2  A    between atoms: C10_12  and  C11_13 
REMARK    3  A    between atoms: C11_13  and  C12_15 
REMARK    4  A    between atoms: C15_18  and  N2_19 
ROOT
HETATM    1  C11 UNL     1      25.007   5.940  50.311  1.00  0.00     0.212 C 
HETATM    2  O2  UNL     1      24.615   6.743  51.212  1.00  0.00    -0.285 OA
ENDROOT
BRANCH   1   3
HETATM    3  C10 UNL     1      24.315   4.682  50.213  1.00  0.00     0.125 A 
HETATM    4  C7  UNL     1      23.613   4.384  49.081  1.00  0.00    -0.002 A 
HETATM    5  C6  UNL     1      23.288   5.319  48.009  1.00  0.00     0.014 C 
HETATM    6  C8  UNL     1      23.035   3.136  49.017  1.00  0.00     0.034 A 
HETATM    7  C5  UNL     1      22.456   6.108  48.747  1.00  0.00     0.001 C 
HETATM    8  C4  UNL     1      22.054   6.026  50.130  1.00  0.00    -0.000 C 
HETATM    9  C3  UNL     1      21.930   5.635  51.368  1.00  0.00     0.022 C 
HETATM   10  C2  UNL     1      22.313   4.673  52.362  1.00  0.00     0.244 C 
HETATM   11  N4  UNL     1      23.652   4.537  52.828  1.00  0.00    -0.147 NA
HETATM   12  O3  UNL     1      24.482   3.730  52.036  1.00  0.00    -0.175 OA
HETATM   13  H28 UNL     1      23.699   4.184  53.806  1.00  0.00     0.159 HD
HETATM   14  N1  UNL     1      24.042   3.499  50.733  1.00  0.00    -0.209 N 
HETATM   15  C9  UNL     1      23.354   2.490  50.233  1.00  0.00     0.126 A 
BRANCH  10  16
HETATM   16  O1  UNL     1      21.771   3.377  52.203  1.00  0.00    -0.371 OA
HETATM   17  C1  UNL     1      20.401   3.366  52.324  1.00  0.00     0.204 C 
ENDBRANCH  10  16
ENDBRANCH   1   3
BRANCH   1  18
HETATM   18  C12 UNL     1      26.104   6.469  49.547  1.00  0.00     0.017 A 
HETATM   19  C13 UNL     1      26.992   5.913  48.655  1.00  0.00     0.018 A 
HETATM   20  C14 UNL     1      28.061   6.495  48.032  1.00  0.00     0.030 A 
HETATM   21  C15 UNL     1      28.275   7.817  48.340  1.00  0.00     0.030 A 
HETATM   22  C22 UNL     1      27.481   8.522  49.212  1.00  0.00     0.030 A 
HETATM   23  C23 UNL     1      26.440   7.818  49.769  1.00  0.00     0.018 A 
BRANCH  21  24
HETATM   24  N2  UNL     1      29.385   8.469  47.688  1.00  0.00    -0.373 N 
HETATM   25  C16 UNL     1      29.108   9.106  46.389  1.00  0.00     0.154 C 
HETATM   26  C17 UNL     1      29.866   8.409  45.297  1.00  0.00     0.291 C 
HETATM   27  N3  UNL     1      31.287   8.546  45.584  1.00  0.00     0.087 N 
HETATM   28  C18 UNL     1      31.972   7.740  44.579  1.00  0.00     0.310 C 
HETATM   29  C19 UNL     1      31.618   8.027  46.872  1.00  0.00     0.296 C 
HETATM   30  C20 UNL     1      30.770   8.661  47.969  1.00  0.00     0.108 C 
HETATM   31  C21 UNL     1      31.239   8.126  49.304  1.00  0.00     0.034 C 
ENDBRANCH  21  24
ENDBRANCH   1  18
TORSDOF 4
ENDMDL
MODEL 8
REMARK VINA RESULT:      -7.3      6.623      8.325
REMARK  4 active torsions:
REMARK  status: ('A' for Active; 'I' for Inactive)
REMARK    1  A    between atoms: O1_2  and  C2_3 
REMARK    2  A    between atoms: C10_12  and  C11_13 
REMARK    3  A    between atoms: C11_13  and  C12_15 
REMARK    4  A    between atoms: C15_18  and  N2_19 
ROOT
HETATM    1  C11 UNL     1      28.206   6.775  48.330  1.00  0.00     0.212 C 
HETATM    2  O2  UNL     1      29.086   6.103  47.710  1.00  0.00    -0.285 OA
ENDROOT
BRANCH   1   3
HETATM    3  C10 UNL     1      28.412   8.196  48.418  1.00  0.00     0.125 A 
HETATM    4  C7  UNL     1      27.498   9.047  47.867  1.00  0.00    -0.002 A 
HETATM    5  C6  UNL     1      26.408   8.664  46.975  1.00  0.00     0.014 C 
HETATM    6  C8  UNL     1      27.712  10.395  48.048  1.00  0.00     0.034 A 
HETATM    7  C5  UNL     1      27.198   8.269  45.936  1.00  0.00     0.001 C 
HETATM    8  C4  UNL     1      28.633   8.243  45.796  1.00  0.00    -0.000 C 
HETATM    9  C3  UNL     1      29.910   8.363  46.038  1.00  0.00     0.022 C 
HETATM   10  C2  UNL     1      30.914   8.755  46.985  1.00  0.00     0.244 C 
HETATM   11  N4  UNL     1      31.105   8.088  48.228  1.00  0.00    -0.147 NA
HETATM   12  O3  UNL     1      30.265   8.510  49.270  1.00  0.00    -0.175 OA
HETATM   13  H28 UNL     1      32.089   8.145  48.565  1.00  0.00     0.159 HD
HETATM   14  N1  UNL     1      29.121   9.208  48.883  1.00  0.00    -0.209 N 
HETATM   15  C9  UNL     1      28.906  10.507  48.796  1.00  0.00     0.126 A 
BRANCH  10  16
HETATM   16  O1  UNL     1      31.035  10.146  47.212  1.00  0.00    -0.371 OA
HETATM   17  C1  UNL     1      31.726  10.780  46.207  1.00  0.00     0.204 C 
ENDBRANCH  10  16
ENDBRANCH   1   3
BRANCH   1  18
HETATM   18  C12 UNL     1      27.146   5.947  48.839  1.00  0.00     0.017 A 
HETATM   19  C13 UNL     1      25.931   6.220  49.426  1.00  0.00     0.018 A 
HETATM   20  C14 UNL     1      25.017   5.349  49.950  1.00  0.00     0.030 A 
HETATM   21  C15 UNL     1      25.360   4.020  49.880  1.00  0.00     0.030 A 
HETATM   22  C22 UNL     1      26.536   3.578  49.325  1.00  0.00     0.030 A 
HETATM   23  C23 UNL     1      27.367   4.558  48.835  1.00  0.00     0.018 A 
BRANCH  21  24
HETATM   24  N2  UNL     1      24.411   3.070  50.410  1.00  0.00    -0.373 N 
HETATM   25  C16 UNL     1      23.217   2.803  49.590  1.00  0.00     0.154 C 
HETATM   26  C17 UNL     1      21.983   3.275  50.302  1.00  0.00     0.291 C 
HETATM   27  N3  UNL     1      21.869   2.522  51.544  1.00  0.00     0.087 N 
HETATM   28  C18 UNL     1      20.741   3.110  52.260  1.00  0.00     0.310 C 
HETATM   29  C19 UNL     1      23.034   2.665  52.355  1.00  0.00     0.296 C 
HETATM   30  C20 UNL     1      24.300   2.284  51.594  1.00  0.00     0.108 C 
HETATM   31  C21 UNL     1      25.473   2.376  52.544  1.00  0.00     0.034 C 
ENDBRANCH  21  24
ENDBRANCH   1  18
TORSDOF 4
ENDMDL
MODEL 9
REMARK VINA RESULT:      -7.3      4.624      7.352
REMARK  4 active torsions:
REMARK  status: ('A' for Active; 'I' for Inactive)
REMARK    1  A    between atoms: O1_2  and  C2_3 
REMARK    2  A    between atoms: C10_12  and  C11_13 
REMARK    3  A    between atoms: C11_13  and  C12_15 
REMARK    4  A    between atoms: C15_18  and  N2_19 
ROOT
HETATM    1  C11 UNL     1      21.400   4.368  50.626  1.00  0.00     0.212 C 
HETATM    2  O2  UNL     1      20.272   4.847  50.297  1.00  0.00    -0.285 OA
ENDROOT
BRANCH   1   3
HETATM    3  C10 UNL     1      21.394   3.147  51.387  1.00  0.00     0.125 A 
HETATM    4  C7  UNL     1      22.222   2.122  51.027  1.00  0.00    -0.002 A 
HETATM    5  C6  UNL     1      22.980   2.036  49.784  1.00  0.00     0.014 C 
HETATM    6  C8  UNL     1      22.224   1.010  51.839  1.00  0.00     0.034 A 
HETATM    7  C5  UNL     1      21.900   1.928  48.959  1.00  0.00     0.001 C 
HETATM    8  C4  UNL     1      20.486   1.913  49.247  1.00  0.00    -0.000 C 
HETATM    9  C3  UNL     1      19.345   1.939  49.879  1.00  0.00     0.022 C 
HETATM   10  C2  UNL     1      18.684   2.040  51.148  1.00  0.00     0.244 C 
HETATM   11  N4  UNL     1      18.756   3.205  51.965  1.00  0.00    -0.147 NA
HETATM   12  O3  UNL     1      19.887   3.289  52.789  1.00  0.00    -0.175 OA
HETATM   13  H28 UNL     1      17.912   3.325  52.563  1.00  0.00     0.159 HD
HETATM   14  N1  UNL     1      20.960   2.471  52.435  1.00  0.00    -0.209 N 
HETATM   15  C9  UNL     1      21.296   1.272  52.872  1.00  0.00     0.126 A 
BRANCH  10  16
HETATM   16  O1  UNL     1      18.794   0.909  51.990  1.00  0.00    -0.371 OA
HETATM   17  C1  UNL     1      18.156  -0.192  51.468  1.00  0.00     0.204 C 
ENDBRANCH  10  16
ENDBRANCH   1   3
BRANCH   1  18
HETATM   18  C12 UNL     1      22.493   5.175  50.155  1.00  0.00     0.017 A 
HETATM   19  C13 UNL     1      22.911   5.567  48.903  1.00  0.00     0.018 A 
HETATM   20  C14 UNL     1      24.022   6.282  48.554  1.00  0.00     0.030 A 
HETATM   21  C15 UNL     1      24.831   6.662  49.598  1.00  0.00     0.030 A 
HETATM   22  C22 UNL     1      24.559   6.353  50.908  1.00  0.00     0.030 A 
HETATM   23  C23 UNL     1      23.410   5.628  51.121  1.00  0.00     0.018 A 
BRANCH  21  24
HETATM   24  N2  UNL     1      26.005   7.433  49.268  1.00  0.00    -0.373 N 
HETATM   25  C16 UNL     1      25.929   8.885  49.501  1.00  0.00     0.154 C 
HETATM   26  C17 UNL     1      26.013   9.625  48.198  1.00  0.00     0.291 C 
HETATM   27  N3  UNL     1      27.304   9.322  47.596  1.00  0.00     0.087 N 
HETATM   28  C18 UNL     1      27.282   9.946  46.277  1.00  0.00     0.310 C 
HETATM   29  C19 UNL     1      27.487   7.917  47.419  1.00  0.00     0.296 C 
HETATM   30  C20 UNL     1      27.296   7.156  48.727  1.00  0.00     0.108 C 
HETATM   31  C21 UNL     1      27.590   5.694  48.476  1.00  0.00     0.034 C 
ENDBRANCH  21  24
ENDBRANCH   1  18
TORSDOF 4
ENDMDL
