MODEL 1
REMARK VINA RESULT:      -8.2      0.000      0.000
REMARK  0 active torsions:
REMARK  status: ('A' for Active; 'I' for Inactive)
ROOT
HETATM    1  C1  UNL     1      25.612   2.018  50.950  1.00  0.00    -0.014 C 
HETATM    2  C2  UNL     1      26.707   2.430  51.538  1.00  0.00    -0.014 C 
HETATM    3  C3  UNL     1      27.002   1.656  52.583  1.00  0.00     0.014 C 
HETATM    4  C4  UNL     1      26.671   0.231  52.542  1.00  0.00     0.020 C 
HETATM    5  C5  UNL     1      26.114  -0.697  53.305  1.00  0.00     0.116 C 
HETATM    6  N1  UNL     1      25.508  -1.045  54.508  1.00  0.00    -0.271 NA
HETATM    7  C6  UNL     1      24.242  -0.984  54.670  1.00  0.00     0.147 C 
HETATM    8  C7  UNL     1      22.859  -0.734  54.300  1.00  0.00     0.075 C 
HETATM    9  N2  UNL     1      22.248   0.386  54.111  1.00  0.00    -0.247 NA
HETATM   10  C8  UNL     1      21.419   0.164  52.950  1.00  0.00     0.068 C 
HETATM   11  C9  UNL     1      20.921  -0.984  53.389  1.00  0.00     0.007 C 
HETATM   12  C10 UNL     1      21.804  -1.711  54.045  1.00  0.00     0.048 C 
HETATM   13  C11 UNL     1      21.117   0.820  51.707  1.00  0.00     0.028 C 
HETATM   14  C12 UNL     1      20.940   2.102  51.445  1.00  0.00    -0.024 C 
HETATM   15  C13 UNL     1      20.986   3.295  52.298  1.00  0.00     0.027 C 
HETATM   16  C14 UNL     1      21.946   4.353  51.924  1.00  0.00     0.007 C 
HETATM   17  C15 UNL     1      23.382   4.036  51.837  1.00  0.00     0.027 C 
HETATM   18  C16 UNL     1      24.036   3.499  53.022  1.00  0.00    -0.027 C 
HETATM   19  C17 UNL     1      24.680   2.319  53.056  1.00  0.00    -0.003 C 
HETATM   20  C18 UNL     1      24.733   1.512  51.810  1.00  0.00     0.013 C 
ENDROOT
TORSDOF 0
ENDMDL
MODEL 2
REMARK VINA RESULT:      -8.2      1.217      4.390
REMARK  0 active torsions:
REMARK  status: ('A' for Active; 'I' for Inactive)
ROOT
HETATM    1  C1  UNL     1      24.040   3.810  52.930  1.00  0.00    -0.014 C 
HETATM    2  C2  UNL     1      23.765   4.521  51.867  1.00  0.00    -0.014 C 
HETATM    3  C3  UNL     1      22.543   4.239  51.413  1.00  0.00     0.014 C 
HETATM    4  C4  UNL     1      21.487   3.875  52.359  1.00  0.00     0.020 C 
HETATM    5  C5  UNL     1      20.536   2.966  52.508  1.00  0.00     0.116 C 
HETATM    6  N1  UNL     1      19.873   1.843  52.022  1.00  0.00    -0.271 NA
HETATM    7  C6  UNL     1      20.242   0.658  52.323  1.00  0.00     0.147 C 
HETATM    8  C7  UNL     1      21.053  -0.368  52.958  1.00  0.00     0.075 C 
HETATM    9  N2  UNL     1      22.258  -0.745  52.694  1.00  0.00    -0.247 NA
HETATM   10  C8  UNL     1      22.875  -0.940  53.983  1.00  0.00     0.068 C 
HETATM   11  C9  UNL     1      21.876  -1.658  54.476  1.00  0.00     0.007 C 
HETATM   12  C10 UNL     1      20.692  -1.237  54.074  1.00  0.00     0.048 C 
HETATM   13  C11 UNL     1      24.094  -0.577  54.654  1.00  0.00     0.028 C 
HETATM   14  C12 UNL     1      25.332  -0.527  54.197  1.00  0.00    -0.024 C 
HETATM   15  C13 UNL     1      25.904  -0.813  52.877  1.00  0.00     0.027 C 
HETATM   16  C14 UNL     1      26.656   0.276  52.220  1.00  0.00     0.007 C 
HETATM   17  C15 UNL     1      25.987   1.559  51.945  1.00  0.00     0.027 C 
HETATM   18  C16 UNL     1      24.784   1.541  51.123  1.00  0.00    -0.027 C 
HETATM   19  C17 UNL     1      23.592   2.016  51.526  1.00  0.00    -0.003 C 
HETATM   20  C18 UNL     1      23.492   2.598  52.888  1.00  0.00     0.013 C 
ENDROOT
TORSDOF 0
ENDMDL
MODEL 3
REMARK VINA RESULT:      -8.0      1.992      3.207
REMARK  0 active torsions:
REMARK  status: ('A' for Active; 'I' for Inactive)
ROOT
HETATM    1  C1  UNL     1      23.468   3.735  48.941  1.00  0.00    -0.014 C 
HETATM    2  C2  UNL     1      24.109   4.874  48.877  1.00  0.00    -0.014 C 
HETATM    3  C3  UNL     1      25.272   4.798  49.526  1.00  0.00     0.014 C 
HETATM    4  C4  UNL     1      26.005   3.531  49.549  1.00  0.00     0.020 C 
HETATM    5  C5  UNL     1      26.636   2.747  50.409  1.00  0.00     0.116 C 
HETATM    6  N1  UNL     1      27.050   2.499  51.714  1.00  0.00    -0.271 NA
HETATM    7  C6  UNL     1      26.330   1.840  52.538  1.00  0.00     0.147 C 
HETATM    8  C7  UNL     1      25.175   1.087  52.996  1.00  0.00     0.075 C 
HETATM    9  N2  UNL     1      23.981   1.494  53.264  1.00  0.00    -0.247 NA
HETATM   10  C8  UNL     1      23.112   0.477  52.721  1.00  0.00     0.068 C 
HETATM   11  C9  UNL     1      23.778  -0.535  53.259  1.00  0.00     0.007 C 
HETATM   12  C10 UNL     1      25.083  -0.345  53.269  1.00  0.00     0.048 C 
HETATM   13  C11 UNL     1      21.935   0.400  51.899  1.00  0.00     0.028 C 
HETATM   14  C12 UNL     1      20.858   1.164  51.885  1.00  0.00    -0.024 C 
HETATM   15  C13 UNL     1      20.477   2.339  52.677  1.00  0.00     0.027 C 
HETATM   16  C14 UNL     1      20.174   3.581  51.935  1.00  0.00     0.007 C 
HETATM   17  C15 UNL     1      21.199   4.175  51.060  1.00  0.00     0.027 C 
HETATM   18  C16 UNL     1      22.481   4.532  51.654  1.00  0.00    -0.027 C 
HETATM   19  C17 UNL     1      23.664   4.051  51.233  1.00  0.00    -0.003 C 
HETATM   20  C18 UNL     1      23.670   3.101  50.092  1.00  0.00     0.013 C 
ENDROOT
TORSDOF 0
ENDMDL
MODEL 4
REMARK VINA RESULT:      -7.9      1.576      2.426
REMARK  0 active torsions:
REMARK  status: ('A' for Active; 'I' for Inactive)
ROOT
HETATM    1  C1  UNL     1      25.728   0.239  52.310  1.00  0.00    -0.014 C 
HETATM    2  C2  UNL     1      26.399   0.499  53.403  1.00  0.00    -0.014 C 
HETATM    3  C3  UNL     1      25.666   0.223  54.483  1.00  0.00     0.014 C 
HETATM    4  C4  UNL     1      24.709  -0.883  54.443  1.00  0.00     0.020 C 
HETATM    5  C5  UNL     1      23.454  -1.143  54.777  1.00  0.00     0.116 C 
HETATM    6  N1  UNL     1      22.250  -0.706  55.320  1.00  0.00    -0.271 NA
HETATM    7  C6  UNL     1      21.334  -0.182  54.600  1.00  0.00     0.147 C 
HETATM    8  C7  UNL     1      20.706   0.300  53.382  1.00  0.00     0.075 C 
HETATM    9  N2  UNL     1      20.973   1.347  52.677  1.00  0.00    -0.247 NA
HETATM   10  C8  UNL     1      20.872   0.905  51.306  1.00  0.00     0.068 C 
HETATM   11  C9  UNL     1      19.706   0.298  51.471  1.00  0.00     0.007 C 
HETATM   12  C10 UNL     1      19.597  -0.298  52.643  1.00  0.00     0.048 C 
HETATM   13  C11 UNL     1      21.638   0.996  50.093  1.00  0.00     0.028 C 
HETATM   14  C12 UNL     1      22.324   2.008  49.596  1.00  0.00    -0.024 C 
HETATM   15  C13 UNL     1      22.555   3.373  50.083  1.00  0.00     0.027 C 
HETATM   16  C14 UNL     1      23.958   3.788  50.282  1.00  0.00     0.007 C 
HETATM   17  C15 UNL     1      24.818   3.029  51.207  1.00  0.00     0.027 C 
HETATM   18  C16 UNL     1      24.386   2.901  52.592  1.00  0.00    -0.027 C 
HETATM   19  C17 UNL     1      24.188   1.724  53.212  1.00  0.00    -0.003 C 
HETATM   20  C18 UNL     1      24.426   0.477  52.442  1.00  0.00     0.013 C 
ENDROOT
TORSDOF 0
ENDMDL
MODEL 5
REMARK VINA RESULT:      -7.9      1.779      4.676
REMARK  0 active torsions:
REMARK  status: ('A' for Active; 'I' for Inactive)
ROOT
HETATM    1  C1  UNL     1      19.937   1.925  52.221  1.00  0.00    -0.014 C 
HETATM    2  C2  UNL     1      19.178   0.865  52.102  1.00  0.00    -0.014 C 
HETATM    3  C3  UNL     1      19.713  -0.173  52.746  1.00  0.00     0.014 C 
HETATM    4  C4  UNL     1      20.486   0.055  53.968  1.00  0.00     0.020 C 
HETATM    5  C5  UNL     1      21.632  -0.314  54.519  1.00  0.00     0.116 C 
HETATM    6  N1  UNL     1      22.808  -1.055  54.442  1.00  0.00    -0.271 NA
HETATM    7  C6  UNL     1      23.879  -0.572  53.941  1.00  0.00     0.147 C 
HETATM    8  C7  UNL     1      24.727   0.428  53.313  1.00  0.00     0.075 C 
HETATM    9  N2  UNL     1      24.717   0.871  52.102  1.00  0.00    -0.247 NA
HETATM   10  C8  UNL     1      24.926   2.294  52.227  1.00  0.00     0.068 C 
HETATM   11  C9  UNL     1      25.954   2.182  53.056  1.00  0.00     0.007 C 
HETATM   12  C10 UNL     1      25.817   1.190  53.915  1.00  0.00     0.048 C 
HETATM   13  C11 UNL     1      24.348   3.511  51.725  1.00  0.00     0.028 C 
HETATM   14  C12 UNL     1      23.896   3.800  50.518  1.00  0.00    -0.024 C 
HETATM   15  C13 UNL     1      23.815   3.012  49.283  1.00  0.00     0.027 C 
HETATM   16  C14 UNL     1      22.478   2.842  48.680  1.00  0.00     0.007 C 
HETATM   17  C15 UNL     1      21.399   2.215  49.463  1.00  0.00     0.027 C 
HETATM   18  C16 UNL     1      21.623   0.872  49.981  1.00  0.00    -0.027 C 
HETATM   19  C17 UNL     1      21.556   0.549  51.285  1.00  0.00    -0.003 C 
HETATM   20  C18 UNL     1      21.232   1.622  52.258  1.00  0.00     0.013 C 
ENDROOT
TORSDOF 0
ENDMDL
MODEL 6
REMARK VINA RESULT:      -7.8      2.233      5.001
REMARK  0 active torsions:
REMARK  status: ('A' for Active; 'I' for Inactive)
ROOT
HETATM    1  C1  UNL     1      21.213   0.735  49.481  1.00  0.00    -0.014 C 
HETATM    2  C2  UNL     1      20.550   1.722  48.933  1.00  0.00    -0.014 C 
HETATM    3  C3  UNL     1      21.300   2.824  48.883  1.00  0.00     0.014 C 
HETATM    4  C4  UNL     1      22.746   2.705  48.697  1.00  0.00     0.020 C 
HETATM    5  C5  UNL     1      23.871   3.189  49.201  1.00  0.00     0.116 C 
HETATM    6  N1  UNL     1      24.505   4.022  50.118  1.00  0.00    -0.271 NA
HETATM    7  C6  UNL     1      24.846   3.614  51.279  1.00  0.00     0.147 C 
HETATM    8  C7  UNL     1      24.991   2.668  52.373  1.00  0.00     0.075 C 
HETATM    9  N2  UNL     1      24.095   2.183  53.164  1.00  0.00    -0.247 NA
HETATM   10  C8  UNL     1      24.441   0.788  53.303  1.00  0.00     0.068 C 
HETATM   11  C9  UNL     1      25.723   1.016  53.549  1.00  0.00     0.007 C 
HETATM   12  C10 UNL     1      26.210   2.022  52.850  1.00  0.00     0.048 C 
HETATM   13  C11 UNL     1      23.785  -0.490  53.236  1.00  0.00     0.028 C 
HETATM   14  C12 UNL     1      22.598  -0.859  53.679  1.00  0.00    -0.024 C 
HETATM   15  C13 UNL     1      21.538  -0.124  54.380  1.00  0.00     0.027 C 
HETATM   16  C14 UNL     1      20.207  -0.089  53.741  1.00  0.00     0.007 C 
HETATM   17  C15 UNL     1      20.065   0.472  52.387  1.00  0.00     0.027 C 
HETATM   18  C16 UNL     1      20.494   1.846  52.167  1.00  0.00    -0.027 C 
HETATM   19  C17 UNL     1      21.422   2.209  51.263  1.00  0.00    -0.003 C 
HETATM   20  C18 UNL     1      22.045   1.147  50.433  1.00  0.00     0.013 C 
ENDROOT
TORSDOF 0
ENDMDL
MODEL 7
REMARK VINA RESULT:      -7.6      1.449      4.590
REMARK  0 active torsions:
REMARK  status: ('A' for Active; 'I' for Inactive)
ROOT
HETATM    1  C1  UNL     1      22.787   4.954  51.962  1.00  0.00    -0.014 C 
HETATM    2  C2  UNL     1      21.913   5.254  51.035  1.00  0.00    -0.014 C 
HETATM    3  C3  UNL     1      20.950   4.334  50.979  1.00  0.00     0.014 C 
HETATM    4  C4  UNL     1      20.530   3.651  52.204  1.00  0.00     0.020 C 
HETATM    5  C5  UNL     1      20.271   2.428  52.639  1.00  0.00     0.116 C 
HETATM    6  N1  UNL     1      20.191   1.063  52.380  1.00  0.00    -0.271 NA
HETATM    7  C6  UNL     1      21.187   0.283  52.553  1.00  0.00     0.147 C 
HETATM    8  C7  UNL     1      22.547  -0.088  52.908  1.00  0.00     0.075 C 
HETATM    9  N2  UNL     1      23.652   0.146  52.286  1.00  0.00    -0.247 NA
HETATM   10  C8  UNL     1      24.594   0.492  53.324  1.00  0.00     0.068 C 
HETATM   11  C9  UNL     1      24.287  -0.537  54.100  1.00  0.00     0.007 C 
HETATM   12  C10 UNL     1      23.001  -0.830  54.081  1.00  0.00     0.048 C 
HETATM   13  C11 UNL     1      25.570   1.514  53.587  1.00  0.00     0.028 C 
HETATM   14  C12 UNL     1      26.430   2.097  52.772  1.00  0.00    -0.024 C 
HETATM   15  C13 UNL     1      26.697   1.926  51.339  1.00  0.00     0.027 C 
HETATM   16  C14 UNL     1      26.567   3.122  50.482  1.00  0.00     0.007 C 
HETATM   17  C15 UNL     1      25.283   3.841  50.426  1.00  0.00     0.027 C 
HETATM   18  C16 UNL     1      24.101   3.097  50.014  1.00  0.00    -0.027 C 
HETATM   19  C17 UNL     1      22.990   2.975  50.764  1.00  0.00    -0.003 C 
HETATM   20  C18 UNL     1      22.963   3.642  52.091  1.00  0.00     0.013 C 
ENDROOT
TORSDOF 0
ENDMDL
MODEL 8
REMARK VINA RESULT:      -7.5      2.238      4.847
REMARK  0 active torsions:
REMARK  status: ('A' for Active; 'I' for Inactive)
ROOT
HETATM    1  C1  UNL     1      23.160   4.043  52.692  1.00  0.00    -0.014 C 
HETATM    2  C2  UNL     1      23.844   4.590  51.718  1.00  0.00    -0.014 C 
HETATM    3  C3  UNL     1      23.137   4.590  50.587  1.00  0.00     0.014 C 
HETATM    4  C4  UNL     1      21.681   4.730  50.644  1.00  0.00     0.020 C 
HETATM    5  C5  UNL     1      20.594   4.177  50.129  1.00  0.00     0.116 C 
HETATM    6  N1  UNL     1      20.025   3.221  49.294  1.00  0.00    -0.271 NA
HETATM    7  C6  UNL     1      19.705   2.058  49.716  1.00  0.00     0.147 C 
HETATM    8  C7  UNL     1      19.559   0.982  50.682  1.00  0.00     0.075 C 
HETATM    9  N2  UNL     1      20.460   0.233  51.221  1.00  0.00    -0.247 NA
HETATM   10  C8  UNL     1      20.064   0.115  52.604  1.00  0.00     0.068 C 
HETATM   11  C9  UNL     1      18.801  -0.180  52.333  1.00  0.00     0.007 C 
HETATM   12  C10 UNL     1      18.331   0.479  51.291  1.00  0.00     0.048 C 
HETATM   13  C11 UNL     1      20.665   0.232  53.905  1.00  0.00     0.028 C 
HETATM   14  C12 UNL     1      21.851  -0.162  54.330  1.00  0.00    -0.024 C 
HETATM   15  C13 UNL     1      22.961  -0.844  53.655  1.00  0.00     0.027 C 
HETATM   16  C14 UNL     1      24.271  -0.161  53.656  1.00  0.00     0.007 C 
HETATM   17  C15 UNL     1      24.392   1.184  53.069  1.00  0.00     0.027 C 
HETATM   18  C16 UNL     1      24.010   1.358  51.674  1.00  0.00    -0.027 C 
HETATM   19  C17 UNL     1      23.069   2.222  51.254  1.00  0.00    -0.003 C 
HETATM   20  C18 UNL     1      22.377   3.054  52.270  1.00  0.00     0.013 C 
ENDROOT
TORSDOF 0
ENDMDL
MODEL 9
REMARK VINA RESULT:      -7.1      3.274      6.188
REMARK  0 active torsions:
REMARK  status: ('A' for Active; 'I' for Inactive)
ROOT
HETATM    1  C1  UNL     1      24.261   7.350  50.949  1.00  0.00    -0.014 C 
HETATM    2  C2  UNL     1      23.725   8.245  50.158  1.00  0.00    -0.014 C 
HETATM    3  C3  UNL     1      22.488   7.886  49.809  1.00  0.00     0.014 C 
HETATM    4  C4  UNL     1      21.660   7.135  50.754  1.00  0.00     0.020 C 
HETATM    5  C5  UNL     1      20.868   6.075  50.779  1.00  0.00     0.116 C 
HETATM    6  N1  UNL     1      20.277   5.012  50.102  1.00  0.00    -0.271 NA
HETATM    7  C6  UNL     1      20.836   3.865  50.026  1.00  0.00     0.147 C 
HETATM    8  C7  UNL     1      21.863   2.862  50.254  1.00  0.00     0.075 C 
HETATM    9  N2  UNL     1      23.043   2.763  49.744  1.00  0.00    -0.247 NA
HETATM   10  C8  UNL     1      23.888   2.362  50.843  1.00  0.00     0.068 C 
HETATM   11  C9  UNL     1      23.083   1.392  51.253  1.00  0.00     0.007 C 
HETATM   12  C10 UNL     1      21.806   1.700  51.136  1.00  0.00     0.048 C 
HETATM   13  C11 UNL     1      25.148   2.744  51.421  1.00  0.00     0.028 C 
HETATM   14  C12 UNL     1      26.275   3.105  50.836  1.00  0.00    -0.024 C 
HETATM   15  C13 UNL     1      26.649   3.248  49.425  1.00  0.00     0.027 C 
HETATM   16  C14 UNL     1      27.138   4.572  48.988  1.00  0.00     0.007 C 
HETATM   17  C15 UNL     1      26.279   5.756  49.154  1.00  0.00     0.027 C 
HETATM   18  C16 UNL     1      24.966   5.743  48.522  1.00  0.00    -0.027 C 
HETATM   19  C17 UNL     1      23.809   5.904  49.189  1.00  0.00    -0.003 C 
HETATM   20  C18 UNL     1      23.869   6.113  50.658  1.00  0.00     0.013 C 
ENDROOT
TORSDOF 0
ENDMDL
