MODEL 1
REMARK VINA RESULT:      -8.0      0.000      0.000
REMARK  8 active torsions:
REMARK  status: ('A' for Active; 'I' for Inactive)
REMARK    1  A    between atoms: O1_2  and  C2_3 
REMARK    2  A    between atoms: C5_6  and  O2_7 
REMARK    3  A    between atoms: C7_9  and  C8_10 
REMARK    4  A    between atoms: C8_10  and  C9_11 
REMARK    5  A    between atoms: C9_11  and  C10_12 
REMARK    6  A    between atoms: C12_15  and  N2_16 
REMARK    7  A    between atoms: C14_19  and  N4_20 
REMARK    8  A    between atoms: N4_20  and  C15_21 
ROOT
HETATM    1  C10 UNL     1      23.940  -0.344  53.112  1.00  0.00     0.265 C 
HETATM    2  C11 UNL     1      25.016  -0.560  54.119  1.00  0.00     0.121 C 
HETATM    3  N1  UNL     1      26.277  -0.836  54.268  1.00  0.00    -0.264 NA
HETATM    4  C12 UNL     1      27.280  -1.078  53.237  1.00  0.00     0.379 C 
HETATM    5  C13 UNL     1      27.016  -0.164  52.065  1.00  0.00     0.145 C 
HETATM    6  N3  UNL     1      26.230   0.867  51.935  1.00  0.00    -0.248 NA
HETATM    7  C14 UNL     1      25.316   1.550  52.803  1.00  0.00     0.447 C 
HETATM    8  N5  UNL     1      23.965   1.040  52.718  1.00  0.00     0.137 N 
HETATM    9  H25 UNL     1      23.399   1.585  53.399  1.00  0.00     0.322 HD
ENDROOT
BRANCH   1  10
HETATM   10  C9  UNL     1      22.642  -0.724  53.794  1.00  0.00     0.046 C 
BRANCH  10  11
HETATM   11  C8  UNL     1      21.657   0.399  53.875  1.00  0.00     0.044 C 
BRANCH  11  12
HETATM   12  C7  UNL     1      20.410   0.091  53.116  1.00  0.00    -0.022 A 
HETATM   13  C5  UNL     1      20.318   0.717  51.871  1.00  0.00     0.074 A 
HETATM   14  C4  UNL     1      19.160   0.448  51.134  1.00  0.00     0.040 A 
HETATM   15  C3  UNL     1      18.142  -0.373  51.562  1.00  0.00     0.039 A 
HETATM   16  C2  UNL     1      18.280  -0.975  52.813  1.00  0.00     0.068 A 
HETATM   17  C21 UNL     1      19.406  -0.737  53.572  1.00  0.00     0.046 A 
BRANCH  13  18
HETATM   18  O2  UNL     1      21.320   1.554  51.398  1.00  0.00    -0.355 OA
HETATM   19  C6  UNL     1      21.702   1.402  50.044  1.00  0.00     0.210 C 
ENDBRANCH  13  18
BRANCH  16  20
HETATM   20  O1  UNL     1      17.258  -1.786  53.218  1.00  0.00    -0.356 OA
HETATM   21  C1  UNL     1      17.430  -3.153  53.573  1.00  0.00     0.210 C 
ENDBRANCH  16  20
ENDBRANCH  11  12
ENDBRANCH  10  11
ENDBRANCH   1  10
BRANCH   7  22
HETATM   22  N4  UNL     1      25.364   2.963  52.472  1.00  0.00    -0.343 N 
HETATM   23  H20 UNL     1      25.965   3.587  53.087  1.00  0.00     0.163 HD
BRANCH  22  24
HETATM   24  C15 UNL     1      24.685   3.576  51.412  1.00  0.00     0.032 A 
HETATM   25  C16 UNL     1      24.973   3.286  50.074  1.00  0.00     0.029 A 
HETATM   26  C17 UNL     1      24.310   3.882  49.039  1.00  0.00     0.004 A 
HETATM   27  C18 UNL     1      23.313   4.809  49.261  1.00  0.00     0.019 A 
HETATM   28  C19 UNL     1      22.988   5.133  50.564  1.00  0.00     0.013 A 
HETATM   29 BR1  UNL     1      21.618   6.408  50.879  1.00  0.00    -0.051 Br
HETATM   30  C20 UNL     1      23.684   4.506  51.593  1.00  0.00     0.048 A 
ENDBRANCH  22  24
ENDBRANCH   7  22
BRANCH   4  31
HETATM   31  N2  UNL     1      27.227  -2.460  52.867  1.00  0.00     0.108 N 
HETATM   32  H16 UNL     1      26.399  -2.924  53.307  1.00  0.00     0.316 HD
HETATM   33  H17 UNL     1      28.106  -2.933  53.136  1.00  0.00     0.316 HD
ENDBRANCH   4  31
TORSDOF 8
ENDMDL
MODEL 2
REMARK VINA RESULT:      -7.8      3.968      6.973
REMARK  8 active torsions:
REMARK  status: ('A' for Active; 'I' for Inactive)
REMARK    1  A    between atoms: O1_2  and  C2_3 
REMARK    2  A    between atoms: C5_6  and  O2_7 
REMARK    3  A    between atoms: C7_9  and  C8_10 
REMARK    4  A    between atoms: C8_10  and  C9_11 
REMARK    5  A    between atoms: C9_11  and  C10_12 
REMARK    6  A    between atoms: C12_15  and  N2_16 
REMARK    7  A    between atoms: C14_19  and  N4_20 
REMARK    8  A    between atoms: N4_20  and  C15_21 
ROOT
HETATM    1  C10 UNL     1      23.192   5.126  52.251  1.00  0.00     0.265 C 
HETATM    2  C11 UNL     1      22.915   4.637  50.872  1.00  0.00     0.121 C 
HETATM    3  N1  UNL     1      22.206   4.847  49.805  1.00  0.00    -0.264 NA
HETATM    4  C12 UNL     1      21.213   5.888  49.566  1.00  0.00     0.379 C 
HETATM    5  C13 UNL     1      21.669   7.168  50.225  1.00  0.00     0.145 C 
HETATM    6  N3  UNL     1      22.815   7.510  50.744  1.00  0.00    -0.248 NA
HETATM    7  C14 UNL     1      24.079   6.855  50.909  1.00  0.00     0.447 C 
HETATM    8  N5  UNL     1      24.195   6.155  52.171  1.00  0.00     0.137 N 
HETATM    9  H25 UNL     1      25.131   5.703  52.173  1.00  0.00     0.322 HD
ENDROOT
BRANCH   1  10
HETATM   10  C9  UNL     1      23.666   3.923  53.040  1.00  0.00     0.046 C 
BRANCH  10  11
HETATM   11  C8  UNL     1      24.289   2.859  52.192  1.00  0.00     0.044 C 
BRANCH  11  12
HETATM   12  C7  UNL     1      24.799   1.727  53.018  1.00  0.00    -0.022 A 
HETATM   13  C5  UNL     1      23.951   0.618  53.072  1.00  0.00     0.074 A 
HETATM   14  C4  UNL     1      24.401  -0.461  53.838  1.00  0.00     0.040 A 
HETATM   15  C3  UNL     1      25.598  -0.483  54.520  1.00  0.00     0.039 A 
HETATM   16  C2  UNL     1      26.409   0.648  54.435  1.00  0.00     0.068 A 
HETATM   17  C21 UNL     1      26.004   1.734  53.690  1.00  0.00     0.046 A 
BRANCH  13  18
HETATM   18  O2  UNL     1      22.736   0.596  52.402  1.00  0.00    -0.355 OA
HETATM   19  C6  UNL     1      21.566   0.489  53.192  1.00  0.00     0.210 C 
ENDBRANCH  13  18
BRANCH  16  20
HETATM   20  O1  UNL     1      27.592   0.605  55.118  1.00  0.00    -0.356 OA
HETATM   21  C1  UNL     1      28.796   0.074  54.578  1.00  0.00     0.210 C 
ENDBRANCH  16  20
ENDBRANCH  11  12
ENDBRANCH  10  11
ENDBRANCH   1  10
BRANCH   7  22
HETATM   22  N4  UNL     1      25.119   7.858  50.770  1.00  0.00    -0.343 N 
HETATM   23  H20 UNL     1      25.021   8.744  51.348  1.00  0.00     0.163 HD
BRANCH  22  24
HETATM   24  C15 UNL     1      26.241   7.761  49.937  1.00  0.00     0.032 A 
HETATM   25  C16 UNL     1      26.454   6.661  49.098  1.00  0.00     0.029 A 
HETATM   26  C17 UNL     1      27.547   6.564  48.286  1.00  0.00     0.004 A 
HETATM   27  C18 UNL     1      28.506   7.555  48.247  1.00  0.00     0.019 A 
HETATM   28  C19 UNL     1      28.345   8.664  49.056  1.00  0.00     0.013 A 
HETATM   29 BR1  UNL     1      29.660  10.032  49.011  1.00  0.00    -0.051 Br
HETATM   30  C20 UNL     1      27.220   8.728  49.871  1.00  0.00     0.048 A 
ENDBRANCH  22  24
ENDBRANCH   7  22
BRANCH   4  31
HETATM   31  N2  UNL     1      19.951   5.440  50.074  1.00  0.00     0.108 N 
HETATM   32  H16 UNL     1      19.987   4.416  50.285  1.00  0.00     0.316 HD
HETATM   33  H17 UNL     1      19.200   5.656  49.397  1.00  0.00     0.316 HD
ENDBRANCH   4  31
TORSDOF 8
ENDMDL
MODEL 3
REMARK VINA RESULT:      -7.7      3.851      8.147
REMARK  8 active torsions:
REMARK  status: ('A' for Active; 'I' for Inactive)
REMARK    1  A    between atoms: O1_2  and  C2_3 
REMARK    2  A    between atoms: C5_6  and  O2_7 
REMARK    3  A    between atoms: C7_9  and  C8_10 
REMARK    4  A    between atoms: C8_10  and  C9_11 
REMARK    5  A    between atoms: C9_11  and  C10_12 
REMARK    6  A    between atoms: C12_15  and  N2_16 
REMARK    7  A    between atoms: C14_19  and  N4_20 
REMARK    8  A    between atoms: N4_20  and  C15_21 
ROOT
HETATM    1  C10 UNL     1      26.232   2.529  51.208  1.00  0.00     0.265 C 
HETATM    2  C11 UNL     1      26.641   1.107  51.371  1.00  0.00     0.121 C 
HETATM    3  N1  UNL     1      27.114   0.239  52.214  1.00  0.00    -0.264 NA
HETATM    4  C12 UNL     1      27.480   0.438  53.612  1.00  0.00     0.379 C 
HETATM    5  C13 UNL     1      26.502   1.397  54.248  1.00  0.00     0.145 C 
HETATM    6  N3  UNL     1      25.359   1.863  53.833  1.00  0.00    -0.248 NA
HETATM    7  C14 UNL     1      24.567   1.681  52.653  1.00  0.00     0.447 C 
HETATM    8  N5  UNL     1      24.858   2.652  51.619  1.00  0.00     0.137 N 
HETATM    9  H25 UNL     1      24.251   2.413  50.810  1.00  0.00     0.322 HD
ENDROOT
BRANCH   1  10
HETATM   10  C9  UNL     1      26.425   2.859  49.743  1.00  0.00     0.046 C 
BRANCH  10  11
HETATM   11  C8  UNL     1      25.779   4.143  49.328  1.00  0.00     0.044 C 
BRANCH  11  12
HETATM   12  C7  UNL     1      26.789   5.152  48.896  1.00  0.00    -0.022 A 
HETATM   13  C5  UNL     1      26.320   6.468  48.866  1.00  0.00     0.074 A 
HETATM   14  C4  UNL     1      27.243   7.438  48.465  1.00  0.00     0.040 A 
HETATM   15  C3  UNL     1      28.546   7.170  48.111  1.00  0.00     0.039 A 
HETATM   16  C2  UNL     1      28.967   5.842  48.158  1.00  0.00     0.068 A 
HETATM   17  C21 UNL     1      28.089   4.853  48.547  1.00  0.00     0.046 A 
BRANCH  13  18
HETATM   18  O2  UNL     1      25.014   6.785  49.214  1.00  0.00    -0.355 OA
HETATM   19  C6  UNL     1      24.830   7.589  50.365  1.00  0.00     0.210 C 
ENDBRANCH  13  18
BRANCH  16  20
HETATM   20  O1  UNL     1      30.264   5.597  47.802  1.00  0.00    -0.356 OA
HETATM   21  C1  UNL     1      31.384   6.015  48.572  1.00  0.00     0.210 C 
ENDBRANCH  16  20
ENDBRANCH  11  12
ENDBRANCH  10  11
ENDBRANCH   1  10
BRANCH   7  22
HETATM   22  N4  UNL     1      23.170   1.736  53.043  1.00  0.00    -0.343 N 
HETATM   23  H20 UNL     1      22.704   2.691  53.052  1.00  0.00     0.163 HD
BRANCH  22  24
HETATM   24  C15 UNL     1      22.382   0.639  53.412  1.00  0.00     0.032 A 
HETATM   25  C16 UNL     1      22.881  -0.409  54.194  1.00  0.00     0.029 A 
HETATM   26  C17 UNL     1      22.114  -1.479  54.555  1.00  0.00     0.004 A 
HETATM   27  C18 UNL     1      20.795  -1.584  54.165  1.00  0.00     0.019 A 
HETATM   28  C19 UNL     1      20.250  -0.578  53.391  1.00  0.00     0.013 A 
HETATM   29 BR1  UNL     1      18.437  -0.714  52.849  1.00  0.00    -0.051 Br
HETATM   30  C20 UNL     1      21.062   0.497  53.042  1.00  0.00     0.048 A 
ENDBRANCH  22  24
ENDBRANCH   7  22
BRANCH   4  31
HETATM   31  N2  UNL     1      28.826   0.924  53.665  1.00  0.00     0.108 N 
HETATM   32  H16 UNL     1      28.921   1.794  53.093  1.00  0.00     0.316 HD
HETATM   33  H17 UNL     1      29.480   0.192  53.342  1.00  0.00     0.316 HD
ENDBRANCH   4  31
TORSDOF 8
ENDMDL
MODEL 4
REMARK VINA RESULT:      -7.7      3.921      7.002
REMARK  8 active torsions:
REMARK  status: ('A' for Active; 'I' for Inactive)
REMARK    1  A    between atoms: O1_2  and  C2_3 
REMARK    2  A    between atoms: C5_6  and  O2_7 
REMARK    3  A    between atoms: C7_9  and  C8_10 
REMARK    4  A    between atoms: C8_10  and  C9_11 
REMARK    5  A    between atoms: C9_11  and  C10_12 
REMARK    6  A    between atoms: C12_15  and  N2_16 
REMARK    7  A    between atoms: C14_19  and  N4_20 
REMARK    8  A    between atoms: N4_20  and  C15_21 
ROOT
HETATM    1  C10 UNL     1      24.346   4.356  50.971  1.00  0.00     0.265 C 
HETATM    2  C11 UNL     1      23.422   4.920  49.949  1.00  0.00     0.121 C 
HETATM    3  N1  UNL     1      22.764   5.984  49.599  1.00  0.00    -0.264 NA
HETATM    4  C12 UNL     1      22.715   7.280  50.265  1.00  0.00     0.379 C 
HETATM    5  C13 UNL     1      24.079   7.597  50.832  1.00  0.00     0.145 C 
HETATM    6  N3  UNL     1      25.241   7.038  50.647  1.00  0.00    -0.248 NA
HETATM    7  C14 UNL     1      25.711   5.933  49.864  1.00  0.00     0.447 C 
HETATM    8  N5  UNL     1      25.695   4.678  50.585  1.00  0.00     0.137 N 
HETATM    9  H25 UNL     1      26.029   3.951  49.922  1.00  0.00     0.322 HD
ENDROOT
BRANCH   1  10
HETATM   10  C9  UNL     1      24.096   2.862  50.990  1.00  0.00     0.046 C 
BRANCH  10  11
HETATM   11  C8  UNL     1      23.432   2.382  52.241  1.00  0.00     0.044 C 
BRANCH  11  12
HETATM   12  C7  UNL     1      24.336   1.503  53.039  1.00  0.00    -0.022 A 
HETATM   13  C5  UNL     1      23.814   0.240  53.326  1.00  0.00     0.074 A 
HETATM   14  C4  UNL     1      24.637  -0.609  54.072  1.00  0.00     0.040 A 
HETATM   15  C3  UNL     1      25.893  -0.271  54.523  1.00  0.00     0.039 A 
HETATM   16  C2  UNL     1      26.371   1.001  54.211  1.00  0.00     0.068 A 
HETATM   17  C21 UNL     1      25.591   1.869  53.477  1.00  0.00     0.046 A 
BRANCH  13  18
HETATM   18  O2  UNL     1      22.552  -0.144  52.893  1.00  0.00    -0.355 OA
HETATM   19  C6  UNL     1      21.909  -1.178  53.615  1.00  0.00     0.210 C 
ENDBRANCH  13  18
BRANCH  16  20
HETATM   20  O1  UNL     1      27.620   1.316  54.667  1.00  0.00    -0.356 OA
HETATM   21  C1  UNL     1      28.681   0.375  54.772  1.00  0.00     0.210 C 
ENDBRANCH  16  20
ENDBRANCH  11  12
ENDBRANCH  10  11
ENDBRANCH   1  10
BRANCH   7  22
HETATM   22  N4  UNL     1      27.051   6.255  49.404  1.00  0.00    -0.343 N 
HETATM   23  H20 UNL     1      27.863   5.924  50.003  1.00  0.00     0.163 HD
BRANCH  22  24
HETATM   24  C15 UNL     1      27.365   6.965  48.239  1.00  0.00     0.032 A 
HETATM   25  C16 UNL     1      28.665   7.015  47.724  1.00  0.00     0.029 A 
HETATM   26  C17 UNL     1      28.973   7.707  46.587  1.00  0.00     0.004 A 
HETATM   27  C18 UNL     1      28.010   8.397  45.881  1.00  0.00     0.019 A 
HETATM   28  C19 UNL     1      26.709   8.381  46.345  1.00  0.00     0.013 A 
HETATM   29 BR1  UNL     1      25.377   9.328  45.380  1.00  0.00    -0.051 Br
HETATM   30  C20 UNL     1      26.433   7.666  47.507  1.00  0.00     0.048 A 
ENDBRANCH  22  24
ENDBRANCH   7  22
BRANCH   4  31
HETATM   31  N2  UNL     1      21.707   7.233  51.280  1.00  0.00     0.108 N 
HETATM   32  H16 UNL     1      20.967   6.538  51.026  1.00  0.00     0.316 HD
HETATM   33  H17 UNL     1      21.302   8.173  51.421  1.00  0.00     0.316 HD
ENDBRANCH   4  31
TORSDOF 8
ENDMDL
MODEL 5
REMARK VINA RESULT:      -7.7      4.096      8.347
REMARK  8 active torsions:
REMARK  status: ('A' for Active; 'I' for Inactive)
REMARK    1  A    between atoms: O1_2  and  C2_3 
REMARK    2  A    between atoms: C5_6  and  O2_7 
REMARK    3  A    between atoms: C7_9  and  C8_10 
REMARK    4  A    between atoms: C8_10  and  C9_11 
REMARK    5  A    between atoms: C9_11  and  C10_12 
REMARK    6  A    between atoms: C12_15  and  N2_16 
REMARK    7  A    between atoms: C14_19  and  N4_20 
REMARK    8  A    between atoms: N4_20  and  C15_21 
ROOT
HETATM    1  C10 UNL     1      25.470   3.517  50.817  1.00  0.00     0.265 C 
HETATM    2  C11 UNL     1      26.213   2.255  51.087  1.00  0.00     0.121 C 
HETATM    3  N1  UNL     1      26.776   1.545  52.018  1.00  0.00    -0.264 NA
HETATM    4  C12 UNL     1      26.881   1.837  53.443  1.00  0.00     0.379 C 
HETATM    5  C13 UNL     1      25.607   2.503  53.907  1.00  0.00     0.145 C 
HETATM    6  N3  UNL     1      24.449   2.647  53.327  1.00  0.00    -0.248 NA
HETATM    7  C14 UNL     1      23.904   2.258  52.059  1.00  0.00     0.447 C 
HETATM    8  N5  UNL     1      24.069   3.270  51.037  1.00  0.00     0.137 N 
HETATM    9  H25 UNL     1      23.664   2.877  50.164  1.00  0.00     0.322 HD
ENDROOT
BRANCH   1  10
HETATM   10  C9  UNL     1      25.769   3.884  49.378  1.00  0.00     0.046 C 
BRANCH  10  11
HETATM   11  C8  UNL     1      27.194   4.274  49.144  1.00  0.00     0.044 C 
BRANCH  11  12
HETATM   12  C7  UNL     1      27.299   5.631  48.532  1.00  0.00    -0.022 A 
HETATM   13  C5  UNL     1      28.589   5.992  48.139  1.00  0.00     0.074 A 
HETATM   14  C4  UNL     1      28.721   7.259  47.562  1.00  0.00     0.040 A 
HETATM   15  C3  UNL     1      27.677   8.136  47.368  1.00  0.00     0.039 A 
HETATM   16  C2  UNL     1      26.408   7.729  47.777  1.00  0.00     0.068 A 
HETATM   17  C21 UNL     1      26.234   6.487  48.351  1.00  0.00     0.046 A 
BRANCH  13  18
HETATM   18  O2  UNL     1      29.672   5.142  48.315  1.00  0.00    -0.355 OA
HETATM   19  C6  UNL     1      30.932   5.741  48.554  1.00  0.00     0.210 C 
ENDBRANCH  13  18
BRANCH  16  20
HETATM   20  O1  UNL     1      25.386   8.613  47.576  1.00  0.00    -0.356 OA
HETATM   21  C1  UNL     1      24.099   8.477  48.165  1.00  0.00     0.210 C 
ENDBRANCH  16  20
ENDBRANCH  11  12
ENDBRANCH  10  11
ENDBRANCH   1  10
BRANCH   7  22
HETATM   22  N4  UNL     1      22.502   1.940  52.259  1.00  0.00    -0.343 N 
HETATM   23  H20 UNL     1      21.788   2.634  51.889  1.00  0.00     0.163 HD
BRANCH  22  24
HETATM   24  C15 UNL     1      22.008   0.797  52.900  1.00  0.00     0.032 A 
HETATM   25  C16 UNL     1      22.824  -0.037  53.673  1.00  0.00     0.029 A 
HETATM   26  C17 UNL     1      22.344  -1.151  54.299  1.00  0.00     0.004 A 
HETATM   27  C18 UNL     1      21.017  -1.516  54.203  1.00  0.00     0.019 A 
HETATM   28  C19 UNL     1      20.166  -0.728  53.452  1.00  0.00     0.013 A 
HETATM   29 BR1  UNL     1      18.339  -1.223  53.313  1.00  0.00    -0.051 Br
HETATM   30  C20 UNL     1      20.691   0.400  52.828  1.00  0.00     0.048 A 
ENDBRANCH  22  24
ENDBRANCH   7  22
BRANCH   4  31
HETATM   31  N2  UNL     1      28.030   2.664  53.655  1.00  0.00     0.108 N 
HETATM   32  H16 UNL     1      28.027   3.471  52.989  1.00  0.00     0.316 HD
HETATM   33  H17 UNL     1      28.893   2.104  53.557  1.00  0.00     0.316 HD
ENDBRANCH   4  31
TORSDOF 8
ENDMDL
MODEL 6
REMARK VINA RESULT:      -7.7      4.194      6.720
REMARK  8 active torsions:
REMARK  status: ('A' for Active; 'I' for Inactive)
REMARK    1  A    between atoms: O1_2  and  C2_3 
REMARK    2  A    between atoms: C5_6  and  O2_7 
REMARK    3  A    between atoms: C7_9  and  C8_10 
REMARK    4  A    between atoms: C8_10  and  C9_11 
REMARK    5  A    between atoms: C9_11  and  C10_12 
REMARK    6  A    between atoms: C12_15  and  N2_16 
REMARK    7  A    between atoms: C14_19  and  N4_20 
REMARK    8  A    between atoms: N4_20  and  C15_21 
ROOT
HETATM    1  C10 UNL     1      23.347   5.328  52.075  1.00  0.00     0.265 C 
HETATM    2  C11 UNL     1      23.012   4.927  50.681  1.00  0.00     0.121 C 
HETATM    3  N1  UNL     1      22.274   5.218  49.653  1.00  0.00    -0.264 NA
HETATM    4  C12 UNL     1      21.304   6.297  49.508  1.00  0.00     0.379 C 
HETATM    5  C13 UNL     1      21.818   7.524  50.223  1.00  0.00     0.145 C 
HETATM    6  N3  UNL     1      22.989   7.805  50.721  1.00  0.00    -0.248 NA
HETATM    7  C14 UNL     1      24.239   7.108  50.804  1.00  0.00     0.447 C 
HETATM    8  N5  UNL     1      24.376   6.333  52.019  1.00  0.00     0.137 N 
HETATM    9  H25 UNL     1      25.299   5.856  51.963  1.00  0.00     0.322 HD
ENDROOT
BRANCH   1  10
HETATM   10  C9  UNL     1      23.813   4.068  52.777  1.00  0.00     0.046 C 
BRANCH  10  11
HETATM   11  C8  UNL     1      24.653   3.180  51.916  1.00  0.00     0.044 C 
BRANCH  11  12
HETATM   12  C7  UNL     1      24.743   1.799  52.475  1.00  0.00    -0.022 A 
HETATM   13  C5  UNL     1      26.047   1.329  52.651  1.00  0.00     0.074 A 
HETATM   14  C4  UNL     1      26.166   0.038  53.175  1.00  0.00     0.040 A 
HETATM   15  C3  UNL     1      25.099  -0.764  53.513  1.00  0.00     0.039 A 
HETATM   16  C2  UNL     1      23.818  -0.249  53.319  1.00  0.00     0.068 A 
HETATM   17  C21 UNL     1      23.655   1.020  52.805  1.00  0.00     0.046 A 
BRANCH  13  18
HETATM   18  O2  UNL     1      27.153   2.101  52.324  1.00  0.00    -0.355 OA
HETATM   19  C6  UNL     1      28.138   2.275  53.326  1.00  0.00     0.210 C 
ENDBRANCH  13  18
BRANCH  16  20
HETATM   20  O1  UNL     1      22.773  -1.061  53.660  1.00  0.00    -0.356 OA
HETATM   21  C1  UNL     1      22.035  -0.929  54.869  1.00  0.00     0.210 C 
ENDBRANCH  16  20
ENDBRANCH  11  12
ENDBRANCH  10  11
ENDBRANCH   1  10
BRANCH   7  22
HETATM   22  N4  UNL     1      25.302   8.089  50.687  1.00  0.00    -0.343 N 
HETATM   23  H20 UNL     1      25.210   8.978  51.261  1.00  0.00     0.163 HD
BRANCH  22  24
HETATM   24  C15 UNL     1      26.440   7.967  49.880  1.00  0.00     0.032 A 
HETATM   25  C16 UNL     1      26.626   6.886  49.010  1.00  0.00     0.029 A 
HETATM   26  C17 UNL     1      27.735   6.766  48.223  1.00  0.00     0.004 A 
HETATM   27  C18 UNL     1      28.738   7.711  48.242  1.00  0.00     0.019 A 
HETATM   28  C19 UNL     1      28.607   8.800  49.083  1.00  0.00     0.013 A 
HETATM   29 BR1  UNL     1      29.983  10.106  49.118  1.00  0.00    -0.051 Br
HETATM   30  C20 UNL     1      27.464   8.889  49.872  1.00  0.00     0.048 A 
ENDBRANCH  22  24
ENDBRANCH   7  22
BRANCH   4  31
HETATM   31  N2  UNL     1      20.048   5.854  50.033  1.00  0.00     0.108 N 
HETATM   32  H16 UNL     1      19.893   4.846  49.803  1.00  0.00     0.316 HD
HETATM   33  H17 UNL     1      19.282   6.442  49.663  1.00  0.00     0.316 HD
ENDBRANCH   4  31
TORSDOF 8
ENDMDL
MODEL 7
REMARK VINA RESULT:      -7.6      5.210      9.838
REMARK  8 active torsions:
REMARK  status: ('A' for Active; 'I' for Inactive)
REMARK    1  A    between atoms: O1_2  and  C2_3 
REMARK    2  A    between atoms: C5_6  and  O2_7 
REMARK    3  A    between atoms: C7_9  and  C8_10 
REMARK    4  A    between atoms: C8_10  and  C9_11 
REMARK    5  A    between atoms: C9_11  and  C10_12 
REMARK    6  A    between atoms: C12_15  and  N2_16 
REMARK    7  A    between atoms: C14_19  and  N4_20 
REMARK    8  A    between atoms: N4_20  and  C15_21 
ROOT
HETATM    1  C10 UNL     1      25.057   5.296  49.771  1.00  0.00     0.265 C 
HETATM    2  C11 UNL     1      25.041   6.700  50.268  1.00  0.00     0.121 C 
HETATM    3  N1  UNL     1      24.267   7.694  50.582  1.00  0.00    -0.264 NA
HETATM    4  C12 UNL     1      22.811   7.761  50.536  1.00  0.00     0.379 C 
HETATM    5  C13 UNL     1      22.241   6.425  50.950  1.00  0.00     0.145 C 
HETATM    6  N3  UNL     1      22.798   5.382  51.499  1.00  0.00    -0.248 NA
HETATM    7  C14 UNL     1      24.127   5.063  51.929  1.00  0.00     0.447 C 
HETATM    8  N5  UNL     1      24.916   4.417  50.902  1.00  0.00     0.137 N 
HETATM    9  H25 UNL     1      25.858   4.254  51.311  1.00  0.00     0.322 HD
ENDROOT
BRANCH   1  10
HETATM   10  C9  UNL     1      26.384   5.113  49.063  1.00  0.00     0.046 C 
BRANCH  10  11
HETATM   11  C8  UNL     1      26.825   6.319  48.297  1.00  0.00     0.044 C 
BRANCH  11  12
HETATM   12  C7  UNL     1      28.302   6.511  48.377  1.00  0.00    -0.022 A 
HETATM   13  C5  UNL     1      28.705   7.832  48.587  1.00  0.00     0.074 A 
HETATM   14  C4  UNL     1      30.085   8.046  48.668  1.00  0.00     0.040 A 
HETATM   15  C3  UNL     1      31.032   7.053  48.554  1.00  0.00     0.039 A 
HETATM   16  C2  UNL     1      30.579   5.750  48.345  1.00  0.00     0.068 A 
HETATM   17  C21 UNL     1      29.227   5.495  48.260  1.00  0.00     0.046 A 
BRANCH  13  18
HETATM   18  O2  UNL     1      27.787   8.866  48.707  1.00  0.00    -0.355 OA
HETATM   19  C6  UNL     1      27.666   9.478  49.978  1.00  0.00     0.210 C 
ENDBRANCH  13  18
BRANCH  16  20
HETATM   20  O1  UNL     1      31.535   4.780  48.235  1.00  0.00    -0.356 OA
HETATM   21  C1  UNL     1      32.107   4.374  46.999  1.00  0.00     0.210 C 
ENDBRANCH  16  20
ENDBRANCH  11  12
ENDBRANCH  10  11
ENDBRANCH   1  10
BRANCH   7  22
HETATM   22  N4  UNL     1      24.020   4.226  53.111  1.00  0.00    -0.343 N 
HETATM   23  H20 UNL     1      23.710   4.693  54.012  1.00  0.00     0.163 HD
BRANCH  22  24
HETATM   24  C15 UNL     1      24.293   2.853  53.165  1.00  0.00     0.032 A 
HETATM   25  C16 UNL     1      23.375   1.892  52.726  1.00  0.00     0.029 A 
HETATM   26  C17 UNL     1      23.639   0.554  52.777  1.00  0.00     0.004 A 
HETATM   27  C18 UNL     1      24.835   0.074  53.269  1.00  0.00     0.019 A 
HETATM   28  C19 UNL     1      25.778   0.979  53.717  1.00  0.00     0.013 A 
HETATM   29 BR1  UNL     1      27.426   0.328  54.396  1.00  0.00    -0.051 Br
HETATM   30  C20 UNL     1      25.474   2.335  53.649  1.00  0.00     0.048 A 
ENDBRANCH  22  24
ENDBRANCH   7  22
BRANCH   4  31
HETATM   31  N2  UNL     1      22.413   8.131  49.212  1.00  0.00     0.108 N 
HETATM   32  H16 UNL     1      21.370   8.121  49.129  1.00  0.00     0.316 HD
HETATM   33  H17 UNL     1      22.848   7.496  48.521  1.00  0.00     0.316 HD
ENDBRANCH   4  31
TORSDOF 8
ENDMDL
MODEL 8
REMARK VINA RESULT:      -7.6      4.088      6.674
REMARK  8 active torsions:
REMARK  status: ('A' for Active; 'I' for Inactive)
REMARK    1  A    between atoms: O1_2  and  C2_3 
REMARK    2  A    between atoms: C5_6  and  O2_7 
REMARK    3  A    between atoms: C7_9  and  C8_10 
REMARK    4  A    between atoms: C8_10  and  C9_11 
REMARK    5  A    between atoms: C9_11  and  C10_12 
REMARK    6  A    between atoms: C12_15  and  N2_16 
REMARK    7  A    between atoms: C14_19  and  N4_20 
REMARK    8  A    between atoms: N4_20  and  C15_21 
ROOT
HETATM    1  C10 UNL     1      25.699   3.809  50.850  1.00  0.00     0.265 C 
HETATM    2  C11 UNL     1      24.281   3.861  50.396  1.00  0.00     0.121 C 
HETATM    3  N1  UNL     1      23.182   4.549  50.458  1.00  0.00    -0.264 NA
HETATM    4  C12 UNL     1      22.933   5.798  51.169  1.00  0.00     0.379 C 
HETATM    5  C13 UNL     1      24.163   6.669  51.084  1.00  0.00     0.145 C 
HETATM    6  N3  UNL     1      25.239   6.574  50.356  1.00  0.00    -0.248 NA
HETATM    7  C14 UNL     1      25.704   5.647  49.366  1.00  0.00     0.447 C 
HETATM    8  N5  UNL     1      26.495   4.571  49.924  1.00  0.00     0.137 N 
HETATM    9  H25 UNL     1      26.756   3.953  49.129  1.00  0.00     0.322 HD
ENDROOT
BRANCH   1  10
HETATM   10  C9  UNL     1      26.084   2.344  50.869  1.00  0.00     0.046 C 
BRANCH  10  11
HETATM   11  C8  UNL     1      26.816   1.934  52.106  1.00  0.00     0.044 C 
BRANCH  11  12
HETATM   12  C7  UNL     1      26.004   1.001  52.941  1.00  0.00    -0.022 A 
HETATM   13  C5  UNL     1      26.597   0.641  54.153  1.00  0.00     0.074 A 
HETATM   14  C4  UNL     1      25.861  -0.233  54.959  1.00  0.00     0.040 A 
HETATM   15  C3  UNL     1      24.625  -0.738  54.628  1.00  0.00     0.039 A 
HETATM   16  C2  UNL     1      24.075  -0.350  53.407  1.00  0.00     0.068 A 
HETATM   17  C21 UNL     1      24.767   0.511  52.581  1.00  0.00     0.046 A 
BRANCH  13  18
HETATM   18  O2  UNL     1      27.843   1.125  54.530  1.00  0.00    -0.355 OA
HETATM   19  C6  UNL     1      28.882   0.178  54.688  1.00  0.00     0.210 C 
ENDBRANCH  13  18
BRANCH  16  20
HETATM   20  O1  UNL     1      22.847  -0.863  53.096  1.00  0.00    -0.356 OA
HETATM   21  C1  UNL     1      21.857  -0.149  52.366  1.00  0.00     0.210 C 
ENDBRANCH  16  20
ENDBRANCH  11  12
ENDBRANCH  10  11
ENDBRANCH   1  10
BRANCH   7  22
HETATM   22  N4  UNL     1      26.461   6.396  48.379  1.00  0.00    -0.343 N 
HETATM   23  H20 UNL     1      25.925   6.792  47.552  1.00  0.00     0.163 HD
BRANCH  22  24
HETATM   24  C15 UNL     1      27.839   6.641  48.422  1.00  0.00     0.032 A 
HETATM   25  C16 UNL     1      28.783   5.644  48.153  1.00  0.00     0.029 A 
HETATM   26  C17 UNL     1      30.127   5.882  48.194  1.00  0.00     0.004 A 
HETATM   27  C18 UNL     1      30.629   7.128  48.504  1.00  0.00     0.019 A 
HETATM   28  C19 UNL     1      29.741   8.150  48.779  1.00  0.00     0.013 A 
HETATM   29 BR1  UNL     1      30.422   9.869  49.208  1.00  0.00    -0.051 Br
HETATM   30  C20 UNL     1      28.379   7.871  48.728  1.00  0.00     0.048 A 
ENDBRANCH  22  24
ENDBRANCH   7  22
BRANCH   4  31
HETATM   31  N2  UNL     1      22.581   5.490  52.522  1.00  0.00     0.108 N 
HETATM   32  H16 UNL     1      23.096   6.116  53.183  1.00  0.00     0.316 HD
HETATM   33  H17 UNL     1      22.778   4.495  52.722  1.00  0.00     0.316 HD
ENDBRANCH   4  31
TORSDOF 8
ENDMDL
MODEL 9
REMARK VINA RESULT:      -7.6      3.055      7.340
REMARK  8 active torsions:
REMARK  status: ('A' for Active; 'I' for Inactive)
REMARK    1  A    between atoms: O1_2  and  C2_3 
REMARK    2  A    between atoms: C5_6  and  O2_7 
REMARK    3  A    between atoms: C7_9  and  C8_10 
REMARK    4  A    between atoms: C8_10  and  C9_11 
REMARK    5  A    between atoms: C9_11  and  C10_12 
REMARK    6  A    between atoms: C12_15  and  N2_16 
REMARK    7  A    between atoms: C14_19  and  N4_20 
REMARK    8  A    between atoms: N4_20  and  C15_21 
ROOT
HETATM    1  C10 UNL     1      25.106   2.634  52.648  1.00  0.00     0.265 C 
HETATM    2  C11 UNL     1      26.351   2.113  52.018  1.00  0.00     0.121 C 
HETATM    3  N1  UNL     1      27.506   1.572  52.263  1.00  0.00    -0.264 NA
HETATM    4  C12 UNL     1      28.085   1.217  53.554  1.00  0.00     0.379 C 
HETATM    5  C13 UNL     1      26.994   0.701  54.462  1.00  0.00     0.145 C 
HETATM    6  N3  UNL     1      25.762   0.353  54.218  1.00  0.00    -0.248 NA
HETATM    7  C14 UNL     1      24.944   0.311  53.042  1.00  0.00     0.447 C 
HETATM    8  N5  UNL     1      24.197   1.532  52.826  1.00  0.00     0.137 N 
HETATM    9  H25 UNL     1      23.663   1.400  51.944  1.00  0.00     0.322 HD
ENDROOT
BRANCH   1  10
HETATM   10  C9  UNL     1      24.559   3.681  51.700  1.00  0.00     0.046 C 
BRANCH  10  11
HETATM   11  C8  UNL     1      24.742   3.335  50.256  1.00  0.00     0.044 C 
BRANCH  11  12
HETATM   12  C7  UNL     1      25.603   4.334  49.557  1.00  0.00    -0.022 A 
HETATM   13  C5  UNL     1      24.948   5.514  49.198  1.00  0.00     0.074 A 
HETATM   14  C4  UNL     1      25.727   6.471  48.541  1.00  0.00     0.040 A 
HETATM   15  C3  UNL     1      27.061   6.313  48.242  1.00  0.00     0.039 A 
HETATM   16  C2  UNL     1      27.670   5.117  48.621  1.00  0.00     0.068 A 
HETATM   17  C21 UNL     1      26.938   4.146  49.271  1.00  0.00     0.046 A 
BRANCH  13  18
HETATM   18  O2  UNL     1      23.603   5.718  49.478  1.00  0.00    -0.355 OA
HETATM   19  C6  UNL     1      22.732   5.879  48.374  1.00  0.00     0.210 C 
ENDBRANCH  13  18
BRANCH  16  20
HETATM   20  O1  UNL     1      28.995   4.980  48.315  1.00  0.00    -0.356 OA
HETATM   21  C1  UNL     1      29.834   6.066  47.942  1.00  0.00     0.210 C 
ENDBRANCH  16  20
ENDBRANCH  11  12
ENDBRANCH  10  11
ENDBRANCH   1  10
BRANCH   7  22
HETATM   22  N4  UNL     1      24.056  -0.832  53.162  1.00  0.00    -0.343 N 
HETATM   23  H20 UNL     1      24.501  -1.796  53.173  1.00  0.00     0.163 HD
BRANCH  22  24
HETATM   24  C15 UNL     1      22.660  -0.773  53.264  1.00  0.00     0.032 A 
HETATM   25  C16 UNL     1      21.967  -1.330  54.345  1.00  0.00     0.029 A 
HETATM   26  C17 UNL     1      20.606  -1.273  54.446  1.00  0.00     0.004 A 
HETATM   27  C18 UNL     1      19.838  -0.656  53.481  1.00  0.00     0.019 A 
HETATM   28  C19 UNL     1      20.471  -0.089  52.392  1.00  0.00     0.013 A 
HETATM   29 BR1  UNL     1      19.421   0.761  51.059  1.00  0.00    -0.051 Br
HETATM   30  C20 UNL     1      21.858  -0.167  52.322  1.00  0.00     0.048 A 
ENDBRANCH  22  24
ENDBRANCH   7  22
BRANCH   4  31
HETATM   31  N2  UNL     1      28.736   2.372  54.094  1.00  0.00     0.108 N 
HETATM   32  H16 UNL     1      28.302   2.640  55.008  1.00  0.00     0.316 HD
HETATM   33  H17 UNL     1      28.692   3.152  53.418  1.00  0.00     0.316 HD
ENDBRANCH   4  31
TORSDOF 8
ENDMDL
