MODEL 1
REMARK VINA RESULT:      -7.1      0.000      0.000
REMARK  8 active torsions:
REMARK  status: ('A' for Active; 'I' for Inactive)
REMARK    1  A    between atoms: O1_2  and  C2_3 
REMARK    2  A    between atoms: C9_12  and  C10_13 
REMARK    3  A    between atoms: C11_14  and  N2_15 
REMARK    4  A    between atoms: N2_15  and  C12_16 
REMARK    5  A    between atoms: C13_17  and  C14_18 
REMARK    6  A    between atoms: C14_18  and  C15_19 
REMARK    7  A    between atoms: C15_19  and  C16_20 
REMARK    8  A    between atoms: C16_20  and  O4_22 
ROOT
HETATM    1  C2  UNL     1      26.784   0.098  54.434  1.00  0.00     0.070 A 
HETATM    2  C3  UNL     1      26.356   0.691  53.257  1.00  0.00     0.037 A 
HETATM    3  C4  UNL     1      25.011   0.509  52.935  1.00  0.00     0.013 A 
HETATM    4  C5  UNL     1      24.142  -0.220  53.739  1.00  0.00    -0.014 A 
HETATM    5  C6  UNL     1      24.626  -0.789  54.901  1.00  0.00     0.044 A 
HETATM    6  C7  UNL     1      25.955  -0.638  55.266  1.00  0.00     0.066 A 
HETATM    7  N1  UNL     1      23.539  -1.481  55.541  1.00  0.00    -0.326 N 
HETATM    8  C8  UNL     1      22.362  -1.331  54.751  1.00  0.00     0.234 A 
HETATM    9  O2  UNL     1      21.237  -1.822  55.041  1.00  0.00    -0.272 OA
HETATM   10  C9  UNL     1      22.693  -0.514  53.556  1.00  0.00     0.137 A 
HETATM   11  H7  UNL     1      23.555  -2.027  56.450  1.00  0.00     0.169 HD
ENDROOT
BRANCH  10  12
HETATM   12  C10 UNL     1      21.877   0.722  53.464  1.00  0.00     0.009 C 
HETATM   13  C11 UNL     1      21.363   1.248  52.372  1.00  0.00     0.084 C 
BRANCH  13  14
HETATM   14  N2  UNL     1      21.604   0.574  51.142  1.00  0.00    -0.376 N 
HETATM   15  H11 UNL     1      21.195  -0.356  50.904  1.00  0.00     0.164 HD
BRANCH  14  16
HETATM   16  C12 UNL     1      22.472   1.344  50.301  1.00  0.00     0.083 C 
HETATM   17  C13 UNL     1      23.174   2.450  50.491  1.00  0.00    -0.009 C 
BRANCH  17  18
HETATM   18  C14 UNL     1      24.072   3.226  49.582  1.00  0.00     0.039 C 
BRANCH  18  19
HETATM   19  C15 UNL     1      24.871   4.255  50.348  1.00  0.00     0.113 C 
BRANCH  19  20
HETATM   20  C16 UNL     1      26.310   3.911  50.093  1.00  0.00     0.139 C 
HETATM   21  O3  UNL     1      26.838   4.183  48.981  1.00  0.00    -0.650 OA
BRANCH  20  22
HETATM   22  O4  UNL     1      27.161   3.291  51.007  1.00  0.00    -0.776 OA
HETATM   23  H18 UNL     1      28.074   3.665  51.217  1.00  0.00     0.167 HD
ENDBRANCH  20  22
ENDBRANCH  19  20
ENDBRANCH  18  19
ENDBRANCH  17  18
ENDBRANCH  14  16
ENDBRANCH  13  14
ENDBRANCH  10  12
BRANCH   1  24
HETATM   24  O1  UNL     1      28.106   0.212  54.855  1.00  0.00    -0.356 OA
HETATM   25  C1  UNL     1      29.207  -0.286  54.151  1.00  0.00     0.210 C 
ENDBRANCH   1  24
TORSDOF 8
ENDMDL
MODEL 2
REMARK VINA RESULT:      -7.1      2.222      2.908
REMARK  8 active torsions:
REMARK  status: ('A' for Active; 'I' for Inactive)
REMARK    1  A    between atoms: O1_2  and  C2_3 
REMARK    2  A    between atoms: C9_12  and  C10_13 
REMARK    3  A    between atoms: C11_14  and  N2_15 
REMARK    4  A    between atoms: N2_15  and  C12_16 
REMARK    5  A    between atoms: C13_17  and  C14_18 
REMARK    6  A    between atoms: C14_18  and  C15_19 
REMARK    7  A    between atoms: C15_19  and  C16_20 
REMARK    8  A    between atoms: C16_20  and  O4_22 
ROOT
HETATM    1  C2  UNL     1      27.152  -0.475  53.280  1.00  0.00     0.070 A 
HETATM    2  C3  UNL     1      27.400   0.625  52.476  1.00  0.00     0.037 A 
HETATM    3  C4  UNL     1      26.288   1.398  52.139  1.00  0.00     0.013 A 
HETATM    4  C5  UNL     1      25.005   1.093  52.578  1.00  0.00    -0.014 A 
HETATM    5  C6  UNL     1      24.820  -0.018  53.377  1.00  0.00     0.044 A 
HETATM    6  C7  UNL     1      25.891  -0.819  53.740  1.00  0.00     0.066 A 
HETATM    7  N1  UNL     1      23.417  -0.110  53.688  1.00  0.00    -0.326 N 
HETATM    8  C8  UNL     1      22.730   0.972  53.064  1.00  0.00     0.234 A 
HETATM    9  O2  UNL     1      21.488   1.174  53.145  1.00  0.00    -0.272 OA
HETATM   10  C9  UNL     1      23.717   1.797  52.321  1.00  0.00     0.137 A 
HETATM   11  H7  UNL     1      22.924  -0.839  54.279  1.00  0.00     0.169 HD
ENDROOT
BRANCH  10  12
HETATM   12  C10 UNL     1      23.746   3.207  52.782  1.00  0.00     0.009 C 
HETATM   13  C11 UNL     1      23.707   4.283  52.025  1.00  0.00     0.084 C 
BRANCH  13  14
HETATM   14  N2  UNL     1      23.627   4.095  50.617  1.00  0.00    -0.376 N 
HETATM   15  H11 UNL     1      22.780   3.728  50.131  1.00  0.00     0.164 HD
BRANCH  14  16
HETATM   16  C12 UNL     1      24.855   4.474  49.981  1.00  0.00     0.083 C 
HETATM   17  C13 UNL     1      25.928   3.797  49.603  1.00  0.00    -0.009 C 
BRANCH  17  18
HETATM   18  C14 UNL     1      27.196   4.232  48.941  1.00  0.00     0.039 C 
BRANCH  18  19
HETATM   19  C15 UNL     1      27.176   5.713  48.639  1.00  0.00     0.113 C 
BRANCH  19  20
HETATM   20  C16 UNL     1      28.599   6.075  48.329  1.00  0.00     0.139 C 
HETATM   21  O3  UNL     1      28.864   6.807  47.338  1.00  0.00    -0.650 OA
BRANCH  20  22
HETATM   22  O4  UNL     1      29.709   5.664  49.065  1.00  0.00    -0.776 OA
HETATM   23  H18 UNL     1      30.624   6.058  48.905  1.00  0.00     0.167 HD
ENDBRANCH  20  22
ENDBRANCH  19  20
ENDBRANCH  18  19
ENDBRANCH  17  18
ENDBRANCH  14  16
ENDBRANCH  13  14
ENDBRANCH  10  12
BRANCH   1  24
HETATM   24  O1  UNL     1      28.185  -1.319  53.678  1.00  0.00    -0.356 OA
HETATM   25  C1  UNL     1      29.537  -0.959  53.703  1.00  0.00     0.210 C 
ENDBRANCH   1  24
TORSDOF 8
ENDMDL
MODEL 3
REMARK VINA RESULT:      -6.8      1.908      5.299
REMARK  8 active torsions:
REMARK  status: ('A' for Active; 'I' for Inactive)
REMARK    1  A    between atoms: O1_2  and  C2_3 
REMARK    2  A    between atoms: C9_12  and  C10_13 
REMARK    3  A    between atoms: C11_14  and  N2_15 
REMARK    4  A    between atoms: N2_15  and  C12_16 
REMARK    5  A    between atoms: C13_17  and  C14_18 
REMARK    6  A    between atoms: C14_18  and  C15_19 
REMARK    7  A    between atoms: C15_19  and  C16_20 
REMARK    8  A    between atoms: C16_20  and  O4_22 
ROOT
HETATM    1  C2  UNL     1      26.866   0.234  53.516  1.00  0.00     0.070 A 
HETATM    2  C3  UNL     1      25.503   0.061  53.692  1.00  0.00     0.037 A 
HETATM    3  C4  UNL     1      24.680   0.947  52.997  1.00  0.00     0.013 A 
HETATM    4  C5  UNL     1      25.185   1.947  52.175  1.00  0.00    -0.014 A 
HETATM    5  C6  UNL     1      26.553   2.071  52.038  1.00  0.00     0.044 A 
HETATM    6  C7  UNL     1      27.415   1.216  52.707  1.00  0.00     0.066 A 
HETATM    7  N1  UNL     1      26.811   3.169  51.144  1.00  0.00    -0.326 N 
HETATM    8  C8  UNL     1      25.569   3.728  50.724  1.00  0.00     0.234 A 
HETATM    9  O2  UNL     1      25.454   4.706  49.936  1.00  0.00    -0.272 OA
HETATM   10  C9  UNL     1      24.465   2.971  51.365  1.00  0.00     0.137 A 
HETATM   11  H7  UNL     1      27.748   3.542  50.818  1.00  0.00     0.169 HD
ENDROOT
BRANCH  10  12
HETATM   12  C10 UNL     1      23.542   2.357  50.377  1.00  0.00     0.009 C 
HETATM   13  C11 UNL     1      22.227   2.405  50.392  1.00  0.00     0.084 C 
BRANCH  13  14
HETATM   14  N2  UNL     1      21.608   3.116  51.459  1.00  0.00    -0.376 N 
HETATM   15  H11 UNL     1      21.578   4.157  51.518  1.00  0.00     0.164 HD
BRANCH  14  16
HETATM   16  C12 UNL     1      21.045   2.209  52.416  1.00  0.00     0.083 C 
HETATM   17  C13 UNL     1      21.109   0.896  52.569  1.00  0.00    -0.009 C 
BRANCH  17  18
HETATM   18  C14 UNL     1      20.504  -0.017  53.586  1.00  0.00     0.039 C 
BRANCH  18  19
HETATM   19  C15 UNL     1      21.321  -0.041  54.857  1.00  0.00     0.113 C 
BRANCH  19  20
HETATM   20  C16 UNL     1      22.025  -1.367  54.853  1.00  0.00     0.139 C 
HETATM   21  O3  UNL     1      21.810  -2.193  53.926  1.00  0.00    -0.650 OA
BRANCH  20  22
HETATM   22  O4  UNL     1      22.935  -1.794  55.818  1.00  0.00    -0.776 OA
HETATM   23  H18 UNL     1      23.918  -1.579  55.748  1.00  0.00     0.167 HD
ENDBRANCH  20  22
ENDBRANCH  19  20
ENDBRANCH  18  19
ENDBRANCH  17  18
ENDBRANCH  14  16
ENDBRANCH  13  14
ENDBRANCH  10  12
BRANCH   1  24
HETATM   24  O1  UNL     1      27.783  -0.592  54.160  1.00  0.00    -0.356 OA
HETATM   25  C1  UNL     1      29.058  -0.893  53.671  1.00  0.00     0.210 C 
ENDBRANCH   1  24
TORSDOF 8
ENDMDL
MODEL 4
REMARK VINA RESULT:      -6.7      2.153      4.533
REMARK  8 active torsions:
REMARK  status: ('A' for Active; 'I' for Inactive)
REMARK    1  A    between atoms: O1_2  and  C2_3 
REMARK    2  A    between atoms: C9_12  and  C10_13 
REMARK    3  A    between atoms: C11_14  and  N2_15 
REMARK    4  A    between atoms: N2_15  and  C12_16 
REMARK    5  A    between atoms: C13_17  and  C14_18 
REMARK    6  A    between atoms: C14_18  and  C15_19 
REMARK    7  A    between atoms: C15_19  and  C16_20 
REMARK    8  A    between atoms: C16_20  and  O4_22 
ROOT
HETATM    1  C2  UNL     1      21.501  -0.945  53.821  1.00  0.00     0.070 A 
HETATM    2  C3  UNL     1      21.708  -0.016  52.814  1.00  0.00     0.037 A 
HETATM    3  C4  UNL     1      23.007   0.480  52.699  1.00  0.00     0.013 A 
HETATM    4  C5  UNL     1      24.039   0.074  53.538  1.00  0.00    -0.014 A 
HETATM    5  C6  UNL     1      23.771  -0.854  54.524  1.00  0.00     0.044 A 
HETATM    6  C7  UNL     1      22.498  -1.379  54.680  1.00  0.00     0.066 A 
HETATM    7  N1  UNL     1      24.993  -1.100  55.244  1.00  0.00    -0.326 N 
HETATM    8  C8  UNL     1      26.032  -0.301  54.684  1.00  0.00     0.234 A 
HETATM    9  O2  UNL     1      27.225  -0.287  55.093  1.00  0.00    -0.272 OA
HETATM   10  C9  UNL     1      25.470   0.492  53.561  1.00  0.00     0.137 A 
HETATM   11  H7  UNL     1      25.151  -1.755  56.063  1.00  0.00     0.169 HD
ENDROOT
BRANCH  10  12
HETATM   12  C10 UNL     1      26.153   0.222  52.271  1.00  0.00     0.009 C 
HETATM   13  C11 UNL     1      26.808   1.090  51.531  1.00  0.00     0.084 C 
BRANCH  13  14
HETATM   14  N2  UNL     1      26.880   2.432  51.999  1.00  0.00    -0.376 N 
HETATM   15  H11 UNL     1      27.462   2.729  52.813  1.00  0.00     0.164 HD
BRANCH  14  16
HETATM   16  C12 UNL     1      26.053   3.294  51.206  1.00  0.00     0.083 C 
HETATM   17  C13 UNL     1      26.026   3.591  49.916  1.00  0.00    -0.009 C 
BRANCH  17  18
HETATM   18  C14 UNL     1      25.143   4.500  49.124  1.00  0.00     0.039 C 
BRANCH  18  19
HETATM   19  C15 UNL     1      24.728   5.705  49.936  1.00  0.00     0.113 C 
BRANCH  19  20
HETATM   20  C16 UNL     1      25.832   6.706  49.758  1.00  0.00     0.139 C 
HETATM   21  O3  UNL     1      26.380   6.848  48.632  1.00  0.00    -0.650 OA
BRANCH  20  22
HETATM   22  O4  UNL     1      26.335   7.533  50.760  1.00  0.00    -0.776 OA
HETATM   23  H18 UNL     1      26.832   7.159  51.554  1.00  0.00     0.167 HD
ENDBRANCH  20  22
ENDBRANCH  19  20
ENDBRANCH  18  19
ENDBRANCH  17  18
ENDBRANCH  14  16
ENDBRANCH  13  14
ENDBRANCH  10  12
BRANCH   1  24
HETATM   24  O1  UNL     1      20.245  -1.507  54.029  1.00  0.00    -0.356 OA
HETATM   25  C1  UNL     1      19.069  -1.072  53.407  1.00  0.00     0.210 C 
ENDBRANCH   1  24
TORSDOF 8
ENDMDL
MODEL 5
REMARK VINA RESULT:      -6.6      2.992      5.199
REMARK  8 active torsions:
REMARK  status: ('A' for Active; 'I' for Inactive)
REMARK    1  A    between atoms: O1_2  and  C2_3 
REMARK    2  A    between atoms: C9_12  and  C10_13 
REMARK    3  A    between atoms: C11_14  and  N2_15 
REMARK    4  A    between atoms: N2_15  and  C12_16 
REMARK    5  A    between atoms: C13_17  and  C14_18 
REMARK    6  A    between atoms: C14_18  and  C15_19 
REMARK    7  A    between atoms: C15_19  and  C16_20 
REMARK    8  A    between atoms: C16_20  and  O4_22 
ROOT
HETATM    1  C2  UNL     1      23.457  -0.382  53.578  1.00  0.00     0.070 A 
HETATM    2  C3  UNL     1      22.953   0.521  52.657  1.00  0.00     0.037 A 
HETATM    3  C4  UNL     1      23.861   1.456  52.158  1.00  0.00     0.013 A 
HETATM    4  C5  UNL     1      25.193   1.489  52.554  1.00  0.00    -0.014 A 
HETATM    5  C6  UNL     1      25.638   0.562  53.476  1.00  0.00     0.044 A 
HETATM    6  C7  UNL     1      24.776  -0.388  54.002  1.00  0.00     0.066 A 
HETATM    7  N1  UNL     1      27.036   0.810  53.713  1.00  0.00    -0.326 N 
HETATM    8  C8  UNL     1      27.454   1.914  52.915  1.00  0.00     0.234 A 
HETATM    9  O2  UNL     1      28.626   2.381  52.895  1.00  0.00    -0.272 OA
HETATM   10  C9  UNL     1      26.291   2.404  52.132  1.00  0.00     0.137 A 
HETATM   11  H7  UNL     1      27.692   0.288  54.361  1.00  0.00     0.169 HD
ENDROOT
BRANCH  10  12
HETATM   12  C10 UNL     1      26.527   2.358  50.668  1.00  0.00     0.009 C 
HETATM   13  C11 UNL     1      26.433   3.364  49.824  1.00  0.00     0.084 C 
BRANCH  13  14
HETATM   14  N2  UNL     1      26.068   4.634  50.352  1.00  0.00    -0.376 N 
HETATM   15  H11 UNL     1      26.760   5.345  50.674  1.00  0.00     0.164 HD
BRANCH  14  16
HETATM   16  C12 UNL     1      24.642   4.785  50.376  1.00  0.00     0.083 C 
HETATM   17  C13 UNL     1      23.776   5.075  51.335  1.00  0.00    -0.009 C 
BRANCH  17  18
HETATM   18  C14 UNL     1      22.289   5.223  51.319  1.00  0.00     0.039 C 
BRANCH  18  19
HETATM   19  C15 UNL     1      21.642   4.377  52.392  1.00  0.00     0.113 C 
BRANCH  19  20
HETATM   20  C16 UNL     1      20.533   3.637  51.701  1.00  0.00     0.139 C 
HETATM   21  O3  UNL     1      20.759   3.022  50.624  1.00  0.00    -0.650 OA
BRANCH  20  22
HETATM   22  O4  UNL     1      19.218   3.559  52.153  1.00  0.00    -0.776 OA
HETATM   23  H18 UNL     1      18.622   4.373  52.189  1.00  0.00     0.167 HD
ENDBRANCH  20  22
ENDBRANCH  19  20
ENDBRANCH  18  19
ENDBRANCH  17  18
ENDBRANCH  14  16
ENDBRANCH  13  14
ENDBRANCH  10  12
BRANCH   1  24
HETATM   24  O1  UNL     1      22.642  -1.360  54.142  1.00  0.00    -0.356 OA
HETATM   25  C1  UNL     1      21.267  -1.219  54.355  1.00  0.00     0.210 C 
ENDBRANCH   1  24
TORSDOF 8
ENDMDL
MODEL 6
REMARK VINA RESULT:      -6.4      2.444      6.459
REMARK  8 active torsions:
REMARK  status: ('A' for Active; 'I' for Inactive)
REMARK    1  A    between atoms: O1_2  and  C2_3 
REMARK    2  A    between atoms: C9_12  and  C10_13 
REMARK    3  A    between atoms: C11_14  and  N2_15 
REMARK    4  A    between atoms: N2_15  and  C12_16 
REMARK    5  A    between atoms: C13_17  and  C14_18 
REMARK    6  A    between atoms: C14_18  and  C15_19 
REMARK    7  A    between atoms: C15_19  and  C16_20 
REMARK    8  A    between atoms: C16_20  and  O4_22 
ROOT
HETATM    1  C2  UNL     1      26.880   5.799  48.856  1.00  0.00     0.070 A 
HETATM    2  C3  UNL     1      27.179   4.449  48.932  1.00  0.00     0.037 A 
HETATM    3  C4  UNL     1      26.331   3.680  49.729  1.00  0.00     0.013 A 
HETATM    4  C5  UNL     1      25.248   4.224  50.410  1.00  0.00    -0.014 A 
HETATM    5  C6  UNL     1      25.000   5.577  50.295  1.00  0.00     0.044 A 
HETATM    6  C7  UNL     1      25.812   6.385  49.516  1.00  0.00     0.066 A 
HETATM    7  N1  UNL     1      23.837   5.882  51.088  1.00  0.00    -0.326 N 
HETATM    8  C8  UNL     1      23.365   4.685  51.701  1.00  0.00     0.234 A 
HETATM    9  O2  UNL     1      22.359   4.617  52.459  1.00  0.00    -0.272 OA
HETATM   10  C9  UNL     1      24.248   3.562  51.295  1.00  0.00     0.137 A 
HETATM   11  H7  UNL     1      23.368   6.822  51.227  1.00  0.00     0.169 HD
ENDROOT
BRANCH  10  12
HETATM   12  C10 UNL     1      23.511   2.478  50.597  1.00  0.00     0.009 C 
HETATM   13  C11 UNL     1      22.883   1.466  51.157  1.00  0.00     0.084 C 
BRANCH  13  14
HETATM   14  N2  UNL     1      22.901   1.387  52.578  1.00  0.00    -0.376 N 
HETATM   15  H11 UNL     1      22.278   1.952  53.196  1.00  0.00     0.164 HD
BRANCH  14  16
HETATM   16  C12 UNL     1      23.879   0.437  53.023  1.00  0.00     0.083 C 
HETATM   17  C13 UNL     1      25.137   0.549  53.421  1.00  0.00    -0.009 C 
BRANCH  17  18
HETATM   18  C14 UNL     1      26.129  -0.471  53.878  1.00  0.00     0.039 C 
BRANCH  18  19
HETATM   19  C15 UNL     1      27.409  -0.388  53.080  1.00  0.00     0.113 C 
BRANCH  19  20
HETATM   20  C16 UNL     1      28.497  -0.178  54.093  1.00  0.00     0.139 C 
HETATM   21  O3  UNL     1      28.312   0.601  55.066  1.00  0.00    -0.650 OA
BRANCH  20  22
HETATM   22  O4  UNL     1      29.749  -0.789  54.062  1.00  0.00    -0.776 OA
HETATM   23  H18 UNL     1      29.863  -1.747  53.769  1.00  0.00     0.167 HD
ENDBRANCH  20  22
ENDBRANCH  19  20
ENDBRANCH  18  19
ENDBRANCH  17  18
ENDBRANCH  14  16
ENDBRANCH  13  14
ENDBRANCH  10  12
BRANCH   1  24
HETATM   24  O1  UNL     1      27.658   6.663  48.090  1.00  0.00    -0.356 OA
HETATM   25  C1  UNL     1      28.253   7.833  48.575  1.00  0.00     0.210 C 
ENDBRANCH   1  24
TORSDOF 8
ENDMDL
MODEL 7
REMARK VINA RESULT:      -6.3      3.272      6.734
REMARK  8 active torsions:
REMARK  status: ('A' for Active; 'I' for Inactive)
REMARK    1  A    between atoms: O1_2  and  C2_3 
REMARK    2  A    between atoms: C9_12  and  C10_13 
REMARK    3  A    between atoms: C11_14  and  N2_15 
REMARK    4  A    between atoms: N2_15  and  C12_16 
REMARK    5  A    between atoms: C13_17  and  C14_18 
REMARK    6  A    between atoms: C14_18  and  C15_19 
REMARK    7  A    between atoms: C15_19  and  C16_20 
REMARK    8  A    between atoms: C16_20  and  O4_22 
ROOT
HETATM    1  C2  UNL     1      16.753  -1.179  52.434  1.00  0.00     0.070 A 
HETATM    2  C3  UNL     1      17.044  -0.071  51.655  1.00  0.00     0.037 A 
HETATM    3  C4  UNL     1      18.332   0.449  51.789  1.00  0.00     0.013 A 
HETATM    4  C5  UNL     1      19.274  -0.102  52.649  1.00  0.00    -0.014 A 
HETATM    5  C6  UNL     1      18.926  -1.207  53.401  1.00  0.00     0.044 A 
HETATM    6  C7  UNL     1      17.660  -1.762  53.304  1.00  0.00     0.066 A 
HETATM    7  N1  UNL     1      20.066  -1.577  54.199  1.00  0.00    -0.326 N 
HETATM    8  C8  UNL     1      21.136  -0.675  53.926  1.00  0.00     0.234 A 
HETATM    9  O2  UNL     1      22.275  -0.730  54.466  1.00  0.00    -0.272 OA
HETATM   10  C9  UNL     1      20.680   0.315  52.918  1.00  0.00     0.137 A 
HETATM   11  H7  UNL     1      20.151  -2.376  54.889  1.00  0.00     0.169 HD
ENDROOT
BRANCH  10  12
HETATM   12  C10 UNL     1      21.512   0.306  51.689  1.00  0.00     0.009 C 
HETATM   13  C11 UNL     1      22.699   0.855  51.539  1.00  0.00     0.084 C 
BRANCH  13  14
HETATM   14  N2  UNL     1      23.258   1.531  52.659  1.00  0.00    -0.376 N 
HETATM   15  H11 UNL     1      22.700   2.122  53.314  1.00  0.00     0.164 HD
BRANCH  14  16
HETATM   16  C12 UNL     1      24.667   1.285  52.752  1.00  0.00     0.083 C 
HETATM   17  C13 UNL     1      25.415   0.207  52.570  1.00  0.00    -0.009 C 
BRANCH  17  18
HETATM   18  C14 UNL     1      26.890  -0.009  52.679  1.00  0.00     0.039 C 
BRANCH  18  19
HETATM   19  C15 UNL     1      27.593   1.241  53.155  1.00  0.00     0.113 C 
BRANCH  19  20
HETATM   20  C16 UNL     1      28.312   0.839  54.411  1.00  0.00     0.139 C 
HETATM   21  O3  UNL     1      28.043  -0.259  54.969  1.00  0.00    -0.650 OA
BRANCH  20  22
HETATM   22  O4  UNL     1      29.293   1.594  55.050  1.00  0.00    -0.776 OA
HETATM   23  H18 UNL     1      29.542   1.430  56.014  1.00  0.00     0.167 HD
ENDBRANCH  20  22
ENDBRANCH  19  20
ENDBRANCH  18  19
ENDBRANCH  17  18
ENDBRANCH  14  16
ENDBRANCH  13  14
ENDBRANCH  10  12
BRANCH   1  24
HETATM   24  O1  UNL     1      15.500  -1.782  52.382  1.00  0.00    -0.356 OA
HETATM   25  C1  UNL     1      14.401  -1.266  51.687  1.00  0.00     0.210 C 
ENDBRANCH   1  24
TORSDOF 8
ENDMDL
MODEL 8
REMARK VINA RESULT:      -6.2      3.080      5.347
REMARK  8 active torsions:
REMARK  status: ('A' for Active; 'I' for Inactive)
REMARK    1  A    between atoms: O1_2  and  C2_3 
REMARK    2  A    between atoms: C9_12  and  C10_13 
REMARK    3  A    between atoms: C11_14  and  N2_15 
REMARK    4  A    between atoms: N2_15  and  C12_16 
REMARK    5  A    between atoms: C13_17  and  C14_18 
REMARK    6  A    between atoms: C14_18  and  C15_19 
REMARK    7  A    between atoms: C15_19  and  C16_20 
REMARK    8  A    between atoms: C16_20  and  O4_22 
ROOT
HETATM    1  C2  UNL     1      23.081  -0.162  53.528  1.00  0.00     0.070 A 
HETATM    2  C3  UNL     1      22.198   0.830  53.132  1.00  0.00     0.037 A 
HETATM    3  C4  UNL     1      22.754   1.893  52.421  1.00  0.00     0.013 A 
HETATM    4  C5  UNL     1      24.109   1.965  52.121  1.00  0.00    -0.014 A 
HETATM    5  C6  UNL     1      24.940   0.946  52.542  1.00  0.00     0.044 A 
HETATM    6  C7  UNL     1      24.438  -0.134  53.252  1.00  0.00     0.066 A 
HETATM    7  N1  UNL     1      26.278   1.258  52.109  1.00  0.00    -0.326 N 
HETATM    8  C8  UNL     1      26.261   2.498  51.406  1.00  0.00     0.234 A 
HETATM    9  O2  UNL     1      27.277   3.047  50.899  1.00  0.00    -0.272 OA
HETATM   10  C9  UNL     1      24.868   3.011  51.379  1.00  0.00     0.137 A 
HETATM   11  H7  UNL     1      27.163   0.695  52.260  1.00  0.00     0.169 HD
ENDROOT
BRANCH  10  12
HETATM   12  C10 UNL     1      24.356   3.204  50.000  1.00  0.00     0.009 C 
HETATM   13  C11 UNL     1      24.475   4.286  49.260  1.00  0.00     0.084 C 
BRANCH  13  14
HETATM   14  N2  UNL     1      25.165   5.396  49.824  1.00  0.00    -0.376 N 
HETATM   15  H11 UNL     1      24.995   5.750  50.791  1.00  0.00     0.164 HD
BRANCH  14  16
HETATM   16  C12 UNL     1      26.105   5.941  48.889  1.00  0.00     0.083 C 
HETATM   17  C13 UNL     1      27.414   5.812  48.738  1.00  0.00    -0.009 C 
BRANCH  17  18
HETATM   18  C14 UNL     1      28.363   6.401  47.745  1.00  0.00     0.039 C 
BRANCH  18  19
HETATM   19  C15 UNL     1      29.312   7.375  48.404  1.00  0.00     0.113 C 
BRANCH  19  20
HETATM   20  C16 UNL     1      30.581   6.605  48.627  1.00  0.00     0.139 C 
HETATM   21  O3  UNL     1      31.555   6.750  47.839  1.00  0.00    -0.650 OA
BRANCH  20  22
HETATM   22  O4  UNL     1      30.800   5.704  49.667  1.00  0.00    -0.776 OA
HETATM   23  H18 UNL     1      31.729   5.505  50.006  1.00  0.00     0.167 HD
ENDBRANCH  20  22
ENDBRANCH  19  20
ENDBRANCH  18  19
ENDBRANCH  17  18
ENDBRANCH  14  16
ENDBRANCH  13  14
ENDBRANCH  10  12
BRANCH   1  24
HETATM   24  O1  UNL     1      22.639  -1.271  54.244  1.00  0.00    -0.356 OA
HETATM   25  C1  UNL     1      21.296  -1.635  54.391  1.00  0.00     0.210 C 
ENDBRANCH   1  24
TORSDOF 8
ENDMDL
MODEL 9
REMARK VINA RESULT:      -6.2      1.970      2.484
REMARK  8 active torsions:
REMARK  status: ('A' for Active; 'I' for Inactive)
REMARK    1  A    between atoms: O1_2  and  C2_3 
REMARK    2  A    between atoms: C9_12  and  C10_13 
REMARK    3  A    between atoms: C11_14  and  N2_15 
REMARK    4  A    between atoms: N2_15  and  C12_16 
REMARK    5  A    between atoms: C13_17  and  C14_18 
REMARK    6  A    between atoms: C14_18  and  C15_19 
REMARK    7  A    between atoms: C15_19  and  C16_20 
REMARK    8  A    between atoms: C16_20  and  O4_22 
ROOT
HETATM    1  C2  UNL     1      26.929   0.660  53.305  1.00  0.00     0.070 A 
HETATM    2  C3  UNL     1      26.151   1.128  52.259  1.00  0.00     0.037 A 
HETATM    3  C4  UNL     1      24.803   0.772  52.294  1.00  0.00     0.013 A 
HETATM    4  C5  UNL     1      24.261  -0.004  53.312  1.00  0.00    -0.014 A 
HETATM    5  C6  UNL     1      25.086  -0.442  54.328  1.00  0.00     0.044 A 
HETATM    6  C7  UNL     1      26.433  -0.116  54.341  1.00  0.00     0.066 A 
HETATM    7  N1  UNL     1      24.288  -1.217  55.243  1.00  0.00    -0.326 N 
HETATM    8  C8  UNL     1      22.943  -1.252  54.772  1.00  0.00     0.234 A 
HETATM    9  O2  UNL     1      21.997  -1.852  55.352  1.00  0.00    -0.272 OA
HETATM   10  C9  UNL     1      22.860  -0.475  53.510  1.00  0.00     0.137 A 
HETATM   11  H7  UNL     1      24.598  -1.702  56.133  1.00  0.00     0.169 HD
ENDROOT
BRANCH  10  12
HETATM   12  C10 UNL     1      21.897   0.651  53.593  1.00  0.00     0.009 C 
HETATM   13  C11 UNL     1      21.052   1.035  52.660  1.00  0.00     0.084 C 
BRANCH  13  14
HETATM   14  N2  UNL     1      21.047   0.306  51.437  1.00  0.00    -0.376 N 
HETATM   15  H11 UNL     1      20.713  -0.679  51.354  1.00  0.00     0.164 HD
BRANCH  14  16
HETATM   16  C12 UNL     1      21.558   1.108  50.364  1.00  0.00     0.083 C 
HETATM   17  C13 UNL     1      21.594   0.949  49.050  1.00  0.00    -0.009 C 
BRANCH  17  18
HETATM   18  C14 UNL     1      22.140   1.813  47.959  1.00  0.00     0.039 C 
BRANCH  18  19
HETATM   19  C15 UNL     1      21.192   2.941  47.627  1.00  0.00     0.113 C 
BRANCH  19  20
HETATM   20  C16 UNL     1      21.798   4.167  48.249  1.00  0.00     0.139 C 
HETATM   21  O3  UNL     1      21.296   4.659  49.295  1.00  0.00    -0.650 OA
BRANCH  20  22
HETATM   22  O4  UNL     1      22.913   4.845  47.761  1.00  0.00    -0.776 OA
HETATM   23  H18 UNL     1      23.503   5.395  48.366  1.00  0.00     0.167 HD
ENDBRANCH  20  22
ENDBRANCH  19  20
ENDBRANCH  18  19
ENDBRANCH  17  18
ENDBRANCH  14  16
ENDBRANCH  13  14
ENDBRANCH  10  12
BRANCH   1  24
HETATM   24  O1  UNL     1      28.288   0.952  53.374  1.00  0.00    -0.356 OA
HETATM   25  C1  UNL     1      29.260   0.084  53.883  1.00  0.00     0.210 C 
ENDBRANCH   1  24
TORSDOF 8
ENDMDL
