MODEL 1
REMARK VINA RESULT:      -7.7      0.000      0.000
REMARK  8 active torsions:
REMARK  status: ('A' for Active; 'I' for Inactive)
REMARK    1  A    between atoms: C3_3  and  O1_4 
REMARK    2  A    between atoms: O1_4  and  C4_5 
REMARK    3  A    between atoms: C4_5  and  C5_6 
REMARK    4  A    between atoms: C5_6  and  O2_8 
REMARK    5  A    between atoms: C9_14  and  C10_15 
REMARK    6  A    between atoms: C13_18  and  N4_19 
REMARK    7  A    between atoms: N4_19  and  C15_21 
REMARK    8  A    between atoms: C15_21  and  O3_22 
ROOT
HETATM    1  C1  UNL     1      26.646   2.497  52.955  1.00  0.00     0.054 C 
HETATM    2  C2  UNL     1      25.829   1.343  53.409  1.00  0.00     0.004 A 
HETATM    3  C3  UNL     1      26.122   0.378  54.390  1.00  0.00     0.094 A 
HETATM    4  C7  UNL     1      25.034  -0.460  54.382  1.00  0.00     0.156 A 
HETATM    5  N1  UNL     1      24.093  -0.112  53.495  1.00  0.00    -0.238 N 
HETATM    6  N2  UNL     1      22.926  -0.644  53.176  1.00  0.00    -0.161 NA
HETATM    7  C8  UNL     1      22.173  -0.081  52.223  1.00  0.00     0.256 A 
HETATM    8  N3  UNL     1      22.600   1.019  51.592  1.00  0.00    -0.237 NA
HETATM    9  C9  UNL     1      23.799   1.570  51.918  1.00  0.00     0.101 A 
HETATM   10  C18 UNL     1      24.587   0.996  52.903  1.00  0.00     0.096 A 
ENDROOT
BRANCH   9  11
HETATM   11  C10 UNL     1      24.137   2.760  51.151  1.00  0.00     0.034 A 
HETATM   12  C11 UNL     1      24.811   2.933  49.949  1.00  0.00     0.019 A 
HETATM   13  C12 UNL     1      25.007   4.201  49.466  1.00  0.00     0.030 A 
HETATM   14  C13 UNL     1      24.594   5.357  50.068  1.00  0.00     0.034 A 
HETATM   15  C16 UNL     1      23.926   5.187  51.262  1.00  0.00     0.072 A 
HETATM   16  C17 UNL     1      23.694   3.919  51.808  1.00  0.00     0.131 A 
HETATM   17  F1  UNL     1      23.019   3.939  52.992  1.00  0.00    -0.205 F 
BRANCH  14  18
HETATM   18  N4  UNL     1      24.821   6.639  49.509  1.00  0.00    -0.364 N 
HETATM   19  C14 UNL     1      24.843   6.839  48.080  1.00  0.00     0.152 C 
BRANCH  18  20
HETATM   20  C15 UNL     1      25.045   7.775  50.387  1.00  0.00     0.289 C 
BRANCH  20  21
HETATM   21  O3  UNL     1      26.352   7.688  50.862  1.00  0.00    -0.382 OA
HETATM   22  H20 UNL     1      26.548   6.746  51.078  1.00  0.00     0.211 HD
ENDBRANCH  20  21
ENDBRANCH  18  20
ENDBRANCH  14  18
ENDBRANCH   9  11
BRANCH   3  23
HETATM   23  O1  UNL     1      27.298   0.502  55.040  1.00  0.00    -0.347 OA
BRANCH  23  24
HETATM   24  C4  UNL     1      28.550  -0.008  54.951  1.00  0.00     0.207 C 
BRANCH  24  25
HETATM   25  C5  UNL     1      29.116  -0.238  53.569  1.00  0.00     0.138 C 
HETATM   26  C6  UNL     1      29.403  -1.708  53.328  1.00  0.00     0.041 C 
BRANCH  25  27
HETATM   27  O2  UNL     1      30.304   0.441  53.361  1.00  0.00    -0.394 OA
HETATM   28  H10 UNL     1      31.000   0.009  53.916  1.00  0.00     0.210 HD
ENDBRANCH  25  27
ENDBRANCH  24  25
ENDBRANCH  23  24
ENDBRANCH   3  23
TORSDOF 8
ENDMDL
MODEL 2
REMARK VINA RESULT:      -7.6      3.702      7.589
REMARK  8 active torsions:
REMARK  status: ('A' for Active; 'I' for Inactive)
REMARK    1  A    between atoms: C3_3  and  O1_4 
REMARK    2  A    between atoms: O1_4  and  C4_5 
REMARK    3  A    between atoms: C4_5  and  C5_6 
REMARK    4  A    between atoms: C5_6  and  O2_8 
REMARK    5  A    between atoms: C9_14  and  C10_15 
REMARK    6  A    between atoms: C13_18  and  N4_19 
REMARK    7  A    between atoms: N4_19  and  C15_21 
REMARK    8  A    between atoms: C15_21  and  O3_22 
ROOT
HETATM    1  C1  UNL     1      22.446  -0.522  52.969  1.00  0.00     0.054 C 
HETATM    2  C2  UNL     1      21.793   0.790  52.733  1.00  0.00     0.004 A 
HETATM    3  C3  UNL     1      20.438   1.075  52.481  1.00  0.00     0.094 A 
HETATM    4  C7  UNL     1      20.400   2.439  52.319  1.00  0.00     0.156 A 
HETATM    5  N1  UNL     1      21.595   3.030  52.445  1.00  0.00    -0.238 N 
HETATM    6  N2  UNL     1      21.981   4.291  52.357  1.00  0.00    -0.161 NA
HETATM    7  C8  UNL     1      23.271   4.608  52.524  1.00  0.00     0.256 A 
HETATM    8  N3  UNL     1      24.170   3.650  52.779  1.00  0.00    -0.237 NA
HETATM    9  C9  UNL     1      23.777   2.352  52.871  1.00  0.00     0.101 A 
HETATM   10  C18 UNL     1      22.444   2.013  52.701  1.00  0.00     0.096 A 
ENDROOT
BRANCH   9  11
HETATM   11  C10 UNL     1      24.859   1.419  53.150  1.00  0.00     0.034 A 
HETATM   12  C11 UNL     1      25.336   0.873  54.334  1.00  0.00     0.019 A 
HETATM   13  C12 UNL     1      26.410   0.021  54.296  1.00  0.00     0.030 A 
HETATM   14  C13 UNL     1      27.085  -0.361  53.171  1.00  0.00     0.034 A 
HETATM   15  C16 UNL     1      26.614   0.182  51.995  1.00  0.00     0.072 A 
HETATM   16  C17 UNL     1      25.523   1.058  51.966  1.00  0.00     0.131 A 
HETATM   17  F1  UNL     1      25.193   1.497  50.718  1.00  0.00    -0.205 F 
BRANCH  14  18
HETATM   18  N4  UNL     1      28.184  -1.255  53.199  1.00  0.00    -0.364 N 
HETATM   19  C14 UNL     1      29.478  -0.834  53.681  1.00  0.00     0.152 C 
BRANCH  18  20
HETATM   20  C15 UNL     1      28.012  -2.618  52.728  1.00  0.00     0.289 C 
BRANCH  20  21
HETATM   21  O3  UNL     1      28.811  -3.441  53.518  1.00  0.00    -0.382 OA
HETATM   22  H20 UNL     1      28.255  -3.830  54.234  1.00  0.00     0.211 HD
ENDBRANCH  20  21
ENDBRANCH  18  20
ENDBRANCH  14  18
ENDBRANCH   9  11
BRANCH   3  23
HETATM   23  O1  UNL     1      19.584   0.031  52.461  1.00  0.00    -0.347 OA
BRANCH  23  24
HETATM   24  C4  UNL     1      18.340  -0.237  51.996  1.00  0.00     0.207 C 
BRANCH  24  25
HETATM   25  C5  UNL     1      17.564  -1.346  52.668  1.00  0.00     0.138 C 
HETATM   26  C6  UNL     1      16.122  -1.374  52.198  1.00  0.00     0.041 C 
BRANCH  25  27
HETATM   27  O2  UNL     1      17.534  -1.214  54.045  1.00  0.00    -0.394 OA
HETATM   28  H10 UNL     1      17.104  -0.348  54.257  1.00  0.00     0.210 HD
ENDBRANCH  25  27
ENDBRANCH  24  25
ENDBRANCH  23  24
ENDBRANCH   3  23
TORSDOF 8
ENDMDL
MODEL 3
REMARK VINA RESULT:      -7.3      2.649      3.130
REMARK  8 active torsions:
REMARK  status: ('A' for Active; 'I' for Inactive)
REMARK    1  A    between atoms: C3_3  and  O1_4 
REMARK    2  A    between atoms: O1_4  and  C4_5 
REMARK    3  A    between atoms: C4_5  and  C5_6 
REMARK    4  A    between atoms: C5_6  and  O2_8 
REMARK    5  A    between atoms: C9_14  and  C10_15 
REMARK    6  A    between atoms: C13_18  and  N4_19 
REMARK    7  A    between atoms: N4_19  and  C15_21 
REMARK    8  A    between atoms: C15_21  and  O3_22 
ROOT
HETATM    1  C1  UNL     1      25.444   1.092  52.317  1.00  0.00     0.054 C 
HETATM    2  C2  UNL     1      24.854   0.247  53.386  1.00  0.00     0.004 A 
HETATM    3  C3  UNL     1      25.498  -0.596  54.310  1.00  0.00     0.094 A 
HETATM    4  C7  UNL     1      24.475  -1.146  55.043  1.00  0.00     0.156 A 
HETATM    5  N1  UNL     1      23.259  -0.729  54.667  1.00  0.00    -0.238 N 
HETATM    6  N2  UNL     1      22.043  -1.015  55.101  1.00  0.00    -0.161 NA
HETATM    7  C8  UNL     1      20.977  -0.447  54.524  1.00  0.00     0.256 A 
HETATM    8  N3  UNL     1      21.140   0.411  53.510  1.00  0.00    -0.237 NA
HETATM    9  C9  UNL     1      22.389   0.709  53.062  1.00  0.00     0.101 A 
HETATM   10  C18 UNL     1      23.499   0.126  53.651  1.00  0.00     0.096 A 
ENDROOT
BRANCH   9  11
HETATM   11  C10 UNL     1      22.415   1.652  51.954  1.00  0.00     0.034 A 
HETATM   12  C11 UNL     1      22.723   3.005  51.890  1.00  0.00     0.019 A 
HETATM   13  C12 UNL     1      22.637   3.656  50.687  1.00  0.00     0.030 A 
HETATM   14  C13 UNL     1      22.266   3.092  49.499  1.00  0.00     0.034 A 
HETATM   15  C16 UNL     1      21.959   1.750  49.561  1.00  0.00     0.072 A 
HETATM   16  C17 UNL     1      22.026   1.028  50.758  1.00  0.00     0.131 A 
HETATM   17  F1  UNL     1      21.688  -0.287  50.634  1.00  0.00    -0.205 F 
BRANCH  14  18
HETATM   18  N4  UNL     1      22.208   3.822  48.285  1.00  0.00    -0.364 N 
HETATM   19  C14 UNL     1      22.992   5.018  48.094  1.00  0.00     0.152 C 
BRANCH  18  20
HETATM   20  C15 UNL     1      21.337   3.366  47.215  1.00  0.00     0.289 C 
BRANCH  20  21
HETATM   21  O3  UNL     1      21.955   3.682  46.007  1.00  0.00    -0.382 OA
HETATM   22  H20 UNL     1      22.487   2.905  45.711  1.00  0.00     0.211 HD
ENDBRANCH  20  21
ENDBRANCH  18  20
ENDBRANCH  14  18
ENDBRANCH   9  11
BRANCH   3  23
HETATM   23  O1  UNL     1      26.845  -0.652  54.254  1.00  0.00    -0.347 OA
BRANCH  23  24
HETATM   24  C4  UNL     1      27.898   0.056  54.729  1.00  0.00     0.207 C 
BRANCH  24  25
HETATM   25  C5  UNL     1      28.964   0.475  53.743  1.00  0.00     0.138 C 
HETATM   26  C6  UNL     1      29.983  -0.629  53.530  1.00  0.00     0.041 C 
BRANCH  25  27
HETATM   27  O2  UNL     1      29.665   1.593  54.160  1.00  0.00    -0.394 OA
HETATM   28  H10 UNL     1      29.151   2.392  53.884  1.00  0.00     0.210 HD
ENDBRANCH  25  27
ENDBRANCH  24  25
ENDBRANCH  23  24
ENDBRANCH   3  23
TORSDOF 8
ENDMDL
MODEL 4
REMARK VINA RESULT:      -7.2      3.313      4.070
REMARK  8 active torsions:
REMARK  status: ('A' for Active; 'I' for Inactive)
REMARK    1  A    between atoms: C3_3  and  O1_4 
REMARK    2  A    between atoms: O1_4  and  C4_5 
REMARK    3  A    between atoms: C4_5  and  C5_6 
REMARK    4  A    between atoms: C5_6  and  O2_8 
REMARK    5  A    between atoms: C9_14  and  C10_15 
REMARK    6  A    between atoms: C13_18  and  N4_19 
REMARK    7  A    between atoms: N4_19  and  C15_21 
REMARK    8  A    between atoms: C15_21  and  O3_22 
ROOT
HETATM    1  C1  UNL     1      24.272   1.410  51.734  1.00  0.00     0.054 C 
HETATM    2  C2  UNL     1      24.180   0.491  52.895  1.00  0.00     0.004 A 
HETATM    3  C3  UNL     1      25.197   0.053  53.763  1.00  0.00     0.094 A 
HETATM    4  C7  UNL     1      24.561  -0.797  54.635  1.00  0.00     0.156 A 
HETATM    5  N1  UNL     1      23.250  -0.931  54.396  1.00  0.00    -0.238 N 
HETATM    6  N2  UNL     1      22.303  -1.641  54.984  1.00  0.00    -0.161 NA
HETATM    7  C8  UNL     1      21.047  -1.592  54.523  1.00  0.00     0.256 A 
HETATM    8  N3  UNL     1      20.750  -0.827  53.466  1.00  0.00    -0.237 NA
HETATM    9  C9  UNL     1      21.721  -0.094  52.859  1.00  0.00     0.101 A 
HETATM   10  C18 UNL     1      23.023  -0.137  53.329  1.00  0.00     0.096 A 
ENDROOT
BRANCH   9  11
HETATM   11  C10 UNL     1      21.255   0.688  51.723  1.00  0.00     0.034 A 
HETATM   12  C11 UNL     1      21.354   0.489  50.353  1.00  0.00     0.019 A 
HETATM   13  C12 UNL     1      20.831   1.427  49.499  1.00  0.00     0.030 A 
HETATM   14  C13 UNL     1      20.199   2.580  49.871  1.00  0.00     0.034 A 
HETATM   15  C16 UNL     1      20.102   2.780  51.231  1.00  0.00     0.072 A 
HETATM   16  C17 UNL     1      20.615   1.861  52.155  1.00  0.00     0.131 A 
HETATM   17  F1  UNL     1      20.430   2.219  53.457  1.00  0.00    -0.205 F 
BRANCH  14  18
HETATM   18  N4  UNL     1      19.671   3.505  48.936  1.00  0.00    -0.364 N 
HETATM   19  C14 UNL     1      19.165   4.789  49.359  1.00  0.00     0.152 C 
BRANCH  18  20
HETATM   20  C15 UNL     1      19.629   3.156  47.527  1.00  0.00     0.289 C 
BRANCH  20  21
HETATM   21  O3  UNL     1      18.417   2.511  47.289  1.00  0.00    -0.382 OA
HETATM   22  H20 UNL     1      17.727   2.911  47.868  1.00  0.00     0.211 HD
ENDBRANCH  20  21
ENDBRANCH  18  20
ENDBRANCH  14  18
ENDBRANCH   9  11
BRANCH   3  23
HETATM   23  O1  UNL     1      26.440   0.532  53.545  1.00  0.00    -0.347 OA
BRANCH  23  24
HETATM   24  C4  UNL     1      27.612   0.082  53.037  1.00  0.00     0.207 C 
BRANCH  24  25
HETATM   25  C5  UNL     1      28.887   0.517  53.723  1.00  0.00     0.138 C 
HETATM   26  C6  UNL     1      29.873  -0.630  53.833  1.00  0.00     0.041 C 
BRANCH  25  27
HETATM   27  O2  UNL     1      28.667   0.982  55.008  1.00  0.00    -0.394 OA
HETATM   28  H10 UNL     1      28.765   1.966  54.994  1.00  0.00     0.210 HD
ENDBRANCH  25  27
ENDBRANCH  24  25
ENDBRANCH  23  24
ENDBRANCH   3  23
TORSDOF 8
ENDMDL
MODEL 5
REMARK VINA RESULT:      -7.1      3.342      5.840
REMARK  8 active torsions:
REMARK  status: ('A' for Active; 'I' for Inactive)
REMARK    1  A    between atoms: C3_3  and  O1_4 
REMARK    2  A    between atoms: O1_4  and  C4_5 
REMARK    3  A    between atoms: C4_5  and  C5_6 
REMARK    4  A    between atoms: C5_6  and  O2_8 
REMARK    5  A    between atoms: C9_14  and  C10_15 
REMARK    6  A    between atoms: C13_18  and  N4_19 
REMARK    7  A    between atoms: N4_19  and  C15_21 
REMARK    8  A    between atoms: C15_21  and  O3_22 
ROOT
HETATM    1  C1  UNL     1      24.024   0.538  52.685  1.00  0.00     0.054 C 
HETATM    2  C2  UNL     1      24.844   1.440  51.838  1.00  0.00     0.004 A 
HETATM    3  C3  UNL     1      26.245   1.534  51.739  1.00  0.00     0.094 A 
HETATM    4  C7  UNL     1      26.456   2.542  50.830  1.00  0.00     0.156 A 
HETATM    5  N1  UNL     1      25.327   3.083  50.353  1.00  0.00    -0.238 N 
HETATM    6  N2  UNL     1      25.099   4.056  49.488  1.00  0.00    -0.161 NA
HETATM    7  C8  UNL     1      23.841   4.406  49.193  1.00  0.00     0.256 A 
HETATM    8  N3  UNL     1      22.814   3.773  49.773  1.00  0.00    -0.237 NA
HETATM    9  C9  UNL     1      23.045   2.771  50.663  1.00  0.00     0.101 A 
HETATM   10  C18 UNL     1      24.343   2.400  50.975  1.00  0.00     0.096 A 
ENDROOT
BRANCH   9  11
HETATM   11  C10 UNL     1      21.837   2.175  51.215  1.00  0.00     0.034 A 
HETATM   12  C11 UNL     1      21.124   2.427  52.379  1.00  0.00     0.019 A 
HETATM   13  C12 UNL     1      20.012   1.676  52.661  1.00  0.00     0.030 A 
HETATM   14  C13 UNL     1      19.513   0.667  51.886  1.00  0.00     0.034 A 
HETATM   15  C16 UNL     1      20.222   0.414  50.731  1.00  0.00     0.072 A 
HETATM   16  C17 UNL     1      21.365   1.145  50.387  1.00  0.00     0.131 A 
HETATM   17  F1  UNL     1      21.938   0.760  49.211  1.00  0.00    -0.205 F 
BRANCH  14  18
HETATM   18  N4  UNL     1      18.350  -0.066  52.230  1.00  0.00    -0.364 N 
HETATM   19  C14 UNL     1      17.072   0.237  51.632  1.00  0.00     0.152 C 
BRANCH  18  20
HETATM   20  C15 UNL     1      18.439  -1.136  53.208  1.00  0.00     0.289 C 
BRANCH  20  21
HETATM   21  O3  UNL     1      17.273  -1.109  53.969  1.00  0.00    -0.382 OA
HETATM   22  H20 UNL     1      17.342  -0.379  54.628  1.00  0.00     0.211 HD
ENDBRANCH  20  21
ENDBRANCH  18  20
ENDBRANCH  14  18
ENDBRANCH   9  11
BRANCH   3  23
HETATM   23  O1  UNL     1      26.973   0.687  52.496  1.00  0.00    -0.347 OA
BRANCH  23  24
HETATM   24  C4  UNL     1      27.599   0.703  53.697  1.00  0.00     0.207 C 
BRANCH  24  25
HETATM   25  C5  UNL     1      29.056   1.105  53.723  1.00  0.00     0.138 C 
HETATM   26  C6  UNL     1      29.964  -0.110  53.685  1.00  0.00     0.041 C 
BRANCH  25  27
HETATM   27  O2  UNL     1      29.391   1.820  54.859  1.00  0.00    -0.394 OA
HETATM   28  H10 UNL     1      28.620   2.396  55.092  1.00  0.00     0.210 HD
ENDBRANCH  25  27
ENDBRANCH  24  25
ENDBRANCH  23  24
ENDBRANCH   3  23
TORSDOF 8
ENDMDL
MODEL 6
REMARK VINA RESULT:      -6.9      1.874      6.474
REMARK  8 active torsions:
REMARK  status: ('A' for Active; 'I' for Inactive)
REMARK    1  A    between atoms: C3_3  and  O1_4 
REMARK    2  A    between atoms: O1_4  and  C4_5 
REMARK    3  A    between atoms: C4_5  and  C5_6 
REMARK    4  A    between atoms: C5_6  and  O2_8 
REMARK    5  A    between atoms: C9_14  and  C10_15 
REMARK    6  A    between atoms: C13_18  and  N4_19 
REMARK    7  A    between atoms: N4_19  and  C15_21 
REMARK    8  A    between atoms: C15_21  and  O3_22 
ROOT
HETATM    1  C1  UNL     1      26.131   3.637  50.288  1.00  0.00     0.054 C 
HETATM    2  C2  UNL     1      24.664   3.619  50.063  1.00  0.00     0.004 A 
HETATM    3  C3  UNL     1      23.877   4.471  49.266  1.00  0.00     0.094 A 
HETATM    4  C7  UNL     1      22.593   4.015  49.443  1.00  0.00     0.156 A 
HETATM    5  N1  UNL     1      22.503   2.965  50.269  1.00  0.00    -0.238 N 
HETATM    6  N2  UNL     1      21.477   2.251  50.697  1.00  0.00    -0.161 NA
HETATM    7  C8  UNL     1      21.677   1.236  51.546  1.00  0.00     0.256 A 
HETATM    8  N3  UNL     1      22.914   0.942  51.962  1.00  0.00    -0.237 NA
HETATM    9  C9  UNL     1      23.973   1.673  51.523  1.00  0.00     0.101 A 
HETATM   10  C18 UNL     1      23.778   2.726  50.644  1.00  0.00     0.096 A 
ENDROOT
BRANCH   9  11
HETATM   11  C10 UNL     1      25.257   1.244  52.058  1.00  0.00     0.034 A 
HETATM   12  C11 UNL     1      26.153   0.263  51.655  1.00  0.00     0.019 A 
HETATM   13  C12 UNL     1      27.298   0.061  52.381  1.00  0.00     0.030 A 
HETATM   14  C13 UNL     1      27.664   0.750  53.503  1.00  0.00     0.034 A 
HETATM   15  C16 UNL     1      26.774   1.723  53.906  1.00  0.00     0.072 A 
HETATM   16  C17 UNL     1      25.588   1.979  53.208  1.00  0.00     0.131 A 
HETATM   17  F1  UNL     1      24.829   2.975  53.747  1.00  0.00    -0.205 F 
BRANCH  14  18
HETATM   18  N4  UNL     1      28.869   0.497  54.203  1.00  0.00    -0.364 N 
HETATM   19  C14 UNL     1      29.580  -0.749  54.043  1.00  0.00     0.152 C 
BRANCH  18  20
HETATM   20  C15 UNL     1      29.399   1.504  55.106  1.00  0.00     0.289 C 
BRANCH  20  21
HETATM   21  O3  UNL     1      29.905   2.543  54.329  1.00  0.00    -0.382 OA
HETATM   22  H20 UNL     1      29.177   3.179  54.137  1.00  0.00     0.211 HD
ENDBRANCH  20  21
ENDBRANCH  18  20
ENDBRANCH  14  18
ENDBRANCH   9  11
BRANCH   3  23
HETATM   23  O1  UNL     1      24.520   5.442  48.585  1.00  0.00    -0.347 OA
BRANCH  23  24
HETATM   24  C4  UNL     1      24.997   6.687  48.826  1.00  0.00     0.207 C 
BRANCH  24  25
HETATM   25  C5  UNL     1      25.101   7.131  50.267  1.00  0.00     0.138 C 
HETATM   26  C6  UNL     1      24.042   8.163  50.604  1.00  0.00     0.041 C 
BRANCH  25  27
HETATM   27  O2  UNL     1      26.327   7.704  50.559  1.00  0.00    -0.394 OA
HETATM   28  H10 UNL     1      26.745   7.171  51.281  1.00  0.00     0.210 HD
ENDBRANCH  25  27
ENDBRANCH  24  25
ENDBRANCH  23  24
ENDBRANCH   3  23
TORSDOF 8
ENDMDL
MODEL 7
REMARK VINA RESULT:      -6.8      2.200      6.913
REMARK  8 active torsions:
REMARK  status: ('A' for Active; 'I' for Inactive)
REMARK    1  A    between atoms: C3_3  and  O1_4 
REMARK    2  A    between atoms: O1_4  and  C4_5 
REMARK    3  A    between atoms: C4_5  and  C5_6 
REMARK    4  A    between atoms: C5_6  and  O2_8 
REMARK    5  A    between atoms: C9_14  and  C10_15 
REMARK    6  A    between atoms: C13_18  and  N4_19 
REMARK    7  A    between atoms: N4_19  and  C15_21 
REMARK    8  A    between atoms: C15_21  and  O3_22 
ROOT
HETATM    1  C1  UNL     1      25.952   4.129  50.218  1.00  0.00     0.054 C 
HETATM    2  C2  UNL     1      24.611   4.740  50.039  1.00  0.00     0.004 A 
HETATM    3  C3  UNL     1      24.198   5.722  49.120  1.00  0.00     0.094 A 
HETATM    4  C7  UNL     1      22.872   5.928  49.411  1.00  0.00     0.156 A 
HETATM    5  N1  UNL     1      22.418   5.171  50.419  1.00  0.00    -0.238 N 
HETATM    6  N2  UNL     1      21.234   5.073  50.999  1.00  0.00    -0.161 NA
HETATM    7  C8  UNL     1      21.057   4.220  52.015  1.00  0.00     0.256 A 
HETATM    8  N3  UNL     1      22.077   3.467  52.445  1.00  0.00    -0.237 NA
HETATM    9  C9  UNL     1      23.296   3.565  51.850  1.00  0.00     0.101 A 
HETATM   10  C18 UNL     1      23.490   4.444  50.798  1.00  0.00     0.096 A 
ENDROOT
BRANCH   9  11
HETATM   11  C10 UNL     1      24.310   2.690  52.422  1.00  0.00     0.034 A 
HETATM   12  C11 UNL     1      25.267   2.894  53.406  1.00  0.00     0.019 A 
HETATM   13  C12 UNL     1      26.124   1.874  53.730  1.00  0.00     0.030 A 
HETATM   14  C13 UNL     1      26.134   0.630  53.164  1.00  0.00     0.034 A 
HETATM   15  C16 UNL     1      25.185   0.427  52.186  1.00  0.00     0.072 A 
HETATM   16  C17 UNL     1      24.282   1.427  51.808  1.00  0.00     0.131 A 
HETATM   17  F1  UNL     1      23.414   1.052  50.826  1.00  0.00    -0.205 F 
BRANCH  14  18
HETATM   18  N4  UNL     1      27.042  -0.386  53.554  1.00  0.00    -0.364 N 
HETATM   19  C14 UNL     1      28.119  -0.112  54.475  1.00  0.00     0.152 C 
BRANCH  18  20
HETATM   20  C15 UNL     1      26.896  -1.725  53.012  1.00  0.00     0.289 C 
BRANCH  20  21
HETATM   21  O3  UNL     1      28.141  -2.347  53.083  1.00  0.00    -0.382 OA
HETATM   22  H20 UNL     1      28.004  -3.313  53.225  1.00  0.00     0.211 HD
ENDBRANCH  20  21
ENDBRANCH  18  20
ENDBRANCH  14  18
ENDBRANCH   9  11
BRANCH   3  23
HETATM   23  O1  UNL     1      25.126   6.182  48.254  1.00  0.00    -0.347 OA
BRANCH  23  24
HETATM   24  C4  UNL     1      25.754   7.352  47.987  1.00  0.00     0.207 C 
BRANCH  24  25
HETATM   25  C5  UNL     1      27.150   7.539  48.536  1.00  0.00     0.138 C 
HETATM   26  C6  UNL     1      28.036   6.353  48.208  1.00  0.00     0.041 C 
BRANCH  25  27
HETATM   27  O2  UNL     1      27.165   7.682  49.912  1.00  0.00    -0.394 OA
HETATM   28  H10 UNL     1      26.742   6.878  50.304  1.00  0.00     0.210 HD
ENDBRANCH  25  27
ENDBRANCH  24  25
ENDBRANCH  23  24
ENDBRANCH   3  23
TORSDOF 8
ENDMDL
MODEL 8
REMARK VINA RESULT:      -6.8      3.694      6.864
REMARK  8 active torsions:
REMARK  status: ('A' for Active; 'I' for Inactive)
REMARK    1  A    between atoms: C3_3  and  O1_4 
REMARK    2  A    between atoms: O1_4  and  C4_5 
REMARK    3  A    between atoms: C4_5  and  C5_6 
REMARK    4  A    between atoms: C5_6  and  O2_8 
REMARK    5  A    between atoms: C9_14  and  C10_15 
REMARK    6  A    between atoms: C13_18  and  N4_19 
REMARK    7  A    between atoms: N4_19  and  C15_21 
REMARK    8  A    between atoms: C15_21  and  O3_22 
ROOT
HETATM    1  C1  UNL     1      22.512   0.166  52.836  1.00  0.00     0.054 C 
HETATM    2  C2  UNL     1      21.625   1.148  52.164  1.00  0.00     0.004 A 
HETATM    3  C3  UNL     1      20.227   1.122  52.008  1.00  0.00     0.094 A 
HETATM    4  C7  UNL     1      19.941   2.260  51.294  1.00  0.00     0.156 A 
HETATM    5  N1  UNL     1      21.022   2.991  50.990  1.00  0.00    -0.238 N 
HETATM    6  N2  UNL     1      21.176   4.123  50.325  1.00  0.00    -0.161 NA
HETATM    7  C8  UNL     1      22.400   4.639  50.159  1.00  0.00     0.256 A 
HETATM    8  N3  UNL     1      23.467   4.011  50.665  1.00  0.00    -0.237 NA
HETATM    9  C9  UNL     1      23.313   2.846  51.351  1.00  0.00     0.101 A 
HETATM   10  C18 UNL     1      22.051   2.304  51.528  1.00  0.00     0.096 A 
ENDROOT
BRANCH   9  11
HETATM   11  C10 UNL     1      24.558   2.274  51.841  1.00  0.00     0.034 A 
HETATM   12  C11 UNL     1      25.437   1.349  51.293  1.00  0.00     0.019 A 
HETATM   13  C12 UNL     1      26.543   0.969  52.008  1.00  0.00     0.030 A 
HETATM   14  C13 UNL     1      26.883   1.422  53.252  1.00  0.00     0.034 A 
HETATM   15  C16 UNL     1      26.011   2.338  53.798  1.00  0.00     0.072 A 
HETATM   16  C17 UNL     1      24.864   2.767  53.119  1.00  0.00     0.131 A 
HETATM   17  F1  UNL     1      24.117   3.676  53.808  1.00  0.00    -0.205 F 
BRANCH  14  18
HETATM   18  N4  UNL     1      28.049   0.995  53.934  1.00  0.00    -0.364 N 
HETATM   19  C14 UNL     1      27.977   0.030  55.006  1.00  0.00     0.152 C 
BRANCH  18  20
HETATM   20  C15 UNL     1      29.341   1.541  53.559  1.00  0.00     0.289 C 
BRANCH  20  21
HETATM   21  O3  UNL     1      29.144   2.867  53.180  1.00  0.00    -0.382 OA
HETATM   22  H20 UNL     1      29.009   2.901  52.204  1.00  0.00     0.211 HD
ENDBRANCH  20  21
ENDBRANCH  18  20
ENDBRANCH  14  18
ENDBRANCH   9  11
BRANCH   3  23
HETATM   23  O1  UNL     1      19.568   0.077  52.551  1.00  0.00    -0.347 OA
BRANCH  23  24
HETATM   24  C4  UNL     1      18.445  -0.638  52.300  1.00  0.00     0.207 C 
BRANCH  24  25
HETATM   25  C5  UNL     1      17.691  -1.197  53.485  1.00  0.00     0.138 C 
HETATM   26  C6  UNL     1      17.775  -2.711  53.528  1.00  0.00     0.041 C 
BRANCH  25  27
HETATM   27  O2  UNL     1      16.346  -0.871  53.461  1.00  0.00    -0.394 OA
HETATM   28  H10 UNL     1      16.240  -0.070  52.890  1.00  0.00     0.210 HD
ENDBRANCH  25  27
ENDBRANCH  24  25
ENDBRANCH  23  24
ENDBRANCH   3  23
TORSDOF 8
ENDMDL
MODEL 9
REMARK VINA RESULT:      -6.8      3.222      5.533
REMARK  8 active torsions:
REMARK  status: ('A' for Active; 'I' for Inactive)
REMARK    1  A    between atoms: C3_3  and  O1_4 
REMARK    2  A    between atoms: O1_4  and  C4_5 
REMARK    3  A    between atoms: C4_5  and  C5_6 
REMARK    4  A    between atoms: C5_6  and  O2_8 
REMARK    5  A    between atoms: C9_14  and  C10_15 
REMARK    6  A    between atoms: C13_18  and  N4_19 
REMARK    7  A    between atoms: N4_19  and  C15_21 
REMARK    8  A    between atoms: C15_21  and  O3_22 
ROOT
HETATM    1  C1  UNL     1      21.013   2.161  51.522  1.00  0.00     0.054 C 
HETATM    2  C2  UNL     1      21.497   0.981  52.282  1.00  0.00     0.004 A 
HETATM    3  C3  UNL     1      20.755  -0.019  52.937  1.00  0.00     0.094 A 
HETATM    4  C7  UNL     1      21.705  -0.844  53.489  1.00  0.00     0.156 A 
HETATM    5  N1  UNL     1      22.963  -0.457  53.242  1.00  0.00    -0.238 N 
HETATM    6  N2  UNL     1      24.136  -0.958  53.590  1.00  0.00    -0.161 NA
HETATM    7  C8  UNL     1      25.263  -0.349  53.204  1.00  0.00     0.256 A 
HETATM    8  N3  UNL     1      25.205   0.766  52.467  1.00  0.00    -0.237 NA
HETATM    9  C9  UNL     1      24.001   1.284  52.106  1.00  0.00     0.101 A 
HETATM   10  C18 UNL     1      22.828   0.662  52.500  1.00  0.00     0.096 A 
ENDROOT
BRANCH   9  11
HETATM   11  C10 UNL     1      24.089   2.498  51.308  1.00  0.00     0.034 A 
HETATM   12  C11 UNL     1      24.169   2.708  49.938  1.00  0.00     0.019 A 
HETATM   13  C12 UNL     1      24.269   3.990  49.460  1.00  0.00     0.030 A 
HETATM   14  C13 UNL     1      24.299   5.125  50.221  1.00  0.00     0.034 A 
HETATM   15  C16 UNL     1      24.222   4.918  51.581  1.00  0.00     0.072 A 
HETATM   16  C17 UNL     1      24.119   3.635  52.132  1.00  0.00     0.131 A 
HETATM   17  F1  UNL     1      24.052   3.618  53.494  1.00  0.00    -0.205 F 
BRANCH  14  18
HETATM   18  N4  UNL     1      24.393   6.424  49.662  1.00  0.00    -0.364 N 
HETATM   19  C14 UNL     1      24.092   6.662  48.271  1.00  0.00     0.152 C 
BRANCH  18  20
HETATM   20  C15 UNL     1      24.808   7.536  50.498  1.00  0.00     0.289 C 
BRANCH  20  21
HETATM   21  O3  UNL     1      26.178   7.412  50.716  1.00  0.00    -0.382 OA
HETATM   22  H20 UNL     1      26.655   7.672  49.893  1.00  0.00     0.211 HD
ENDBRANCH  20  21
ENDBRANCH  18  20
ENDBRANCH  14  18
ENDBRANCH   9  11
BRANCH   3  23
HETATM   23  O1  UNL     1      19.410   0.070  52.868  1.00  0.00    -0.347 OA
BRANCH  23  24
HETATM   24  C4  UNL     1      18.413  -0.409  52.086  1.00  0.00     0.207 C 
BRANCH  24  25
HETATM   25  C5  UNL     1      17.305  -1.185  52.759  1.00  0.00     0.138 C 
HETATM   26  C6  UNL     1      15.965  -0.497  52.585  1.00  0.00     0.041 C 
BRANCH  25  27
HETATM   27  O2  UNL     1      17.507  -1.329  54.120  1.00  0.00    -0.394 OA
HETATM   28  H10 UNL     1      18.198  -2.025  54.252  1.00  0.00     0.210 HD
ENDBRANCH  25  27
ENDBRANCH  24  25
ENDBRANCH  23  24
ENDBRANCH   3  23
TORSDOF 8
ENDMDL
