MODEL 1
REMARK VINA RESULT:      -7.9      0.000      0.000
REMARK  1 active torsions:
REMARK  status: ('A' for Active; 'I' for Inactive)
REMARK    1  A    between atoms: N1_1  and  C1_2 
ROOT
HETATM    1  C1  UNL     1      26.677   2.134  53.458  1.00  0.00     0.342 A 
HETATM    2  O1  UNL     1      25.561   2.003  52.984  1.00  0.00     0.000 OA
HETATM    3  N2  UNL     1      25.566   3.001  53.090  1.00  0.00     0.139 N 
HETATM    4  C2  UNL     1      24.471   2.157  52.536  1.00  0.00     0.227 A 
HETATM    5  C3  UNL     1      23.400   2.967  52.178  1.00  0.00     0.007 A 
HETATM    6  C4  UNL     1      23.928   4.316  52.545  1.00  0.00     0.189 A 
HETATM    7  N3  UNL     1      23.060   5.377  52.215  1.00  0.00    -0.278 NA
HETATM    8  C5  UNL     1      21.940   5.419  51.726  1.00  0.00     0.227 A 
HETATM    9  N4  UNL     1      21.597   4.125  51.507  1.00  0.00    -0.245 NA
HETATM   10  C6  UNL     1      22.044   2.973  51.626  1.00  0.00     0.060 A 
HETATM   11  C7  UNL     1      20.981   2.024  51.198  1.00  0.00     0.132 C 
HETATM   12 BR1  UNL     1      21.521   0.632  50.005  1.00  0.00    -0.080 Br
HETATM   13  C8  UNL     1      20.349   1.449  52.448  1.00  0.00    -0.009 C 
HETATM   14  C9  UNL     1      20.472   0.576  53.479  1.00  0.00    -0.023 C 
HETATM   15  C10 UNL     1      20.514  -0.360  54.655  1.00  0.00     0.043 C 
HETATM   16  C11 UNL     1      21.839  -0.952  54.358  1.00  0.00    -0.019 C 
HETATM   17  C12 UNL     1      22.648  -0.540  53.207  1.00  0.00     0.001 C 
HETATM   18  C13 UNL     1      24.087  -0.111  53.553  1.00  0.00     0.003 C 
HETATM   19  C14 UNL     1      24.564   0.664  52.322  1.00  0.00     0.050 C 
HETATM   20  H3  UNL     1      25.989   4.010  53.375  1.00  0.00     0.321 HD
ENDROOT
BRANCH   1  21
HETATM   21  N1  UNL     1      27.916   2.534  54.010  1.00  0.00    -0.390 N 
HETATM   22  H1  UNL     1      27.655   3.484  54.417  1.00  0.00     0.152 HD
HETATM   23  H2  UNL     1      28.608   1.765  53.814  1.00  0.00     0.152 HD
ENDBRANCH   1  21
TORSDOF 1
ENDMDL
MODEL 2
REMARK VINA RESULT:      -7.6      2.317      4.170
REMARK  1 active torsions:
REMARK  status: ('A' for Active; 'I' for Inactive)
REMARK    1  A    between atoms: N1_1  and  C1_2 
ROOT
HETATM    1  C1  UNL     1      26.178   2.450  53.361  1.00  0.00     0.342 A 
HETATM    2  O1  UNL     1      25.018   2.294  53.020  1.00  0.00     0.000 OA
HETATM    3  N2  UNL     1      25.149   1.429  53.512  1.00  0.00     0.139 N 
HETATM    4  C2  UNL     1      23.910   1.904  52.834  1.00  0.00     0.227 A 
HETATM    5  C3  UNL     1      22.915   0.943  52.968  1.00  0.00     0.007 A 
HETATM    6  C4  UNL     1      23.633  -0.103  53.757  1.00  0.00     0.189 A 
HETATM    7  N3  UNL     1      22.824  -1.200  54.118  1.00  0.00    -0.278 NA
HETATM    8  C5  UNL     1      21.661  -1.495  53.881  1.00  0.00     0.227 A 
HETATM    9  N4  UNL     1      21.183  -0.477  53.123  1.00  0.00    -0.245 NA
HETATM   10  C6  UNL     1      21.530   0.608  52.630  1.00  0.00     0.060 A 
HETATM   11  C7  UNL     1      20.391   1.132  51.829  1.00  0.00     0.132 C 
HETATM   12 BR1  UNL     1      19.940   2.969  52.103  1.00  0.00    -0.080 Br
HETATM   13  C8  UNL     1      20.694   0.862  50.371  1.00  0.00    -0.009 C 
HETATM   14  C9  UNL     1      21.407   1.227  49.276  1.00  0.00    -0.023 C 
HETATM   15  C10 UNL     1      22.150   1.556  48.011  1.00  0.00     0.043 C 
HETATM   16  C11 UNL     1      22.924   2.697  48.555  1.00  0.00    -0.019 C 
HETATM   17  C12 UNL     1      22.809   3.134  49.950  1.00  0.00     0.001 C 
HETATM   18  C13 UNL     1      24.148   3.224  50.707  1.00  0.00     0.003 C 
HETATM   19  C14 UNL     1      23.752   3.259  52.185  1.00  0.00     0.050 C 
HETATM   20  H3  UNL     1      25.714   0.655  54.110  1.00  0.00     0.321 HD
ENDROOT
BRANCH   1  21
HETATM   21  N1  UNL     1      27.498   2.402  53.865  1.00  0.00    -0.390 N 
HETATM   22  H1  UNL     1      27.848   3.374  53.600  1.00  0.00     0.152 HD
HETATM   23  H2  UNL     1      27.632   1.451  54.297  1.00  0.00     0.152 HD
ENDBRANCH   1  21
TORSDOF 1
ENDMDL
MODEL 3
REMARK VINA RESULT:      -7.3      3.542      4.508
REMARK  1 active torsions:
REMARK  status: ('A' for Active; 'I' for Inactive)
REMARK    1  A    between atoms: N1_1  and  C1_2 
ROOT
HETATM    1  C1  UNL     1      28.293   5.102  48.513  1.00  0.00     0.342 A 
HETATM    2  O1  UNL     1      27.203   4.875  49.010  1.00  0.00     0.000 OA
HETATM    3  N2  UNL     1      27.195   5.876  49.077  1.00  0.00     0.139 N 
HETATM    4  C2  UNL     1      26.123   4.934  49.504  1.00  0.00     0.227 A 
HETATM    5  C3  UNL     1      25.065   5.654  50.045  1.00  0.00     0.007 A 
HETATM    6  C4  UNL     1      25.571   7.053  49.904  1.00  0.00     0.189 A 
HETATM    7  N3  UNL     1      24.647   8.037  50.314  1.00  0.00    -0.278 NA
HETATM    8  C5  UNL     1      23.528   7.981  50.803  1.00  0.00     0.227 A 
HETATM    9  N4  UNL     1      23.251   6.657  50.908  1.00  0.00    -0.245 NA
HETATM   10  C6  UNL     1      23.742   5.544  50.664  1.00  0.00     0.060 A 
HETATM   11  C7  UNL     1      22.794   4.507  51.155  1.00  0.00     0.132 C 
HETATM   12 BR1  UNL     1      22.412   3.074  49.950  1.00  0.00    -0.080 Br
HETATM   13  C8  UNL     1      23.330   3.981  52.468  1.00  0.00    -0.009 C 
HETATM   14  C9  UNL     1      24.243   3.187  53.082  1.00  0.00    -0.023 C 
HETATM   15  C10 UNL     1      25.214   2.336  53.853  1.00  0.00     0.043 C 
HETATM   16  C11 UNL     1      25.947   1.803  52.680  1.00  0.00    -0.019 C 
HETATM   17  C12 UNL     1      25.618   2.185  51.303  1.00  0.00     0.001 C 
HETATM   18  C13 UNL     1      26.807   2.720  50.482  1.00  0.00     0.003 C 
HETATM   19  C14 UNL     1      26.162   3.438  49.294  1.00  0.00     0.050 C 
HETATM   20  H3  UNL     1      27.600   6.924  48.958  1.00  0.00     0.321 HD
ENDROOT
BRANCH   1  21
HETATM   21  N1  UNL     1      29.500   5.610  47.979  1.00  0.00    -0.390 N 
HETATM   22  H1  UNL     1      29.232   5.722  46.954  1.00  0.00     0.152 HD
HETATM   23  H2  UNL     1      30.186   5.681  48.774  1.00  0.00     0.152 HD
ENDBRANCH   1  21
TORSDOF 1
ENDMDL
MODEL 4
REMARK VINA RESULT:      -7.1      2.857      4.544
REMARK  1 active torsions:
REMARK  status: ('A' for Active; 'I' for Inactive)
REMARK    1  A    between atoms: N1_1  and  C1_2 
ROOT
HETATM    1  C1  UNL     1      24.930  -0.102  53.932  1.00  0.00     0.342 A 
HETATM    2  O1  UNL     1      23.895   0.350  53.471  1.00  0.00     0.000 OA
HETATM    3  N2  UNL     1      23.530  -0.501  53.859  1.00  0.00     0.139 N 
HETATM    4  C2  UNL     1      22.773   0.561  53.140  1.00  0.00     0.227 A 
HETATM    5  C3  UNL     1      21.434   0.199  53.061  1.00  0.00     0.007 A 
HETATM    6  C4  UNL     1      21.451  -1.115  53.772  1.00  0.00     0.189 A 
HETATM    7  N3  UNL     1      20.177  -1.702  53.916  1.00  0.00    -0.278 NA
HETATM    8  C5  UNL     1      19.059  -1.376  53.541  1.00  0.00     0.227 A 
HETATM    9  N4  UNL     1      19.233  -0.206  52.878  1.00  0.00    -0.245 NA
HETATM   10  C6  UNL     1      20.118   0.604  52.560  1.00  0.00     0.060 A 
HETATM   11  C7  UNL     1      19.490   1.669  51.733  1.00  0.00     0.132 C 
HETATM   12 BR1  UNL     1      19.931   3.470  52.197  1.00  0.00    -0.080 Br
HETATM   13  C8  UNL     1      19.828   1.386  50.286  1.00  0.00    -0.009 C 
HETATM   14  C9  UNL     1      20.775   1.431  49.314  1.00  0.00    -0.023 C 
HETATM   15  C10 UNL     1      21.753   1.442  48.173  1.00  0.00     0.043 C 
HETATM   16  C11 UNL     1      22.891   2.022  48.925  1.00  0.00    -0.019 C 
HETATM   17  C12 UNL     1      22.804   2.364  50.348  1.00  0.00     0.001 C 
HETATM   18  C13 UNL     1      23.904   1.739  51.227  1.00  0.00     0.003 C 
HETATM   19  C14 UNL     1      23.370   1.862  52.656  1.00  0.00     0.050 C 
HETATM   20  H3  UNL     1      23.570  -1.491  54.402  1.00  0.00     0.321 HD
ENDROOT
BRANCH   1  21
HETATM   21  N1  UNL     1      25.984  -0.821  54.542  1.00  0.00    -0.390 N 
HETATM   22  H1  UNL     1      25.581  -0.975  55.517  1.00  0.00     0.152 HD
HETATM   23  H2  UNL     1      26.746  -0.926  53.823  1.00  0.00     0.152 HD
ENDBRANCH   1  21
TORSDOF 1
ENDMDL
MODEL 5
REMARK VINA RESULT:      -7.1      3.066      5.033
REMARK  1 active torsions:
REMARK  status: ('A' for Active; 'I' for Inactive)
REMARK    1  A    between atoms: N1_1  and  C1_2 
ROOT
HETATM    1  C1  UNL     1      19.550  -0.910  53.443  1.00  0.00     0.342 A 
HETATM    2  O1  UNL     1      20.511  -0.225  53.137  1.00  0.00     0.000 OA
HETATM    3  N2  UNL     1      20.074  -0.287  52.235  1.00  0.00     0.139 N 
HETATM    4  C2  UNL     1      21.325   0.443  52.585  1.00  0.00     0.227 A 
HETATM    5  C3  UNL     1      21.841   1.045  51.444  1.00  0.00     0.007 A 
HETATM    6  C4  UNL     1      20.830   0.637  50.424  1.00  0.00     0.189 A 
HETATM    7  N3  UNL     1      21.059   1.182  49.143  1.00  0.00    -0.278 NA
HETATM    8  C5  UNL     1      21.944   1.891  48.683  1.00  0.00     0.227 A 
HETATM    9  N4  UNL     1      22.791   2.120  49.716  1.00  0.00    -0.245 NA
HETATM   10  C6  UNL     1      22.939   1.862  50.922  1.00  0.00     0.060 A 
HETATM   11  C7  UNL     1      24.230   2.457  51.362  1.00  0.00     0.132 C 
HETATM   12 BR1  UNL     1      24.188   3.454  52.993  1.00  0.00    -0.080 Br
HETATM   13  C8  UNL     1      25.247   1.339  51.439  1.00  0.00    -0.009 C 
HETATM   14  C9  UNL     1      25.702   0.268  52.137  1.00  0.00    -0.023 C 
HETATM   15  C10 UNL     1      26.279  -0.931  52.837  1.00  0.00     0.043 C 
HETATM   16  C11 UNL     1      25.334  -0.937  53.979  1.00  0.00    -0.019 C 
HETATM   17  C12 UNL     1      24.250   0.042  54.112  1.00  0.00     0.001 C 
HETATM   18  C13 UNL     1      22.851  -0.572  54.308  1.00  0.00     0.003 C 
HETATM   19  C14 UNL     1      21.882   0.569  53.984  1.00  0.00     0.050 C 
HETATM   20  H3  UNL     1      19.295  -0.609  51.483  1.00  0.00     0.321 HD
ENDROOT
BRANCH   1  21
HETATM   21  N1  UNL     1      18.372  -1.686  53.553  1.00  0.00    -0.390 N 
HETATM   22  H1  UNL     1      18.779  -2.671  53.520  1.00  0.00     0.152 HD
HETATM   23  H2  UNL     1      17.563  -1.016  53.621  1.00  0.00     0.152 HD
ENDBRANCH   1  21
TORSDOF 1
ENDMDL
MODEL 6
REMARK VINA RESULT:      -7.1      2.814      4.572
REMARK  1 active torsions:
REMARK  status: ('A' for Active; 'I' for Inactive)
REMARK    1  A    between atoms: N1_1  and  C1_2 
ROOT
HETATM    1  C1  UNL     1      27.504  -0.476  53.272  1.00  0.00     0.342 A 
HETATM    2  O1  UNL     1      26.584   0.308  53.116  1.00  0.00     0.000 OA
HETATM    3  N2  UNL     1      26.048  -0.515  53.323  1.00  0.00     0.139 N 
HETATM    4  C2  UNL     1      25.529   0.851  53.033  1.00  0.00     0.227 A 
HETATM    5  C3  UNL     1      24.141   0.836  53.078  1.00  0.00     0.007 A 
HETATM    6  C4  UNL     1      23.882  -0.598  53.412  1.00  0.00     0.189 A 
HETATM    7  N3  UNL     1      22.518  -0.902  53.600  1.00  0.00    -0.278 NA
HETATM    8  C5  UNL     1      21.493  -0.241  53.505  1.00  0.00     0.227 A 
HETATM    9  N4  UNL     1      21.902   1.002  53.150  1.00  0.00    -0.245 NA
HETATM   10  C6  UNL     1      22.935   1.651  52.916  1.00  0.00     0.060 A 
HETATM   11  C7  UNL     1      22.530   3.022  52.505  1.00  0.00     0.132 C 
HETATM   12 BR1  UNL     1      23.462   4.465  53.343  1.00  0.00    -0.080 Br
HETATM   13  C8  UNL     1      22.652   3.104  50.999  1.00  0.00    -0.009 C 
HETATM   14  C9  UNL     1      23.485   3.218  49.934  1.00  0.00    -0.023 C 
HETATM   15  C10 UNL     1      24.325   3.342  48.694  1.00  0.00     0.043 C 
HETATM   16  C11 UNL     1      25.638   3.410  49.379  1.00  0.00    -0.019 C 
HETATM   17  C12 UNL     1      25.772   3.334  50.837  1.00  0.00     0.001 C 
HETATM   18  C13 UNL     1      26.748   2.252  51.337  1.00  0.00     0.003 C 
HETATM   19  C14 UNL     1      26.396   2.070  52.816  1.00  0.00     0.050 C 
HETATM   20  H3  UNL     1      25.880  -1.603  53.577  1.00  0.00     0.321 HD
ENDROOT
BRANCH   1  21
HETATM   21  N1  UNL     1      28.387  -1.558  53.499  1.00  0.00    -0.390 N 
HETATM   22  H1  UNL     1      28.027  -1.916  54.436  1.00  0.00     0.152 HD
HETATM   23  H2  UNL     1      29.048  -1.596  52.680  1.00  0.00     0.152 HD
ENDBRANCH   1  21
TORSDOF 1
ENDMDL
MODEL 7
REMARK VINA RESULT:      -7.0      3.026      4.750
REMARK  1 active torsions:
REMARK  status: ('A' for Active; 'I' for Inactive)
REMARK    1  A    between atoms: N1_1  and  C1_2 
ROOT
HETATM    1  C1  UNL     1      27.055   4.947  48.921  1.00  0.00     0.342 A 
HETATM    2  O1  UNL     1      26.137   4.478  49.571  1.00  0.00     0.000 OA
HETATM    3  N2  UNL     1      26.894   3.967  49.987  1.00  0.00     0.139 N 
HETATM    4  C2  UNL     1      25.448   3.883  50.337  1.00  0.00     0.227 A 
HETATM    5  C3  UNL     1      25.273   2.953  51.354  1.00  0.00     0.007 A 
HETATM    6  C4  UNL     1      26.682   2.510  51.580  1.00  0.00     0.189 A 
HETATM    7  N3  UNL     1      26.828   1.593  52.642  1.00  0.00    -0.278 NA
HETATM    8  C5  UNL     1      26.030   1.050  53.393  1.00  0.00     0.227 A 
HETATM    9  N4  UNL     1      24.813   1.519  53.020  1.00  0.00    -0.245 NA
HETATM   10  C6  UNL     1      24.283   2.294  52.209  1.00  0.00     0.060 A 
HETATM   11  C7  UNL     1      22.809   2.212  52.393  1.00  0.00     0.132 C 
HETATM   12 BR1  UNL     1      21.876   3.877  52.497  1.00  0.00    -0.080 Br
HETATM   13  C8  UNL     1      22.255   1.351  51.278  1.00  0.00    -0.009 C 
HETATM   14  C9  UNL     1      21.920   1.275  49.966  1.00  0.00    -0.023 C 
HETATM   15  C10 UNL     1      21.520   1.093  48.528  1.00  0.00     0.043 C 
HETATM   16  C11 UNL     1      21.875   2.459  48.075  1.00  0.00    -0.019 C 
HETATM   17  C12 UNL     1      22.445   3.466  48.975  1.00  0.00     0.001 C 
HETATM   18  C13 UNL     1      23.763   4.095  48.482  1.00  0.00     0.003 C 
HETATM   19  C14 UNL     1      24.367   4.746  49.729  1.00  0.00     0.050 C 
HETATM   20  H3  UNL     1      27.968   3.650  50.140  1.00  0.00     0.321 HD
ENDROOT
BRANCH   1  21
HETATM   21  N1  UNL     1      28.268   5.337  48.306  1.00  0.00    -0.390 N 
HETATM   22  H1  UNL     1      27.947   6.194  47.759  1.00  0.00     0.152 HD
HETATM   23  H2  UNL     1      29.006   4.651  48.612  1.00  0.00     0.152 HD
ENDBRANCH   1  21
TORSDOF 1
ENDMDL
MODEL 8
REMARK VINA RESULT:      -6.7      3.407      5.358
REMARK  1 active torsions:
REMARK  status: ('A' for Active; 'I' for Inactive)
REMARK    1  A    between atoms: N1_1  and  C1_2 
ROOT
HETATM    1  C1  UNL     1      26.699   6.491  49.293  1.00  0.00     0.342 A 
HETATM    2  O1  UNL     1      25.856   5.696  49.672  1.00  0.00     0.000 OA
HETATM    3  N2  UNL     1      26.678   5.163  49.892  1.00  0.00     0.139 N 
HETATM    4  C2  UNL     1      25.258   4.770  50.120  1.00  0.00     0.227 A 
HETATM    5  C3  UNL     1      25.217   3.505  50.692  1.00  0.00     0.007 A 
HETATM    6  C4  UNL     1      26.673   3.188  50.790  1.00  0.00     0.189 A 
HETATM    7  N3  UNL     1      26.948   1.957  51.422  1.00  0.00    -0.278 NA
HETATM    8  C5  UNL     1      26.235   1.071  51.871  1.00  0.00     0.227 A 
HETATM    9  N4  UNL     1      24.964   1.492  51.655  1.00  0.00    -0.245 NA
HETATM   10  C6  UNL     1      24.329   2.449  51.183  1.00  0.00     0.060 A 
HETATM   11  C7  UNL     1      22.880   2.118  51.258  1.00  0.00     0.132 C 
HETATM   12 BR1  UNL     1      21.737   3.482  51.954  1.00  0.00    -0.080 Br
HETATM   13  C8  UNL     1      22.434   1.695  49.875  1.00  0.00    -0.009 C 
HETATM   14  C9  UNL     1      22.101   2.092  48.621  1.00  0.00    -0.023 C 
HETATM   15  C10 UNL     1      21.716   2.433  47.208  1.00  0.00     0.043 C 
HETATM   16  C11 UNL     1      21.884   3.901  47.332  1.00  0.00    -0.019 C 
HETATM   17  C12 UNL     1      22.325   4.543  48.574  1.00  0.00     0.001 C 
HETATM   18  C13 UNL     1      23.544   5.473  48.419  1.00  0.00     0.003 C 
HETATM   19  C14 UNL     1      24.068   5.660  49.845  1.00  0.00     0.050 C 
HETATM   20  H3  UNL     1      27.785   4.948  49.957  1.00  0.00     0.321 HD
ENDROOT
BRANCH   1  21
HETATM   21  N1  UNL     1      27.845   7.236  48.929  1.00  0.00    -0.390 N 
HETATM   22  H1  UNL     1      27.672   7.369  47.885  1.00  0.00     0.152 HD
HETATM   23  H2  UNL     1      28.418   7.372  49.801  1.00  0.00     0.152 HD
ENDBRANCH   1  21
TORSDOF 1
ENDMDL
MODEL 9
REMARK VINA RESULT:      -6.7      3.021      4.930
REMARK  1 active torsions:
REMARK  status: ('A' for Active; 'I' for Inactive)
REMARK    1  A    between atoms: N1_1  and  C1_2 
ROOT
HETATM    1  C1  UNL     1      22.246  -0.589  53.354  1.00  0.00     0.342 A 
HETATM    2  O1  UNL     1      22.388   0.456  52.741  1.00  0.00     0.000 OA
HETATM    3  N2  UNL     1      21.687   0.033  52.161  1.00  0.00     0.139 N 
HETATM    4  C2  UNL     1      22.321   1.370  51.983  1.00  0.00     0.227 A 
HETATM    5  C3  UNL     1      21.800   1.980  50.849  1.00  0.00     0.007 A 
HETATM    6  C4  UNL     1      20.833   0.940  50.384  1.00  0.00     0.189 A 
HETATM    7  N3  UNL     1      20.079   1.325  49.257  1.00  0.00    -0.278 NA
HETATM    8  C5  UNL     1      20.082   2.324  48.551  1.00  0.00     0.227 A 
HETATM    9  N4  UNL     1      21.039   3.129  49.076  1.00  0.00    -0.245 NA
HETATM   10  C6  UNL     1      21.860   3.176  50.005  1.00  0.00     0.060 A 
HETATM   11  C7  UNL     1      22.638   4.436  49.866  1.00  0.00     0.132 C 
HETATM   12 BR1  UNL     1      22.854   5.477  51.455  1.00  0.00    -0.080 Br
HETATM   13  C8  UNL     1      23.982   4.082  49.267  1.00  0.00    -0.009 C 
HETATM   14  C9  UNL     1      25.212   3.550  49.480  1.00  0.00    -0.023 C 
HETATM   15  C10 UNL     1      26.597   2.981  49.616  1.00  0.00     0.043 C 
HETATM   16  C11 UNL     1      26.500   2.629  51.052  1.00  0.00    -0.019 C 
HETATM   17  C12 UNL     1      25.287   2.864  51.842  1.00  0.00     0.001 C 
HETATM   18  C13 UNL     1      24.751   1.622  52.581  1.00  0.00     0.003 C 
HETATM   19  C14 UNL     1      23.309   1.985  52.947  1.00  0.00     0.050 C 
HETATM   20  H3  UNL     1      20.963  -0.769  51.831  1.00  0.00     0.321 HD
ENDROOT
BRANCH   1  21
HETATM   21  N1  UNL     1      21.909  -1.855  53.885  1.00  0.00    -0.390 N 
HETATM   22  H1  UNL     1      22.138  -1.706  54.916  1.00  0.00     0.152 HD
HETATM   23  H2  UNL     1      21.571  -2.449  53.084  1.00  0.00     0.152 HD
ENDBRANCH   1  21
TORSDOF 1
ENDMDL
