MODEL 1
REMARK VINA RESULT:      -8.6      0.000      0.000
REMARK  7 active torsions:
REMARK  status: ('A' for Active; 'I' for Inactive)
REMARK    1  A    between atoms: C1_2  and  C2_3 
REMARK       I    between atoms: C1_2  and  N2_12 
REMARK    2  A    between atoms: C2_3  and  O2_4 
REMARK    3  A    between atoms: O2_4  and  C3_5 
REMARK    4  A    between atoms: C3_5  and  N1_6 
REMARK    5  A    between atoms: N2_12  and  C9_13 
REMARK    6  A    between atoms: C14_20  and  N5_21 
REMARK    7  A    between atoms: N5_21  and  C15_22 
ROOT
HETATM    1  C9  UNL     1      24.415  -0.373  53.405  1.00  0.00     0.035 A 
HETATM    2  C10 UNL     1      24.983  -0.693  54.617  1.00  0.00     0.032 A 
HETATM    3  C11 UNL     1      26.181  -0.117  54.952  1.00  0.00     0.035 A 
HETATM    4  C12 UNL     1      26.781   0.758  54.078  1.00  0.00     0.072 A 
HETATM    5  N3  UNL     1      27.970   1.280  54.493  1.00  0.00    -0.241 NA
HETATM    6  C13 UNL     1      28.593   2.140  53.668  1.00  0.00     0.236 A 
HETATM    7  N4  UNL     1      28.068   2.470  52.487  1.00  0.00    -0.224 NA
HETATM    8  C14 UNL     1      26.911   2.003  52.009  1.00  0.00     0.142 A 
HETATM    9  C21 UNL     1      26.277   1.124  52.856  1.00  0.00     0.041 A 
HETATM   10  C22 UNL     1      25.076   0.512  52.579  1.00  0.00     0.047 A 
ENDROOT
BRANCH   1  11
HETATM   11  N2  UNL     1      23.185  -0.986  53.096  1.00  0.00    -0.325 N 
HETATM   12  C1  UNL     1      21.976  -0.288  53.326  1.00  0.00     0.245 C 
HETATM   13  O1  UNL     1      22.252   0.876  53.807  1.00  0.00    -0.271 OA
HETATM   14  H15 UNL     1      22.939  -1.915  52.692  1.00  0.00     0.169 HD
BRANCH  12  15
HETATM   15  C2  UNL     1      20.530  -0.359  53.234  1.00  0.00     0.273 C 
BRANCH  15  16
HETATM   16  O2  UNL     1      19.835   0.681  52.713  1.00  0.00    -0.363 OA
BRANCH  16  17
HETATM   17  C3  UNL     1      19.396   0.607  51.428  1.00  0.00     0.288 C 
BRANCH  17  18
HETATM   18  N1  UNL     1      19.761   1.754  50.620  1.00  0.00    -0.392 N 
HETATM   19  C4  UNL     1      20.187   1.411  49.308  1.00  0.00     0.119 C 
HETATM   20  C5  UNL     1      21.652   1.301  49.083  1.00  0.00     0.020 C 
HETATM   21  C6  UNL     1      22.521   1.687  50.232  1.00  0.00     0.003 C 
HETATM   22  C7  UNL     1      21.931   2.922  50.860  1.00  0.00     0.020 C 
HETATM   23  C8  UNL     1      20.518   2.748  51.303  1.00  0.00     0.119 C 
ENDBRANCH  17  18
ENDBRANCH  16  17
ENDBRANCH  15  16
ENDBRANCH  12  15
ENDBRANCH   1  11
BRANCH   8  24
HETATM   24  N5  UNL     1      26.319   2.320  50.771  1.00  0.00    -0.340 N 
HETATM   25  H19 UNL     1      25.914   1.606  50.163  1.00  0.00     0.167 HD
BRANCH  24  26
HETATM   26  C15 UNL     1      26.188   3.599  50.186  1.00  0.00     0.035 A 
HETATM   27  C16 UNL     1      27.060   4.091  49.244  1.00  0.00     0.029 A 
HETATM   28  C17 UNL     1      26.965   5.331  48.661  1.00  0.00     0.004 A 
HETATM   29  C18 UNL     1      25.941   6.184  49.008  1.00  0.00     0.019 A 
HETATM   30  C19 UNL     1      25.037   5.744  49.947  1.00  0.00     0.013 A 
HETATM   31 BR1  UNL     1      23.589   6.852  50.492  1.00  0.00    -0.051 Br
HETATM   32  C20 UNL     1      25.188   4.491  50.494  1.00  0.00     0.048 A 
ENDBRANCH  24  26
ENDBRANCH   8  24
TORSDOF 7
ENDMDL
MODEL 2
REMARK VINA RESULT:      -8.1      2.925      5.216
REMARK  7 active torsions:
REMARK  status: ('A' for Active; 'I' for Inactive)
REMARK    1  A    between atoms: C1_2  and  C2_3 
REMARK       I    between atoms: C1_2  and  N2_12 
REMARK    2  A    between atoms: C2_3  and  O2_4 
REMARK    3  A    between atoms: O2_4  and  C3_5 
REMARK    4  A    between atoms: C3_5  and  N1_6 
REMARK    5  A    between atoms: N2_12  and  C9_13 
REMARK    6  A    between atoms: C14_20  and  N5_21 
REMARK    7  A    between atoms: N5_21  and  C15_22 
ROOT
HETATM    1  C9  UNL     1      20.721   0.730  52.214  1.00  0.00     0.035 A 
HETATM    2  C10 UNL     1      19.837   0.072  53.039  1.00  0.00     0.032 A 
HETATM    3  C11 UNL     1      20.337  -0.674  54.075  1.00  0.00     0.035 A 
HETATM    4  C12 UNL     1      21.697  -0.746  54.264  1.00  0.00     0.072 A 
HETATM    5  N3  UNL     1      22.105  -1.511  55.315  1.00  0.00    -0.241 NA
HETATM    6  C13 UNL     1      23.427  -1.611  55.536  1.00  0.00     0.236 A 
HETATM    7  N4  UNL     1      24.309  -0.986  54.755  1.00  0.00    -0.224 NA
HETATM    8  C14 UNL     1      23.991  -0.219  53.707  1.00  0.00     0.142 A 
HETATM    9  C21 UNL     1      22.637  -0.120  53.485  1.00  0.00     0.041 A 
HETATM   10  C22 UNL     1      22.072   0.610  52.465  1.00  0.00     0.047 A 
ENDROOT
BRANCH   1  11
HETATM   11  N2  UNL     1      20.169   1.485  51.162  1.00  0.00    -0.325 N 
HETATM   12  C1  UNL     1      19.806   2.835  51.380  1.00  0.00     0.245 C 
HETATM   13  O1  UNL     1      20.079   3.147  52.602  1.00  0.00    -0.271 OA
HETATM   14  H15 UNL     1      19.955   1.261  50.166  1.00  0.00     0.169 HD
BRANCH  12  15
HETATM   15  C2  UNL     1      19.243   4.025  50.772  1.00  0.00     0.273 C 
BRANCH  15  16
HETATM   16  O2  UNL     1      20.061   4.945  50.205  1.00  0.00    -0.363 OA
BRANCH  16  17
HETATM   17  C3  UNL     1      21.193   4.527  49.577  1.00  0.00     0.288 C 
BRANCH  17  18
HETATM   18  N1  UNL     1      22.382   5.257  49.972  1.00  0.00    -0.392 N 
HETATM   19  C4  UNL     1      23.587   4.686  49.480  1.00  0.00     0.119 C 
HETATM   20  C5  UNL     1      24.330   3.786  50.400  1.00  0.00     0.020 C 
HETATM   21  C6  UNL     1      23.793   3.680  51.787  1.00  0.00     0.003 C 
HETATM   22  C7  UNL     1      23.383   5.060  52.228  1.00  0.00     0.020 C 
HETATM   23  C8  UNL     1      22.386   5.702  51.324  1.00  0.00     0.119 C 
ENDBRANCH  17  18
ENDBRANCH  16  17
ENDBRANCH  15  16
ENDBRANCH  12  15
ENDBRANCH   1  11
BRANCH   8  24
HETATM   24  N5  UNL     1      24.884   0.458  52.854  1.00  0.00    -0.340 N 
HETATM   25  H19 UNL     1      24.599   0.815  51.941  1.00  0.00     0.167 HD
BRANCH  24  26
HETATM   26  C15 UNL     1      26.246   0.745  53.093  1.00  0.00     0.035 A 
HETATM   27  C16 UNL     1      26.733   2.021  53.248  1.00  0.00     0.029 A 
HETATM   28  C17 UNL     1      28.050   2.335  53.475  1.00  0.00     0.004 A 
HETATM   29  C18 UNL     1      28.996   1.336  53.564  1.00  0.00     0.019 A 
HETATM   30  C19 UNL     1      28.565   0.038  53.417  1.00  0.00     0.013 A 
HETATM   31 BR1  UNL     1      29.797  -1.409  53.522  1.00  0.00    -0.051 Br
HETATM   32  C20 UNL     1      27.232  -0.210  53.191  1.00  0.00     0.048 A 
ENDBRANCH  24  26
ENDBRANCH   8  24
TORSDOF 7
ENDMDL
MODEL 3
REMARK VINA RESULT:      -7.9      2.786      5.687
REMARK  7 active torsions:
REMARK  status: ('A' for Active; 'I' for Inactive)
REMARK    1  A    between atoms: C1_2  and  C2_3 
REMARK       I    between atoms: C1_2  and  N2_12 
REMARK    2  A    between atoms: C2_3  and  O2_4 
REMARK    3  A    between atoms: O2_4  and  C3_5 
REMARK    4  A    between atoms: C3_5  and  N1_6 
REMARK    5  A    between atoms: N2_12  and  C9_13 
REMARK    6  A    between atoms: C14_20  and  N5_21 
REMARK    7  A    between atoms: N5_21  and  C15_22 
ROOT
HETATM    1  C9  UNL     1      20.973   1.208  51.946  1.00  0.00     0.035 A 
HETATM    2  C10 UNL     1      19.977   0.743  52.773  1.00  0.00     0.032 A 
HETATM    3  C11 UNL     1      20.325  -0.040  53.844  1.00  0.00     0.035 A 
HETATM    4  C12 UNL     1      21.649  -0.339  54.064  1.00  0.00     0.072 A 
HETATM    5  N3  UNL     1      21.902  -1.123  55.149  1.00  0.00    -0.241 NA
HETATM    6  C13 UNL     1      23.184  -1.441  55.401  1.00  0.00     0.236 A 
HETATM    7  N4  UNL     1      24.172  -1.006  54.617  1.00  0.00    -0.224 NA
HETATM    8  C14 UNL     1      24.007  -0.235  53.538  1.00  0.00     0.142 A 
HETATM    9  C21 UNL     1      22.695   0.088  53.285  1.00  0.00     0.041 A 
HETATM   10  C22 UNL     1      22.279   0.867  52.229  1.00  0.00     0.047 A 
ENDROOT
BRANCH   1  11
HETATM   11  N2  UNL     1      20.575   2.008  50.858  1.00  0.00    -0.325 N 
HETATM   12  C1  UNL     1      20.747   3.411  50.917  1.00  0.00     0.245 C 
HETATM   13  O1  UNL     1      21.287   3.717  52.048  1.00  0.00    -0.271 OA
HETATM   14  H15 UNL     1      20.155   1.783  49.930  1.00  0.00     0.169 HD
BRANCH  12  15
HETATM   15  C2  UNL     1      20.557   4.660  50.204  1.00  0.00     0.273 C 
BRANCH  15  16
HETATM   16  O2  UNL     1      21.448   5.669  50.363  1.00  0.00    -0.363 OA
BRANCH  16  17
HETATM   17  C3  UNL     1      22.610   5.644  49.658  1.00  0.00     0.288 C 
BRANCH  17  18
HETATM   18  N1  UNL     1      23.776   5.349  50.468  1.00  0.00    -0.392 N 
HETATM   19  C4  UNL     1      24.530   6.503  50.818  1.00  0.00     0.119 C 
HETATM   20  C5  UNL     1      25.707   6.821  49.967  1.00  0.00     0.020 C 
HETATM   21  C6  UNL     1      26.042   5.820  48.913  1.00  0.00     0.003 C 
HETATM   22  C7  UNL     1      25.875   4.448  49.512  1.00  0.00     0.020 C 
HETATM   23  C8  UNL     1      24.510   4.200  50.060  1.00  0.00     0.119 C 
ENDBRANCH  17  18
ENDBRANCH  16  17
ENDBRANCH  15  16
ENDBRANCH  12  15
ENDBRANCH   1  11
BRANCH   8  24
HETATM   24  N5  UNL     1      25.016   0.247  52.682  1.00  0.00    -0.340 N 
HETATM   25  H19 UNL     1      24.865   0.376  51.681  1.00  0.00     0.167 HD
BRANCH  24  26
HETATM   26  C15 UNL     1      26.334   0.615  53.033  1.00  0.00     0.035 A 
HETATM   27  C16 UNL     1      26.725   1.915  53.242  1.00  0.00     0.029 A 
HETATM   28  C17 UNL     1      27.999   2.306  53.577  1.00  0.00     0.004 A 
HETATM   29  C18 UNL     1      28.995   1.367  53.729  1.00  0.00     0.019 A 
HETATM   30  C19 UNL     1      28.661   0.047  53.533  1.00  0.00     0.013 A 
HETATM   31 BR1  UNL     1      29.969  -1.322  53.719  1.00  0.00    -0.051 Br
HETATM   32  C20 UNL     1      27.368  -0.279  53.198  1.00  0.00     0.048 A 
ENDBRANCH  24  26
ENDBRANCH   8  24
TORSDOF 7
ENDMDL
MODEL 4
REMARK VINA RESULT:      -7.5      3.942      7.180
REMARK  7 active torsions:
REMARK  status: ('A' for Active; 'I' for Inactive)
REMARK    1  A    between atoms: C1_2  and  C2_3 
REMARK       I    between atoms: C1_2  and  N2_12 
REMARK    2  A    between atoms: C2_3  and  O2_4 
REMARK    3  A    between atoms: O2_4  and  C3_5 
REMARK    4  A    between atoms: C3_5  and  N1_6 
REMARK    5  A    between atoms: N2_12  and  C9_13 
REMARK    6  A    between atoms: C14_20  and  N5_21 
REMARK    7  A    between atoms: N5_21  and  C15_22 
ROOT
HETATM    1  C9  UNL     1      25.066   4.606  49.344  1.00  0.00     0.035 A 
HETATM    2  C10 UNL     1      24.034   5.365  48.842  1.00  0.00     0.032 A 
HETATM    3  C11 UNL     1      24.336   6.529  48.184  1.00  0.00     0.035 A 
HETATM    4  C12 UNL     1      25.651   6.908  48.044  1.00  0.00     0.072 A 
HETATM    5  N3  UNL     1      25.857   8.079  47.379  1.00  0.00    -0.241 NA
HETATM    6  C13 UNL     1      27.128   8.488  47.220  1.00  0.00     0.236 A 
HETATM    7  N4  UNL     1      28.150   7.774  47.696  1.00  0.00    -0.224 NA
HETATM    8  C14 UNL     1      28.032   6.619  48.357  1.00  0.00     0.142 A 
HETATM    9  C21 UNL     1      26.730   6.205  48.517  1.00  0.00     0.041 A 
HETATM   10  C22 UNL     1      26.359   5.049  49.166  1.00  0.00     0.047 A 
ENDROOT
BRANCH   1  11
HETATM   11  N2  UNL     1      24.715   3.418  50.014  1.00  0.00    -0.325 N 
HETATM   12  C1  UNL     1      24.272   3.473  51.356  1.00  0.00     0.245 C 
HETATM   13  O1  UNL     1      24.266   4.704  51.743  1.00  0.00    -0.271 OA
HETATM   14  H15 UNL     1      24.695   2.418  49.718  1.00  0.00     0.169 HD
BRANCH  12  15
HETATM   15  C2  UNL     1      23.815   2.688  52.487  1.00  0.00     0.273 C 
BRANCH  15  16
HETATM   16  O2  UNL     1      24.628   1.750  53.031  1.00  0.00    -0.363 OA
BRANCH  16  17
HETATM   17  C3  UNL     1      25.776   2.144  53.644  1.00  0.00     0.288 C 
BRANCH  17  18
HETATM   18  N1  UNL     1      26.978   1.786  52.917  1.00  0.00    -0.392 N 
HETATM   19  C4  UNL     1      26.984   0.439  52.461  1.00  0.00     0.119 C 
HETATM   20  C5  UNL     1      27.692  -0.554  53.310  1.00  0.00     0.020 C 
HETATM   21  C6  UNL     1      28.428  -0.005  54.485  1.00  0.00     0.003 C 
HETATM   22  C7  UNL     1      29.117   1.260  54.046  1.00  0.00     0.020 C 
HETATM   23  C8  UNL     1      28.187   2.280  53.483  1.00  0.00     0.119 C 
ENDBRANCH  17  18
ENDBRANCH  16  17
ENDBRANCH  15  16
ENDBRANCH  12  15
ENDBRANCH   1  11
BRANCH   8  24
HETATM   24  N5  UNL     1      29.077   5.833  48.877  1.00  0.00    -0.340 N 
HETATM   25  H19 UNL     1      28.918   5.116  49.587  1.00  0.00     0.167 HD
BRANCH  24  26
HETATM   26  C15 UNL     1      30.446   5.891  48.534  1.00  0.00     0.035 A 
HETATM   27  C16 UNL     1      31.348   6.713  49.165  1.00  0.00     0.029 A 
HETATM   28  C17 UNL     1      32.683   6.799  48.852  1.00  0.00     0.004 A 
HETATM   29  C18 UNL     1      33.208   6.026  47.840  1.00  0.00     0.019 A 
HETATM   30  C19 UNL     1      32.351   5.182  47.173  1.00  0.00     0.013 A 
HETATM   31 BR1  UNL     1      32.984   4.076  45.760  1.00  0.00    -0.051 Br
HETATM   32  C20 UNL     1      31.025   5.143  47.535  1.00  0.00     0.048 A 
ENDBRANCH  24  26
ENDBRANCH   8  24
TORSDOF 7
ENDMDL
MODEL 5
REMARK VINA RESULT:      -7.5      4.925      9.420
REMARK  7 active torsions:
REMARK  status: ('A' for Active; 'I' for Inactive)
REMARK    1  A    between atoms: C1_2  and  C2_3 
REMARK       I    between atoms: C1_2  and  N2_12 
REMARK    2  A    between atoms: C2_3  and  O2_4 
REMARK    3  A    between atoms: O2_4  and  C3_5 
REMARK    4  A    between atoms: C3_5  and  N1_6 
REMARK    5  A    between atoms: N2_12  and  C9_13 
REMARK    6  A    between atoms: C14_20  and  N5_21 
REMARK    7  A    between atoms: N5_21  and  C15_22 
ROOT
HETATM    1  C9  UNL     1      26.137   6.331  49.074  1.00  0.00     0.035 A 
HETATM    2  C10 UNL     1      25.249   6.823  48.145  1.00  0.00     0.032 A 
HETATM    3  C11 UNL     1      23.968   6.337  48.140  1.00  0.00     0.035 A 
HETATM    4  C12 UNL     1      23.603   5.376  49.054  1.00  0.00     0.072 A 
HETATM    5  N3  UNL     1      22.311   4.949  48.975  1.00  0.00    -0.241 NA
HETATM    6  C13 UNL     1      21.912   4.010  49.849  1.00  0.00     0.236 A 
HETATM    7  N4  UNL     1      22.749   3.513  50.762  1.00  0.00    -0.224 NA
HETATM    8  C14 UNL     1      24.026   3.878  50.905  1.00  0.00     0.142 A 
HETATM    9  C21 UNL     1      24.430   4.839  50.008  1.00  0.00     0.041 A 
HETATM   10  C22 UNL     1      25.700   5.368  49.960  1.00  0.00     0.047 A 
ENDROOT
BRANCH   1  11
HETATM   11  N2  UNL     1      27.443   6.855  49.047  1.00  0.00    -0.325 N 
HETATM   12  C1  UNL     1      28.513   6.052  48.585  1.00  0.00     0.245 C 
HETATM   13  O1  UNL     1      28.049   4.899  48.240  1.00  0.00    -0.271 OA
HETATM   14  H15 UNL     1      27.839   7.785  49.303  1.00  0.00     0.169 HD
BRANCH  12  15
HETATM   15  C2  UNL     1      29.942   6.007  48.339  1.00  0.00     0.273 C 
BRANCH  15  16
HETATM   16  O2  UNL     1      30.504   4.884  47.829  1.00  0.00    -0.363 OA
BRANCH  16  17
HETATM   17  C3  UNL     1      31.845   4.701  47.951  1.00  0.00     0.288 C 
BRANCH  17  18
HETATM   18  N1  UNL     1      32.365   3.632  47.120  1.00  0.00    -0.392 N 
HETATM   19  C4  UNL     1      33.360   2.846  47.765  1.00  0.00     0.119 C 
HETATM   20  C5  UNL     1      34.777   3.198  47.491  1.00  0.00     0.020 C 
HETATM   21  C6  UNL     1      35.002   4.260  46.468  1.00  0.00     0.003 C 
HETATM   22  C7  UNL     1      34.038   4.020  45.336  1.00  0.00     0.020 C 
HETATM   23  C8  UNL     1      32.610   3.995  45.766  1.00  0.00     0.119 C 
ENDBRANCH  17  18
ENDBRANCH  16  17
ENDBRANCH  15  16
ENDBRANCH  12  15
ENDBRANCH   1  11
BRANCH   8  24
HETATM   24  N5  UNL     1      24.946   3.382  51.849  1.00  0.00    -0.340 N 
HETATM   25  H19 UNL     1      25.572   3.995  52.372  1.00  0.00     0.167 HD
BRANCH  24  26
HETATM   26  C15 UNL     1      25.153   2.034  52.217  1.00  0.00     0.035 A 
HETATM   27  C16 UNL     1      26.271   1.318  51.862  1.00  0.00     0.029 A 
HETATM   28  C17 UNL     1      26.501   0.006  52.198  1.00  0.00     0.004 A 
HETATM   29  C18 UNL     1      25.576  -0.691  52.943  1.00  0.00     0.019 A 
HETATM   30  C19 UNL     1      24.435  -0.024  53.327  1.00  0.00     0.013 A 
HETATM   31 BR1  UNL     1      23.100  -0.903  54.358  1.00  0.00    -0.051 Br
HETATM   32  C20 UNL     1      24.266   1.290  52.959  1.00  0.00     0.048 A 
ENDBRANCH  24  26
ENDBRANCH   8  24
TORSDOF 7
ENDMDL
MODEL 6
REMARK VINA RESULT:      -7.3      5.366     10.014
REMARK  7 active torsions:
REMARK  status: ('A' for Active; 'I' for Inactive)
REMARK    1  A    between atoms: C1_2  and  C2_3 
REMARK       I    between atoms: C1_2  and  N2_12 
REMARK    2  A    between atoms: C2_3  and  O2_4 
REMARK    3  A    between atoms: O2_4  and  C3_5 
REMARK    4  A    between atoms: C3_5  and  N1_6 
REMARK    5  A    between atoms: N2_12  and  C9_13 
REMARK    6  A    between atoms: C14_20  and  N5_21 
REMARK    7  A    between atoms: N5_21  and  C15_22 
ROOT
HETATM    1  C9  UNL     1      28.373   7.021  47.568  1.00  0.00     0.035 A 
HETATM    2  C10 UNL     1      27.630   8.002  46.954  1.00  0.00     0.032 A 
HETATM    3  C11 UNL     1      26.285   8.066  47.213  1.00  0.00     0.035 A 
HETATM    4  C12 UNL     1      25.716   7.155  48.073  1.00  0.00     0.072 A 
HETATM    5  N3  UNL     1      24.375   7.291  48.270  1.00  0.00    -0.241 NA
HETATM    6  C13 UNL     1      23.777   6.421  49.102  1.00  0.00     0.236 A 
HETATM    7  N4  UNL     1      24.471   5.459  49.712  1.00  0.00    -0.224 NA
HETATM    8  C14 UNL     1      25.785   5.259  49.572  1.00  0.00     0.142 A 
HETATM    9  C21 UNL     1      26.391   6.152  48.720  1.00  0.00     0.041 A 
HETATM   10  C22 UNL     1      27.734   6.142  48.417  1.00  0.00     0.047 A 
ENDROOT
BRANCH   1  11
HETATM   11  N2  UNL     1      29.750   6.988  47.275  1.00  0.00    -0.325 N 
HETATM   12  C1  UNL     1      30.664   7.664  48.119  1.00  0.00     0.245 C 
HETATM   13  O1  UNL     1      30.008   8.223  49.080  1.00  0.00    -0.271 OA
HETATM   14  H15 UNL     1      30.303   6.532  46.518  1.00  0.00     0.169 HD
BRANCH  12  15
HETATM   15  C2  UNL     1      32.061   7.984  48.339  1.00  0.00     0.273 C 
BRANCH  15  16
HETATM   16  O2  UNL     1      32.847   7.129  49.038  1.00  0.00    -0.363 OA
BRANCH  16  17
HETATM   17  C3  UNL     1      32.708   5.791  48.842  1.00  0.00     0.288 C 
BRANCH  17  18
HETATM   18  N1  UNL     1      33.420   5.294  47.681  1.00  0.00    -0.392 N 
HETATM   19  C4  UNL     1      32.573   4.685  46.714  1.00  0.00     0.119 C 
HETATM   20  C5  UNL     1      32.450   3.205  46.765  1.00  0.00     0.020 C 
HETATM   21  C6  UNL     1      33.330   2.508  47.747  1.00  0.00     0.003 C 
HETATM   22  C7  UNL     1      34.684   3.166  47.698  1.00  0.00     0.020 C 
HETATM   23  C8  UNL     1      34.645   4.631  47.972  1.00  0.00     0.119 C 
ENDBRANCH  17  18
ENDBRANCH  16  17
ENDBRANCH  15  16
ENDBRANCH  12  15
ENDBRANCH   1  11
BRANCH   8  24
HETATM   24  N5  UNL     1      26.558   4.259  50.193  1.00  0.00    -0.340 N 
HETATM   25  H19 UNL     1      27.579   4.283  50.194  1.00  0.00     0.167 HD
BRANCH  24  26
HETATM   26  C15 UNL     1      26.090   3.116  50.878  1.00  0.00     0.035 A 
HETATM   27  C16 UNL     1      26.913   2.264  51.575  1.00  0.00     0.029 A 
HETATM   28  C17 UNL     1      26.492   1.142  52.247  1.00  0.00     0.004 A 
HETATM   29  C18 UNL     1      25.158   0.800  52.256  1.00  0.00     0.019 A 
HETATM   30  C19 UNL     1      24.286   1.618  51.575  1.00  0.00     0.013 A 
HETATM   31 BR1  UNL     1      22.425   1.226  51.530  1.00  0.00    -0.051 Br
HETATM   32  C20 UNL     1      24.771   2.726  50.922  1.00  0.00     0.048 A 
ENDBRANCH  24  26
ENDBRANCH   8  24
TORSDOF 7
ENDMDL
MODEL 7
REMARK VINA RESULT:      -7.3      5.000      8.549
REMARK  7 active torsions:
REMARK  status: ('A' for Active; 'I' for Inactive)
REMARK    1  A    between atoms: C1_2  and  C2_3 
REMARK       I    between atoms: C1_2  and  N2_12 
REMARK    2  A    between atoms: C2_3  and  O2_4 
REMARK    3  A    between atoms: O2_4  and  C3_5 
REMARK    4  A    between atoms: C3_5  and  N1_6 
REMARK    5  A    between atoms: N2_12  and  C9_13 
REMARK    6  A    between atoms: C14_20  and  N5_21 
REMARK    7  A    between atoms: N5_21  and  C15_22 
ROOT
HETATM    1  C9  UNL     1      26.186   6.964  49.222  1.00  0.00     0.035 A 
HETATM    2  C10 UNL     1      25.255   7.443  48.328  1.00  0.00     0.032 A 
HETATM    3  C11 UNL     1      25.619   8.457  47.482  1.00  0.00     0.035 A 
HETATM    4  C12 UNL     1      26.894   8.969  47.544  1.00  0.00     0.072 A 
HETATM    5  N3  UNL     1      27.168   9.975  46.668  1.00  0.00    -0.241 NA
HETATM    6  C13 UNL     1      28.403  10.506  46.695  1.00  0.00     0.236 A 
HETATM    7  N4  UNL     1      29.327  10.063  47.550  1.00  0.00    -0.224 NA
HETATM    8  C14 UNL     1      29.139   9.083  48.438  1.00  0.00     0.142 A 
HETATM    9  C21 UNL     1      27.874   8.544  48.406  1.00  0.00     0.041 A 
HETATM   10  C22 UNL     1      27.445   7.526  49.227  1.00  0.00     0.047 A 
ENDROOT
BRANCH   1  11
HETATM   11  N2  UNL     1      25.773   5.923  50.075  1.00  0.00    -0.325 N 
HETATM   12  C1  UNL     1      26.190   4.596  49.816  1.00  0.00     0.245 C 
HETATM   13  O1  UNL     1      26.937   4.592  48.764  1.00  0.00    -0.271 OA
HETATM   14  H15 UNL     1      25.187   5.904  50.937  1.00  0.00     0.169 HD
BRANCH  12  15
HETATM   15  C2  UNL     1      26.113   3.219  50.266  1.00  0.00     0.273 C 
BRANCH  15  16
HETATM   16  O2  UNL     1      27.101   2.706  51.039  1.00  0.00    -0.363 OA
BRANCH  16  17
HETATM   17  C3  UNL     1      26.823   1.659  51.860  1.00  0.00     0.288 C 
BRANCH  17  18
HETATM   18  N1  UNL     1      27.014   1.955  53.267  1.00  0.00    -0.392 N 
HETATM   19  C4  UNL     1      28.352   2.304  53.597  1.00  0.00     0.119 C 
HETATM   20  C5  UNL     1      29.219   1.219  54.127  1.00  0.00     0.020 C 
HETATM   21  C6  UNL     1      28.551  -0.092  54.374  1.00  0.00     0.003 C 
HETATM   22  C7  UNL     1      27.206   0.187  54.991  1.00  0.00     0.020 C 
HETATM   23  C8  UNL     1      26.341   1.072  54.158  1.00  0.00     0.119 C 
ENDBRANCH  17  18
ENDBRANCH  16  17
ENDBRANCH  15  16
ENDBRANCH  12  15
ENDBRANCH   1  11
BRANCH   8  24
HETATM   24  N5  UNL     1      30.081   8.584  49.358  1.00  0.00    -0.340 N 
HETATM   25  H19 UNL     1      30.041   8.810  50.354  1.00  0.00     0.167 HD
BRANCH  24  26
HETATM   26  C15 UNL     1      31.179   7.739  49.088  1.00  0.00     0.035 A 
HETATM   27  C16 UNL     1      31.096   6.367  49.097  1.00  0.00     0.029 A 
HETATM   28  C17 UNL     1      32.145   5.517  48.844  1.00  0.00     0.004 A 
HETATM   29  C18 UNL     1      33.393   6.023  48.555  1.00  0.00     0.019 A 
HETATM   30  C19 UNL     1      33.535   7.391  48.531  1.00  0.00     0.013 A 
HETATM   31 BR1  UNL     1      35.221   8.183  48.141  1.00  0.00    -0.051 Br
HETATM   32  C20 UNL     1      32.446   8.187  48.792  1.00  0.00     0.048 A 
ENDBRANCH  24  26
ENDBRANCH   8  24
TORSDOF 7
ENDMDL
MODEL 8
REMARK VINA RESULT:      -7.3      1.858      3.006
REMARK  7 active torsions:
REMARK  status: ('A' for Active; 'I' for Inactive)
REMARK    1  A    between atoms: C1_2  and  C2_3 
REMARK       I    between atoms: C1_2  and  N2_12 
REMARK    2  A    between atoms: C2_3  and  O2_4 
REMARK    3  A    between atoms: O2_4  and  C3_5 
REMARK    4  A    between atoms: C3_5  and  N1_6 
REMARK    5  A    between atoms: N2_12  and  C9_13 
REMARK    6  A    between atoms: C14_20  and  N5_21 
REMARK    7  A    between atoms: N5_21  and  C15_22 
ROOT
HETATM    1  C9  UNL     1      21.647  -0.557  53.176  1.00  0.00     0.035 A 
HETATM    2  C10 UNL     1      21.611  -1.320  54.321  1.00  0.00     0.032 A 
HETATM    3  C11 UNL     1      22.754  -1.437  55.068  1.00  0.00     0.035 A 
HETATM    4  C12 UNL     1      23.900  -0.794  54.660  1.00  0.00     0.072 A 
HETATM    5  N3  UNL     1      24.988  -0.967  55.461  1.00  0.00    -0.241 NA
HETATM    6  C13 UNL     1      26.130  -0.358  55.099  1.00  0.00     0.236 A 
HETATM    7  N4  UNL     1      26.197   0.388  53.995  1.00  0.00    -0.224 NA
HETATM    8  C14 UNL     1      25.178   0.607  53.159  1.00  0.00     0.142 A 
HETATM    9  C21 UNL     1      24.012  -0.019  53.534  1.00  0.00     0.041 A 
HETATM   10  C22 UNL     1      22.832   0.057  52.829  1.00  0.00     0.047 A 
ENDROOT
BRANCH   1  11
HETATM   11  N2  UNL     1      20.453  -0.463  52.436  1.00  0.00    -0.325 N 
HETATM   12  C1  UNL     1      19.786   0.781  52.334  1.00  0.00     0.245 C 
HETATM   13  O1  UNL     1      20.458   1.669  52.987  1.00  0.00    -0.271 OA
HETATM   14  H15 UNL     1      19.903  -1.158  51.888  1.00  0.00     0.169 HD
BRANCH  12  15
HETATM   15  C2  UNL     1      18.634   1.467  51.781  1.00  0.00     0.273 C 
BRANCH  15  16
HETATM   16  O2  UNL     1      18.766   2.205  50.651  1.00  0.00    -0.363 OA
BRANCH  16  17
HETATM   17  C3  UNL     1      19.525   1.724  49.631  1.00  0.00     0.288 C 
BRANCH  17  18
HETATM   18  N1  UNL     1      20.919   2.118  49.706  1.00  0.00    -0.392 N 
HETATM   19  C4  UNL     1      21.110   3.527  49.727  1.00  0.00     0.119 C 
HETATM   20  C5  UNL     1      21.417   4.183  48.429  1.00  0.00     0.020 C 
HETATM   21  C6  UNL     1      21.616   3.272  47.266  1.00  0.00     0.003 C 
HETATM   22  C7  UNL     1      22.423   2.091  47.739  1.00  0.00     0.020 C 
HETATM   23  C8  UNL     1      21.797   1.362  48.879  1.00  0.00     0.119 C 
ENDBRANCH  17  18
ENDBRANCH  16  17
ENDBRANCH  15  16
ENDBRANCH  12  15
ENDBRANCH   1  11
BRANCH   8  24
HETATM   24  N5  UNL     1      25.201   1.383  51.984  1.00  0.00    -0.340 N 
HETATM   25  H19 UNL     1      25.574   1.026  51.103  1.00  0.00     0.167 HD
BRANCH  24  26
HETATM   26  C15 UNL     1      24.742   2.709  51.825  1.00  0.00     0.035 A 
HETATM   27  C16 UNL     1      24.021   3.379  52.783  1.00  0.00     0.029 A 
HETATM   28  C17 UNL     1      23.555   4.665  52.658  1.00  0.00     0.004 A 
HETATM   29  C18 UNL     1      23.800   5.382  51.507  1.00  0.00     0.019 A 
HETATM   30  C19 UNL     1      24.518   4.761  50.512  1.00  0.00     0.013 A 
HETATM   31 BR1  UNL     1      24.906   5.670  48.885  1.00  0.00    -0.051 Br
HETATM   32  C20 UNL     1      24.957   3.471  50.700  1.00  0.00     0.048 A 
ENDBRANCH  24  26
ENDBRANCH   8  24
TORSDOF 7
ENDMDL
MODEL 9
REMARK VINA RESULT:      -7.2      4.828      9.194
REMARK  7 active torsions:
REMARK  status: ('A' for Active; 'I' for Inactive)
REMARK    1  A    between atoms: C1_2  and  C2_3 
REMARK       I    between atoms: C1_2  and  N2_12 
REMARK    2  A    between atoms: C2_3  and  O2_4 
REMARK    3  A    between atoms: O2_4  and  C3_5 
REMARK    4  A    between atoms: C3_5  and  N1_6 
REMARK    5  A    between atoms: N2_12  and  C9_13 
REMARK    6  A    between atoms: C14_20  and  N5_21 
REMARK    7  A    between atoms: N5_21  and  C15_22 
ROOT
HETATM    1  C9  UNL     1      26.034   5.714  49.400  1.00  0.00     0.035 A 
HETATM    2  C10 UNL     1      24.839   6.333  49.115  1.00  0.00     0.032 A 
HETATM    3  C11 UNL     1      23.673   5.671  49.398  1.00  0.00     0.035 A 
HETATM    4  C12 UNL     1      23.724   4.415  49.956  1.00  0.00     0.072 A 
HETATM    5  N3  UNL     1      22.517   3.831  50.202  1.00  0.00    -0.241 NA
HETATM    6  C13 UNL     1      22.520   2.602  50.745  1.00  0.00     0.236 A 
HETATM    7  N4  UNL     1      23.662   1.975  51.033  1.00  0.00    -0.224 NA
HETATM    8  C14 UNL     1      24.883   2.477  50.823  1.00  0.00     0.142 A 
HETATM    9  C21 UNL     1      24.874   3.735  50.267  1.00  0.00     0.041 A 
HETATM   10  C22 UNL     1      26.008   4.453  49.958  1.00  0.00     0.047 A 
ENDROOT
BRANCH   1  11
HETATM   11  N2  UNL     1      27.210   6.425  49.094  1.00  0.00    -0.325 N 
HETATM   12  C1  UNL     1      28.305   5.752  48.503  1.00  0.00     0.245 C 
HETATM   13  O1  UNL     1      27.990   4.512  48.336  1.00  0.00    -0.271 OA
HETATM   14  H15 UNL     1      27.480   7.427  49.202  1.00  0.00     0.169 HD
BRANCH  12  15
HETATM   15  C2  UNL     1      29.658   5.900  48.002  1.00  0.00     0.273 C 
BRANCH  15  16
HETATM   16  O2  UNL     1      30.657   5.145  48.521  1.00  0.00    -0.363 OA
BRANCH  16  17
HETATM   17  C3  UNL     1      31.947   5.469  48.239  1.00  0.00     0.288 C 
BRANCH  17  18
HETATM   18  N1  UNL     1      32.462   4.825  47.046  1.00  0.00    -0.392 N 
HETATM   19  C4  UNL     1      32.099   3.454  46.940  1.00  0.00     0.119 C 
HETATM   20  C5  UNL     1      33.093   2.456  47.414  1.00  0.00     0.020 C 
HETATM   21  C6  UNL     1      34.417   3.000  47.834  1.00  0.00     0.003 C 
HETATM   22  C7  UNL     1      34.810   4.066  46.846  1.00  0.00     0.020 C 
HETATM   23  C8  UNL     1      33.806   5.162  46.721  1.00  0.00     0.119 C 
ENDBRANCH  17  18
ENDBRANCH  16  17
ENDBRANCH  15  16
ENDBRANCH  12  15
ENDBRANCH   1  11
BRANCH   8  24
HETATM   24  N5  UNL     1      26.113   1.855  51.108  1.00  0.00    -0.340 N 
HETATM   25  H19 UNL     1      26.849   1.758  50.407  1.00  0.00     0.167 HD
BRANCH  24  26
HETATM   26  C15 UNL     1      26.523   1.288  52.335  1.00  0.00     0.035 A 
HETATM   27  C16 UNL     1      25.828   1.447  53.510  1.00  0.00     0.029 A 
HETATM   28  C17 UNL     1      26.201   0.916  54.720  1.00  0.00     0.004 A 
HETATM   29  C18 UNL     1      27.348   0.158  54.820  1.00  0.00     0.019 A 
HETATM   30  C19 UNL     1      28.084  -0.036  53.675  1.00  0.00     0.013 A 
HETATM   31 BR1  UNL     1      29.683  -1.067  53.714  1.00  0.00    -0.051 Br
HETATM   32  C20 UNL     1      27.656   0.524  52.494  1.00  0.00     0.048 A 
ENDBRANCH  24  26
ENDBRANCH   8  24
TORSDOF 7
ENDMDL
