MODEL 1
REMARK VINA RESULT:      -9.5      0.000      0.000
REMARK  2 active torsions:
REMARK  status: ('A' for Active; 'I' for Inactive)
REMARK    1  A    between atoms: N1_4  and  C5_7 
REMARK    2  A    between atoms: N2_6  and  C5_7 
ROOT
HETATM    1  C1  UNL     1      23.369   2.909  48.028  1.00  0.00     0.030 C 
HETATM    2  C2  UNL     1      23.447   3.207  49.510  1.00  0.00     0.148 A 
HETATM    3  C3  UNL     1      24.053   4.311  50.371  1.00  0.00     0.460 A 
HETATM    4  N1  UNL     1      24.536   5.657  50.559  1.00  0.00     0.250 N 
HETATM    5  C4  UNL     1      24.520   6.524  49.540  1.00  0.00     0.543 A 
HETATM    6  N2  UNL     1      24.440   5.503  50.400  1.00  0.00     0.250 N 
HETATM    7  C5  UNL     1      23.922   4.265  49.982  1.00  0.00     0.457 A 
HETATM    8  N3  UNL     1      22.641   4.070  51.255  1.00  0.00    -0.352 N 
HETATM    9  C6  UNL     1      22.655   3.006  52.369  1.00  0.00     0.131 C 
HETATM   10  C7  UNL     1      21.558   2.129  52.296  1.00  0.00     0.036 C 
HETATM   11  C8  UNL     1      21.489   0.927  51.425  1.00  0.00     0.041 C 
HETATM   12  C9  UNL     1      20.211   0.251  51.897  1.00  0.00    -0.051 A 
HETATM   13  C10 UNL     1      18.912   0.327  51.543  1.00  0.00     0.007 A 
HETATM   14  C11 UNL     1      18.005  -0.402  52.258  1.00  0.00     0.001 A 
HETATM   15  C12 UNL     1      18.234  -1.228  53.318  1.00  0.00     0.001 A 
HETATM   16  C13 UNL     1      19.558  -1.248  53.604  1.00  0.00     0.008 A 
HETATM   17  C14 UNL     1      20.587  -0.580  52.986  1.00  0.00    -0.043 A 
HETATM   18  C15 UNL     1      21.787  -1.056  53.722  1.00  0.00     0.054 C 
HETATM   19  C16 UNL     1      23.013  -0.918  54.012  1.00  0.00    -0.015 C 
HETATM   20  C17 UNL     1      24.401  -0.404  54.080  1.00  0.00     0.016 C 
HETATM   21  C18 UNL     1      25.155   0.556  53.643  1.00  0.00     0.012 C 
HETATM   22 BR1  UNL     1      26.947   0.254  54.360  1.00  0.00    -0.051 Br
HETATM   23  C19 UNL     1      25.134   1.854  52.986  1.00  0.00     0.046 C 
HETATM   24  C20 UNL     1      24.052   2.599  52.591  1.00  0.00     0.032 C 
HETATM   25  N4  UNL     1      24.784   3.650  51.738  1.00  0.00    -0.330 N 
HETATM   26  H5  UNL     1      21.679   4.660  51.550  1.00  0.00     0.158 HD
HETATM   27  H19 UNL     1      25.850   3.927  52.063  1.00  0.00     0.164 HD
ENDROOT
TORSDOF 2
ENDMDL
MODEL 2
REMARK VINA RESULT:      -9.5      1.002      1.216
REMARK  2 active torsions:
REMARK  status: ('A' for Active; 'I' for Inactive)
REMARK    1  A    between atoms: N1_4  and  C5_7 
REMARK    2  A    between atoms: N2_6  and  C5_7 
ROOT
HETATM    1  C1  UNL     1      22.537   1.987  47.571  1.00  0.00     0.030 C 
HETATM    2  C2  UNL     1      22.604   2.443  49.012  1.00  0.00     0.148 A 
HETATM    3  C3  UNL     1      23.270   3.592  49.763  1.00  0.00     0.460 A 
HETATM    4  N1  UNL     1      23.845   4.914  49.815  1.00  0.00     0.250 N 
HETATM    5  C4  UNL     1      23.915   5.660  48.707  1.00  0.00     0.543 A 
HETATM    6  N2  UNL     1      23.742   4.750  49.672  1.00  0.00     0.250 N 
HETATM    7  C5  UNL     1      23.144   3.511  49.378  1.00  0.00     0.457 A 
HETATM    8  N3  UNL     1      21.826   3.551  50.626  1.00  0.00    -0.352 N 
HETATM    9  C6  UNL     1      21.737   2.620  51.850  1.00  0.00     0.131 C 
HETATM   10  C7  UNL     1      20.582   1.820  51.842  1.00  0.00     0.036 C 
HETATM   11  C8  UNL     1      20.444   0.535  51.108  1.00  0.00     0.041 C 
HETATM   12  C9  UNL     1      19.110   0.007  51.614  1.00  0.00    -0.051 A 
HETATM   13  C10 UNL     1      17.828   0.135  51.215  1.00  0.00     0.007 A 
HETATM   14  C11 UNL     1      16.855  -0.444  51.979  1.00  0.00     0.001 A 
HETATM   15  C12 UNL     1      17.000  -1.160  53.130  1.00  0.00     0.001 A 
HETATM   16  C13 UNL     1      18.313  -1.241  53.456  1.00  0.00     0.008 A 
HETATM   17  C14 UNL     1      19.401  -0.720  52.799  1.00  0.00    -0.043 A 
HETATM   18  C15 UNL     1      20.547  -1.193  53.618  1.00  0.00     0.054 C 
HETATM   19  C16 UNL     1      21.773  -1.109  53.928  1.00  0.00    -0.015 C 
HETATM   20  C17 UNL     1      23.193  -0.690  53.979  1.00  0.00     0.016 C 
HETATM   21  C18 UNL     1      24.025   0.160  53.462  1.00  0.00     0.012 C 
HETATM   22 BR1  UNL     1      25.774  -0.184  54.260  1.00  0.00    -0.051 Br
HETATM   23  C19 UNL     1      24.112   1.375  52.665  1.00  0.00     0.046 C 
HETATM   24  C20 UNL     1      23.096   2.145  52.157  1.00  0.00     0.032 C 
HETATM   25  N4  UNL     1      23.921   3.039  51.215  1.00  0.00    -0.330 N 
HETATM   26  H5  UNL     1      20.902   4.237  50.826  1.00  0.00     0.158 HD
HETATM   27  H19 UNL     1      24.997   3.276  51.540  1.00  0.00     0.164 HD
ENDROOT
TORSDOF 2
ENDMDL
MODEL 3
REMARK VINA RESULT:      -9.4      2.799      4.342
REMARK  2 active torsions:
REMARK  status: ('A' for Active; 'I' for Inactive)
REMARK    1  A    between atoms: N1_4  and  C5_7 
REMARK    2  A    between atoms: N2_6  and  C5_7 
ROOT
HETATM    1  C1  UNL     1      20.008   4.603  48.861  1.00  0.00     0.030 C 
HETATM    2  C2  UNL     1      21.143   5.135  49.709  1.00  0.00     0.148 A 
HETATM    3  C3  UNL     1      21.652   6.517  50.108  1.00  0.00     0.460 A 
HETATM    4  N1  UNL     1      21.460   7.930  50.324  1.00  0.00     0.250 N 
HETATM    5  C4  UNL     1      20.265   8.487  50.095  1.00  0.00     0.543 A 
HETATM    6  N2  UNL     1      21.353   7.725  50.255  1.00  0.00     0.250 N 
HETATM    7  C5  UNL     1      21.298   6.347  49.981  1.00  0.00     0.457 A 
HETATM    8  N3  UNL     1      21.917   5.735  51.574  1.00  0.00    -0.352 N 
HETATM    9  C6  UNL     1      23.269   5.025  51.785  1.00  0.00     0.131 C 
HETATM   10  C7  UNL     1      23.124   3.713  52.267  1.00  0.00     0.036 C 
HETATM   11  C8  UNL     1      22.859   2.521  51.419  1.00  0.00     0.041 C 
HETATM   12  C9  UNL     1      23.012   1.373  52.405  1.00  0.00    -0.051 A 
HETATM   13  C10 UNL     1      22.173   0.716  53.230  1.00  0.00     0.007 A 
HETATM   14  C11 UNL     1      22.694  -0.247  54.046  1.00  0.00     0.001 A 
HETATM   15  C12 UNL     1      23.991  -0.655  54.149  1.00  0.00     0.001 A 
HETATM   16  C13 UNL     1      24.762   0.053  53.288  1.00  0.00     0.008 A 
HETATM   17  C14 UNL     1      24.393   1.043  52.409  1.00  0.00    -0.043 A 
HETATM   18  C15 UNL     1      25.668   1.376  51.723  1.00  0.00     0.054 C 
HETATM   19  C16 UNL     1      26.340   2.167  50.995  1.00  0.00    -0.015 C 
HETATM   20  C17 UNL     1      26.741   3.321  50.159  1.00  0.00     0.016 C 
HETATM   21  C18 UNL     1      26.296   4.446  49.692  1.00  0.00     0.012 C 
HETATM   22 BR1  UNL     1      27.721   5.226  48.606  1.00  0.00    -0.051 Br
HETATM   23  C19 UNL     1      25.225   5.423  49.818  1.00  0.00     0.046 C 
HETATM   24  C20 UNL     1      24.170   5.434  50.695  1.00  0.00     0.032 C 
HETATM   25  N4  UNL     1      23.336   6.556  50.053  1.00  0.00    -0.330 N 
HETATM   26  H5  UNL     1      21.542   5.788  52.678  1.00  0.00     0.158 HD
HETATM   27  H19 UNL     1      23.917   7.388  49.516  1.00  0.00     0.164 HD
ENDROOT
TORSDOF 2
ENDMDL
MODEL 4
REMARK VINA RESULT:      -9.4      2.559      5.440
REMARK  2 active torsions:
REMARK  status: ('A' for Active; 'I' for Inactive)
REMARK    1  A    between atoms: N1_4  and  C5_7 
REMARK    2  A    between atoms: N2_6  and  C5_7 
ROOT
HETATM    1  C1  UNL     1      22.771   5.585  52.204  1.00  0.00     0.030 C 
HETATM    2  C2  UNL     1      22.822   4.174  51.659  1.00  0.00     0.148 A 
HETATM    3  C3  UNL     1      22.146   3.420  50.518  1.00  0.00     0.460 A 
HETATM    4  N1  UNL     1      21.471   3.379  49.244  1.00  0.00     0.250 N 
HETATM    5  C4  UNL     1      21.218   4.513  48.582  1.00  0.00     0.543 A 
HETATM    6  N2  UNL     1      21.571   3.523  49.409  1.00  0.00     0.250 N 
HETATM    7  C5  UNL     1      22.236   3.811  50.614  1.00  0.00     0.457 A 
HETATM    8  N3  UNL     1      23.674   2.725  50.388  1.00  0.00    -0.352 N 
HETATM    9  C6  UNL     1      23.973   1.467  51.226  1.00  0.00     0.131 C 
HETATM   10  C7  UNL     1      25.184   1.560  51.933  1.00  0.00     0.036 C 
HETATM   11  C8  UNL     1      25.350   2.230  53.249  1.00  0.00     0.041 C 
HETATM   12  C9  UNL     1      26.771   1.850  53.637  1.00  0.00    -0.051 A 
HETATM   13  C10 UNL     1      27.986   2.398  53.437  1.00  0.00     0.007 A 
HETATM   14  C11 UNL     1      29.082   1.717  53.887  1.00  0.00     0.001 A 
HETATM   15  C12 UNL     1      29.124   0.518  54.533  1.00  0.00     0.001 A 
HETATM   16  C13 UNL     1      27.866   0.041  54.693  1.00  0.00     0.008 A 
HETATM   17  C14 UNL     1      26.673   0.599  54.304  1.00  0.00    -0.043 A 
HETATM   18  C15 UNL     1      25.666  -0.371  54.809  1.00  0.00     0.054 C 
HETATM   19  C16 UNL     1      24.479  -0.813  54.800  1.00  0.00    -0.015 C 
HETATM   20  C17 UNL     1      23.043  -1.000  54.489  1.00  0.00     0.016 C 
HETATM   21  C18 UNL     1      22.091  -0.533  53.743  1.00  0.00     0.012 C 
HETATM   22 BR1  UNL     1      20.473  -1.543  54.168  1.00  0.00    -0.051 Br
HETATM   23  C19 UNL     1      21.815   0.318  52.595  1.00  0.00     0.046 C 
HETATM   24  C20 UNL     1      22.701   0.981  51.784  1.00  0.00     0.032 C 
HETATM   25  N4  UNL     1      21.706   1.873  51.021  1.00  0.00    -0.330 N 
HETATM   26  H5  UNL     1      24.552   2.672  49.621  1.00  0.00     0.158 HD
HETATM   27  H19 UNL     1      20.655   1.443  50.848  1.00  0.00     0.164 HD
ENDROOT
TORSDOF 2
ENDMDL
MODEL 5
REMARK VINA RESULT:      -9.0      2.902      6.147
REMARK  2 active torsions:
REMARK  status: ('A' for Active; 'I' for Inactive)
REMARK    1  A    between atoms: N1_4  and  C5_7 
REMARK    2  A    between atoms: N2_6  and  C5_7 
ROOT
HETATM    1  C1  UNL     1      18.531   3.976  51.224  1.00  0.00     0.030 C 
HETATM    2  C2  UNL     1      19.218   2.661  50.931  1.00  0.00     0.148 A 
HETATM    3  C3  UNL     1      18.766   1.250  50.567  1.00  0.00     0.460 A 
HETATM    4  N1  UNL     1      17.803   0.324  50.024  1.00  0.00     0.250 N 
HETATM    5  C4  UNL     1      16.635   0.770  49.550  1.00  0.00     0.543 A 
HETATM    6  N2  UNL     1      17.848   0.555  50.071  1.00  0.00     0.250 N 
HETATM    7  C5  UNL     1      18.617   1.635  50.541  1.00  0.00     0.457 A 
HETATM    8  N3  UNL     1      20.125   1.324  49.578  1.00  0.00    -0.352 N 
HETATM    9  C6  UNL     1      21.479   0.886  50.170  1.00  0.00     0.131 C 
HETATM   10  C7  UNL     1      22.503   1.819  49.935  1.00  0.00     0.036 C 
HETATM   11  C8  UNL     1      22.760   3.025  50.765  1.00  0.00     0.041 C 
HETATM   12  C9  UNL     1      24.078   3.537  50.205  1.00  0.00    -0.051 A 
HETATM   13  C10 UNL     1      24.421   4.393  49.222  1.00  0.00     0.007 A 
HETATM   14  C11 UNL     1      25.749   4.562  48.948  1.00  0.00     0.001 A 
HETATM   15  C12 UNL     1      26.817   3.966  49.550  1.00  0.00     0.001 A 
HETATM   16  C13 UNL     1      26.384   3.127  50.522  1.00  0.00     0.008 A 
HETATM   17  C14 UNL     1      25.098   2.850  50.917  1.00  0.00    -0.043 A 
HETATM   18  C15 UNL     1      25.289   1.905  52.048  1.00  0.00     0.054 C 
HETATM   19  C16 UNL     1      24.805   1.044  52.842  1.00  0.00    -0.015 C 
HETATM   20  C17 UNL     1      23.870   0.127  53.533  1.00  0.00     0.016 C 
HETATM   21  C18 UNL     1      22.639  -0.282  53.512  1.00  0.00     0.012 C 
HETATM   22 BR1  UNL     1      22.430  -1.562  54.973  1.00  0.00    -0.051 Br
HETATM   23  C19 UNL     1      21.424  -0.292  52.712  1.00  0.00     0.046 C 
HETATM   24  C20 UNL     1      21.217   0.221  51.457  1.00  0.00     0.032 C 
HETATM   25  N4  UNL     1      19.683   0.110  51.403  1.00  0.00    -0.330 N 
HETATM   26  H5  UNL     1      20.386   1.305  48.441  1.00  0.00     0.158 HD
HETATM   27  H19 UNL     1      19.207  -0.760  51.983  1.00  0.00     0.164 HD
ENDROOT
TORSDOF 2
ENDMDL
MODEL 6
REMARK VINA RESULT:      -8.9      2.796      5.117
REMARK  2 active torsions:
REMARK  status: ('A' for Active; 'I' for Inactive)
REMARK    1  A    between atoms: N1_4  and  C5_7 
REMARK    2  A    between atoms: N2_6  and  C5_7 
ROOT
HETATM    1  C1  UNL     1      21.542   5.762  51.299  1.00  0.00     0.030 C 
HETATM    2  C2  UNL     1      21.404   4.363  50.738  1.00  0.00     0.148 A 
HETATM    3  C3  UNL     1      20.677   3.728  49.556  1.00  0.00     0.460 A 
HETATM    4  N1  UNL     1      20.065   3.800  48.252  1.00  0.00     0.250 N 
HETATM    5  C4  UNL     1      20.021   4.964  47.594  1.00  0.00     0.543 A 
HETATM    6  N2  UNL     1      20.178   3.926  48.423  1.00  0.00     0.250 N 
HETATM    7  C5  UNL     1      20.821   4.101  49.662  1.00  0.00     0.457 A 
HETATM    8  N3  UNL     1      22.086   2.810  49.489  1.00  0.00    -0.352 N 
HETATM    9  C6  UNL     1      22.149   1.515  50.322  1.00  0.00     0.131 C 
HETATM   10  C7  UNL     1      23.325   1.418  51.086  1.00  0.00     0.036 C 
HETATM   11  C8  UNL     1      23.526   2.045  52.418  1.00  0.00     0.041 C 
HETATM   12  C9  UNL     1      24.852   1.450  52.866  1.00  0.00    -0.051 A 
HETATM   13  C10 UNL     1      26.145   1.807  52.731  1.00  0.00     0.007 A 
HETATM   14  C11 UNL     1      27.101   0.964  53.222  1.00  0.00     0.001 A 
HETATM   15  C12 UNL     1      26.929  -0.232  53.853  1.00  0.00     0.001 A 
HETATM   16  C13 UNL     1      25.607  -0.512  53.948  1.00  0.00     0.008 A 
HETATM   17  C14 UNL     1      24.532   0.225  53.511  1.00  0.00    -0.043 A 
HETATM   18  C15 UNL     1      23.367  -0.583  53.954  1.00  0.00     0.054 C 
HETATM   19  C16 UNL     1      22.128  -0.838  53.884  1.00  0.00    -0.015 C 
HETATM   20  C17 UNL     1      20.696  -0.802  53.504  1.00  0.00     0.016 C 
HETATM   21  C18 UNL     1      19.864  -0.190  52.720  1.00  0.00     0.012 C 
HETATM   22 BR1  UNL     1      18.093  -0.944  53.055  1.00  0.00    -0.051 Br
HETATM   23  C19 UNL     1      19.777   0.700  51.572  1.00  0.00     0.046 C 
HETATM   24  C20 UNL     1      20.792   1.225  50.813  1.00  0.00     0.032 C 
HETATM   25  N4  UNL     1      19.983   2.264  50.017  1.00  0.00    -0.330 N 
HETATM   26  H5  UNL     1      22.981   2.628  48.763  1.00  0.00     0.158 HD
HETATM   27  H19 UNL     1      18.888   2.000  49.788  1.00  0.00     0.164 HD
ENDROOT
TORSDOF 2
ENDMDL
MODEL 7
REMARK VINA RESULT:      -8.6      3.513      7.910
REMARK  2 active torsions:
REMARK  status: ('A' for Active; 'I' for Inactive)
REMARK    1  A    between atoms: N1_4  and  C5_7 
REMARK    2  A    between atoms: N2_6  and  C5_7 
ROOT
HETATM    1  C1  UNL     1      21.744   1.343  49.234  1.00  0.00     0.030 C 
HETATM    2  C2  UNL     1      21.925   2.489  50.206  1.00  0.00     0.148 A 
HETATM    3  C3  UNL     1      21.348   2.868  51.566  1.00  0.00     0.460 A 
HETATM    4  N1  UNL     1      20.717   2.531  52.819  1.00  0.00     0.250 N 
HETATM    5  C4  UNL     1      20.394   1.261  53.087  1.00  0.00     0.543 A 
HETATM    6  N2  UNL     1      20.800   2.443  52.610  1.00  0.00     0.250 N 
HETATM    7  C5  UNL     1      21.403   2.525  51.343  1.00  0.00     0.457 A 
HETATM    8  N3  UNL     1      22.930   3.378  51.830  1.00  0.00    -0.352 N 
HETATM    9  C6  UNL     1      23.304   4.819  51.434  1.00  0.00     0.131 C 
HETATM   10  C7  UNL     1      24.482   4.885  50.670  1.00  0.00     0.036 C 
HETATM   11  C8  UNL     1      24.552   4.677  49.200  1.00  0.00     0.041 C 
HETATM   12  C9  UNL     1      25.987   5.069  48.880  1.00  0.00    -0.051 A 
HETATM   13  C10 UNL     1      27.160   4.407  48.822  1.00  0.00     0.007 A 
HETATM   14  C11 UNL     1      28.292   5.124  48.560  1.00  0.00     0.001 A 
HETATM   15  C12 UNL     1      28.411   6.464  48.339  1.00  0.00     0.001 A 
HETATM   16  C13 UNL     1      27.191   7.049  48.413  1.00  0.00     0.008 A 
HETATM   17  C14 UNL     1      25.969   6.473  48.664  1.00  0.00    -0.043 A 
HETATM   18  C15 UNL     1      25.030   7.620  48.560  1.00  0.00     0.054 C 
HETATM   19  C16 UNL     1      23.882   8.111  48.778  1.00  0.00    -0.015 C 
HETATM   20  C17 UNL     1      22.476   8.281  49.212  1.00  0.00     0.016 C 
HETATM   21  C18 UNL     1      21.513   7.657  49.816  1.00  0.00     0.012 C 
HETATM   22 BR1  UNL     1      19.970   8.855  49.834  1.00  0.00    -0.051 Br
HETATM   23  C19 UNL     1      21.204   6.496  50.637  1.00  0.00     0.046 C 
HETATM   24  C20 UNL     1      22.059   5.545  51.137  1.00  0.00     0.032 C 
HETATM   25  N4  UNL     1      21.019   4.520  51.620  1.00  0.00    -0.330 N 
HETATM   26  H5  UNL     1      23.832   3.118  52.523  1.00  0.00     0.158 HD
HETATM   27  H19 UNL     1      20.011   4.937  51.983  1.00  0.00     0.164 HD
ENDROOT
TORSDOF 2
ENDMDL
MODEL 8
REMARK VINA RESULT:      -8.6      6.391      9.507
REMARK  2 active torsions:
REMARK  status: ('A' for Active; 'I' for Inactive)
REMARK    1  A    between atoms: N1_4  and  C5_7 
REMARK    2  A    between atoms: N2_6  and  C5_7 
ROOT
HETATM    1  C1  UNL     1      25.910  11.100  45.777  1.00  0.00     0.030 C 
HETATM    2  C2  UNL     1      26.811  10.855  46.967  1.00  0.00     0.148 A 
HETATM    3  C3  UNL     1      27.627  11.728  47.917  1.00  0.00     0.460 A 
HETATM    4  N1  UNL     1      27.903  12.985  48.568  1.00  0.00     0.250 N 
HETATM    5  C4  UNL     1      27.143  14.055  48.312  1.00  0.00     0.543 A 
HETATM    6  N2  UNL     1      27.758  12.872  48.412  1.00  0.00     0.250 N 
HETATM    7  C5  UNL     1      27.298  11.770  47.670  1.00  0.00     0.457 A 
HETATM    8  N3  UNL     1      27.087  10.597  49.040  1.00  0.00    -0.352 N 
HETATM    9  C6  UNL     1      27.934   9.329  49.258  1.00  0.00     0.131 C 
HETATM   10  C7  UNL     1      27.170   8.150  49.213  1.00  0.00     0.036 C 
HETATM   11  C8  UNL     1      26.786   7.435  47.968  1.00  0.00     0.041 C 
HETATM   12  C9  UNL     1      26.173   6.149  48.501  1.00  0.00    -0.051 A 
HETATM   13  C10 UNL     1      24.930   5.769  48.858  1.00  0.00     0.007 A 
HETATM   14  C11 UNL     1      24.763   4.515  49.375  1.00  0.00     0.001 A 
HETATM   15  C12 UNL     1      25.709   3.557  49.589  1.00  0.00     0.001 A 
HETATM   16  C13 UNL     1      26.922   4.020  49.203  1.00  0.00     0.008 A 
HETATM   17  C14 UNL     1      27.253   5.242  48.669  1.00  0.00    -0.043 A 
HETATM   18  C15 UNL     1      28.712   5.114  48.414  1.00  0.00     0.054 C 
HETATM   19  C16 UNL     1      29.826   5.662  48.159  1.00  0.00    -0.015 C 
HETATM   20  C17 UNL     1      30.873   6.671  47.877  1.00  0.00     0.016 C 
HETATM   21  C18 UNL     1      31.050   7.950  47.752  1.00  0.00     0.012 C 
HETATM   22 BR1  UNL     1      32.934   8.232  47.317  1.00  0.00    -0.051 Br
HETATM   23  C19 UNL     1      30.433   9.245  47.992  1.00  0.00     0.046 C 
HETATM   24  C20 UNL     1      29.228   9.527  48.585  1.00  0.00     0.032 C 
HETATM   25  N4  UNL     1      29.124  11.018  48.220  1.00  0.00    -0.330 N 
HETATM   26  H5  UNL     1      26.415  10.558  49.993  1.00  0.00     0.158 HD
HETATM   27  H19 UNL     1      30.112  11.599  48.136  1.00  0.00     0.164 HD
ENDROOT
TORSDOF 2
ENDMDL
MODEL 9
REMARK VINA RESULT:      -8.1      5.528     10.508
REMARK  2 active torsions:
REMARK  status: ('A' for Active; 'I' for Inactive)
REMARK    1  A    between atoms: N1_4  and  C5_7 
REMARK    2  A    between atoms: N2_6  and  C5_7 
ROOT
HETATM    1  C1  UNL     1      26.123   3.312  49.517  1.00  0.00     0.030 C 
HETATM    2  C2  UNL     1      25.908   4.809  49.473  1.00  0.00     0.148 A 
HETATM    3  C3  UNL     1      24.905   5.786  50.079  1.00  0.00     0.460 A 
HETATM    4  N1  UNL     1      23.935   6.155  51.081  1.00  0.00     0.250 N 
HETATM    5  C4  UNL     1      23.632   5.304  52.068  1.00  0.00     0.543 A 
HETATM    6  N2  UNL     1      24.085   5.982  51.007  1.00  0.00     0.250 N 
HETATM    7  C5  UNL     1      25.051   5.409  50.161  1.00  0.00     0.457 A 
HETATM    8  N3  UNL     1      26.283   6.741  50.224  1.00  0.00    -0.352 N 
HETATM    9  C6  UNL     1      26.662   7.652  49.041  1.00  0.00     0.131 C 
HETATM   10  C7  UNL     1      28.014   7.532  48.674  1.00  0.00     0.036 C 
HETATM   11  C8  UNL     1      28.560   6.480  47.778  1.00  0.00     0.041 C 
HETATM   12  C9  UNL     1      29.991   6.944  47.557  1.00  0.00    -0.051 A 
HETATM   13  C10 UNL     1      31.165   6.729  48.184  1.00  0.00     0.007 A 
HETATM   14  C11 UNL     1      32.270   7.390  47.729  1.00  0.00     0.001 A 
HETATM   15  C12 UNL     1      32.360   8.268  46.690  1.00  0.00     0.001 A 
HETATM   16  C13 UNL     1      31.142   8.425  46.118  1.00  0.00     0.008 A 
HETATM   17  C14 UNL     1      29.946   7.838  46.453  1.00  0.00    -0.043 A 
HETATM   18  C15 UNL     1      29.011   8.369  45.428  1.00  0.00     0.054 C 
HETATM   19  C16 UNL     1      27.823   8.566  45.035  1.00  0.00    -0.015 C 
HETATM   20  C17 UNL     1      26.343   8.592  44.964  1.00  0.00     0.016 C 
HETATM   21  C18 UNL     1      25.284   8.258  45.633  1.00  0.00     0.012 C 
HETATM   22 BR1  UNL     1      23.736   8.746  44.546  1.00  0.00    -0.051 Br
HETATM   23  C19 UNL     1      24.813   7.836  46.944  1.00  0.00     0.046 C 
HETATM   24  C20 UNL     1      25.528   7.673  48.103  1.00  0.00     0.032 C 
HETATM   25  N4  UNL     1      24.462   6.948  48.942  1.00  0.00    -0.330 N 
HETATM   26  H5  UNL     1      26.936   7.220  51.065  1.00  0.00     0.158 HD
HETATM   27  H19 UNL     1      23.366   7.217  48.729  1.00  0.00     0.164 HD
ENDROOT
TORSDOF 2
ENDMDL
