MODEL 1
REMARK VINA RESULT:      -8.1      0.000      0.000
REMARK  8 active torsions:
REMARK  status: ('A' for Active; 'I' for Inactive)
REMARK    1  A    between atoms: C2_2  and  C3_3 
REMARK    2  A    between atoms: C3_3  and  N1_4 
REMARK    3  A    between atoms: C3_3  and  C19_26 
REMARK    4  A    between atoms: N1_4  and  C4_5 
REMARK    5  A    between atoms: N4_16  and  C12_17 
REMARK    6  A    between atoms: C14_19  and  C15_20 
REMARK    7  A    between atoms: C15_20  and  N5_21 
REMARK    8  A    between atoms: N5_21  and  C17_23 
ROOT
HETATM    1  C4  UNL     1      23.908   0.959  53.065  1.00  0.00     0.139 A 
HETATM    2  N2  UNL     1      23.811  -0.312  53.432  1.00  0.00    -0.224 NA
HETATM    3  C5  UNL     1      22.696  -1.022  53.483  1.00  0.00     0.236 A 
HETATM    4  N3  UNL     1      21.587  -0.357  53.125  1.00  0.00    -0.234 NA
HETATM    5  C6  UNL     1      21.661   0.888  52.764  1.00  0.00     0.114 A 
HETATM    6  S1  UNL     1      20.319   2.046  52.228  1.00  0.00    -0.072 SA
HETATM    7  C7  UNL     1      21.419   3.481  51.958  1.00  0.00     0.010 A 
HETATM    8  C8  UNL     1      22.716   2.982  52.291  1.00  0.00    -0.025 A 
HETATM    9  C9  UNL     1      22.814   1.686  52.690  1.00  0.00     0.053 A 
HETATM   10  C10 UNL     1      23.551   4.165  52.054  1.00  0.00     0.060 C 
HETATM   11  C11 UNL     1      23.282   4.710  50.628  1.00  0.00     0.128 C 
HETATM   12  N4  UNL     1      21.969   5.259  50.497  1.00  0.00    -0.380 N 
HETATM   13  C18 UNL     1      21.048   4.796  51.520  1.00  0.00     0.169 C 
ENDROOT
BRANCH   1  14
HETATM   14  N1  UNL     1      25.227   1.486  53.095  1.00  0.00    -0.365 N 
HETATM   15  H7  UNL     1      25.794   2.077  53.723  1.00  0.00     0.162 HD
BRANCH  14  16
HETATM   16  C3  UNL     1      26.192   1.210  52.015  1.00  0.00     0.116 C 
BRANCH  16  17
HETATM   17  C2  UNL     1      26.704   2.537  51.536  1.00  0.00     0.025 C 
HETATM   18  C1  UNL     1      26.448   2.837  50.098  1.00  0.00     0.007 C 
ENDBRANCH  16  17
BRANCH  16  19
HETATM   19  C19 UNL     1      27.252   0.324  52.577  1.00  0.00    -0.036 A 
HETATM   20  C20 UNL     1      27.436  -1.035  52.673  1.00  0.00     0.009 A 
HETATM   21  C21 UNL     1      28.549  -1.563  53.281  1.00  0.00     0.001 A 
HETATM   22  C22 UNL     1      29.536  -0.766  53.823  1.00  0.00     0.000 A 
HETATM   23  C23 UNL     1      29.382   0.602  53.744  1.00  0.00     0.001 A 
HETATM   24  C24 UNL     1      28.250   1.145  53.127  1.00  0.00     0.009 A 
ENDBRANCH  16  19
ENDBRANCH  14  16
ENDBRANCH   1  14
BRANCH  12  25
HETATM   25  C12 UNL     1      21.730   6.156  49.423  1.00  0.00     0.001 C 
HETATM   26  C13 UNL     1      22.368   7.417  49.875  1.00  0.00     0.067 C 
HETATM   27  C14 UNL     1      21.113   6.015  48.271  1.00  0.00     0.017 C 
BRANCH  27  28
HETATM   28  C15 UNL     1      20.495   4.727  47.875  1.00  0.00     0.153 C 
BRANCH  28  29
HETATM   29  N5  UNL     1      21.449   3.985  47.080  1.00  0.00    -0.360 N 
HETATM   30  C16 UNL     1      21.879   2.770  47.714  1.00  0.00     0.152 C 
BRANCH  29  31
HETATM   31  C17 UNL     1      21.921   4.393  45.815  1.00  0.00     0.350 C 
HETATM   32  O1  UNL     1      21.961   3.606  44.847  1.00  0.00    -0.284 OA
ENDBRANCH  29  31
ENDBRANCH  28  29
ENDBRANCH  27  28
ENDBRANCH  12  25
TORSDOF 8
ENDMDL
MODEL 2
REMARK VINA RESULT:      -8.0      1.625      2.540
REMARK  8 active torsions:
REMARK  status: ('A' for Active; 'I' for Inactive)
REMARK    1  A    between atoms: C2_2  and  C3_3 
REMARK    2  A    between atoms: C3_3  and  N1_4 
REMARK    3  A    between atoms: C3_3  and  C19_26 
REMARK    4  A    between atoms: N1_4  and  C4_5 
REMARK    5  A    between atoms: N4_16  and  C12_17 
REMARK    6  A    between atoms: C14_19  and  C15_20 
REMARK    7  A    between atoms: C15_20  and  N5_21 
REMARK    8  A    between atoms: N5_21  and  C17_23 
ROOT
HETATM    1  C4  UNL     1      23.956   0.905  53.221  1.00  0.00     0.139 A 
HETATM    2  N2  UNL     1      23.943  -0.326  53.713  1.00  0.00    -0.224 NA
HETATM    3  C5  UNL     1      22.873  -1.087  53.871  1.00  0.00     0.236 A 
HETATM    4  N3  UNL     1      21.717  -0.523  53.488  1.00  0.00    -0.234 NA
HETATM    5  C6  UNL     1      21.709   0.683  53.005  1.00  0.00     0.114 A 
HETATM    6  S1  UNL     1      20.288   1.707  52.405  1.00  0.00    -0.072 SA
HETATM    7  C7  UNL     1      21.295   3.166  51.958  1.00  0.00     0.010 A 
HETATM    8  C8  UNL     1      22.628   2.774  52.294  1.00  0.00    -0.025 A 
HETATM    9  C9  UNL     1      22.812   1.531  52.814  1.00  0.00     0.053 A 
HETATM   10  C10 UNL     1      23.386   3.971  51.914  1.00  0.00     0.060 C 
HETATM   11  C11 UNL     1      23.045   4.355  50.451  1.00  0.00     0.128 C 
HETATM   12  N4  UNL     1      21.699   4.817  50.313  1.00  0.00    -0.380 N 
HETATM   13  C18 UNL     1      20.836   4.408  51.408  1.00  0.00     0.169 C 
ENDROOT
BRANCH   1  14
HETATM   14  N1  UNL     1      25.243   1.504  53.153  1.00  0.00    -0.365 N 
HETATM   15  H7  UNL     1      25.803   2.162  53.716  1.00  0.00     0.162 HD
BRANCH  14  16
HETATM   16  C3  UNL     1      26.170   1.215  52.045  1.00  0.00     0.116 C 
BRANCH  16  17
HETATM   17  C2  UNL     1      26.703   2.533  51.565  1.00  0.00     0.025 C 
HETATM   18  C1  UNL     1      26.454   2.835  50.125  1.00  0.00     0.007 C 
ENDBRANCH  16  17
BRANCH  16  19
HETATM   19  C19 UNL     1      27.222   0.296  52.569  1.00  0.00    -0.036 A 
HETATM   20  C20 UNL     1      27.375  -1.068  52.644  1.00  0.00     0.009 A 
HETATM   21  C21 UNL     1      28.490  -1.631  53.217  1.00  0.00     0.001 A 
HETATM   22  C22 UNL     1      29.509  -0.864  53.742  1.00  0.00     0.000 A 
HETATM   23  C23 UNL     1      29.387   0.507  53.683  1.00  0.00     0.001 A 
HETATM   24  C24 UNL     1      28.254   1.086  53.102  1.00  0.00     0.009 A 
ENDBRANCH  16  19
ENDBRANCH  14  16
ENDBRANCH   1  14
BRANCH  12  25
HETATM   25  C12 UNL     1      21.379   5.588  49.165  1.00  0.00     0.001 C 
HETATM   26  C13 UNL     1      21.057   4.567  48.138  1.00  0.00     0.067 C 
HETATM   27  C14 UNL     1      21.342   6.885  48.951  1.00  0.00     0.017 C 
BRANCH  27  28
HETATM   28  C15 UNL     1      21.674   7.857  50.020  1.00  0.00     0.153 C 
BRANCH  28  29
HETATM   29  N5  UNL     1      23.069   8.217  49.897  1.00  0.00    -0.360 N 
HETATM   30  C16 UNL     1      23.363   8.898  48.667  1.00  0.00     0.152 C 
BRANCH  29  31
HETATM   31  C17 UNL     1      24.053   7.937  50.868  1.00  0.00     0.350 C 
HETATM   32  O1  UNL     1      25.057   7.244  50.601  1.00  0.00    -0.284 OA
ENDBRANCH  29  31
ENDBRANCH  28  29
ENDBRANCH  27  28
ENDBRANCH  12  25
TORSDOF 8
ENDMDL
MODEL 3
REMARK VINA RESULT:      -7.8      3.068      4.559
REMARK  8 active torsions:
REMARK  status: ('A' for Active; 'I' for Inactive)
REMARK    1  A    between atoms: C2_2  and  C3_3 
REMARK    2  A    between atoms: C3_3  and  N1_4 
REMARK    3  A    between atoms: C3_3  and  C19_26 
REMARK    4  A    between atoms: N1_4  and  C4_5 
REMARK    5  A    between atoms: N4_16  and  C12_17 
REMARK    6  A    between atoms: C14_19  and  C15_20 
REMARK    7  A    between atoms: C15_20  and  N5_21 
REMARK    8  A    between atoms: N5_21  and  C17_23 
ROOT
HETATM    1  C4  UNL     1      22.203   2.034  52.012  1.00  0.00     0.139 A 
HETATM    2  N2  UNL     1      20.974   1.651  52.329  1.00  0.00    -0.224 NA
HETATM    3  C5  UNL     1      19.908   2.433  52.383  1.00  0.00     0.236 A 
HETATM    4  N3  UNL     1      20.137   3.721  52.085  1.00  0.00    -0.234 NA
HETATM    5  C6  UNL     1      21.335   4.115  51.773  1.00  0.00     0.114 A 
HETATM    6  S1  UNL     1      21.944   5.805  51.324  1.00  0.00    -0.072 SA
HETATM    7  C7  UNL     1      23.686   5.308  51.080  1.00  0.00     0.010 A 
HETATM    8  C8  UNL     1      23.680   3.905  51.355  1.00  0.00    -0.025 A 
HETATM    9  C9  UNL     1      22.497   3.331  51.698  1.00  0.00     0.053 A 
HETATM   10  C10 UNL     1      25.091   3.562  51.142  1.00  0.00     0.060 C 
HETATM   11  C11 UNL     1      25.540   4.069  49.747  1.00  0.00     0.128 C 
HETATM   12  N4  UNL     1      25.582   5.496  49.678  1.00  0.00    -0.380 N 
HETATM   13  C18 UNL     1      24.789   6.145  50.708  1.00  0.00     0.169 C 
ENDROOT
BRANCH   1  14
HETATM   14  N1  UNL     1      23.170   0.992  52.024  1.00  0.00    -0.365 N 
HETATM   15  H7  UNL     1      23.709   0.449  51.332  1.00  0.00     0.162 HD
BRANCH  14  16
HETATM   16  C3  UNL     1      23.660   0.410  53.286  1.00  0.00     0.116 C 
BRANCH  16  17
HETATM   17  C2  UNL     1      22.944  -0.896  53.473  1.00  0.00     0.025 C 
HETATM   18  C1  UNL     1      22.267  -1.070  54.790  1.00  0.00     0.007 C 
ENDBRANCH  16  17
BRANCH  16  19
HETATM   19  C19 UNL     1      25.141   0.273  53.173  1.00  0.00    -0.036 A 
HETATM   20  C20 UNL     1      25.995  -0.676  52.664  1.00  0.00     0.009 A 
HETATM   21  C21 UNL     1      27.358  -0.514  52.722  1.00  0.00     0.001 A 
HETATM   22  C22 UNL     1      27.939   0.601  53.289  1.00  0.00     0.000 A 
HETATM   23  C23 UNL     1      27.111   1.572  53.809  1.00  0.00     0.001 A 
HETATM   24  C24 UNL     1      25.723   1.412  53.752  1.00  0.00     0.009 A 
ENDBRANCH  16  19
ENDBRANCH  14  16
ENDBRANCH   1  14
BRANCH  12  25
HETATM   25  C12 UNL     1      26.362   6.086  48.648  1.00  0.00     0.001 C 
HETATM   26  C13 UNL     1      27.570   5.228  48.592  1.00  0.00     0.067 C 
HETATM   27  C14 UNL     1      26.162   7.129  47.874  1.00  0.00     0.017 C 
BRANCH  27  28
HETATM   28  C15 UNL     1      24.931   7.949  47.977  1.00  0.00     0.153 C 
BRANCH  28  29
HETATM   29  N5  UNL     1      25.292   9.261  48.466  1.00  0.00    -0.360 N 
HETATM   30  C16 UNL     1      24.654  10.322  47.738  1.00  0.00     0.152 C 
BRANCH  29  31
HETATM   31  C17 UNL     1      26.176   9.497  49.539  1.00  0.00     0.350 C 
HETATM   32  O1  UNL     1      26.921  10.498  49.565  1.00  0.00    -0.284 OA
ENDBRANCH  29  31
ENDBRANCH  28  29
ENDBRANCH  27  28
ENDBRANCH  12  25
TORSDOF 8
ENDMDL
MODEL 4
REMARK VINA RESULT:      -7.7      3.064      5.857
REMARK  8 active torsions:
REMARK  status: ('A' for Active; 'I' for Inactive)
REMARK    1  A    between atoms: C2_2  and  C3_3 
REMARK    2  A    between atoms: C3_3  and  N1_4 
REMARK    3  A    between atoms: C3_3  and  C19_26 
REMARK    4  A    between atoms: N1_4  and  C4_5 
REMARK    5  A    between atoms: N4_16  and  C12_17 
REMARK    6  A    between atoms: C14_19  and  C15_20 
REMARK    7  A    between atoms: C15_20  and  N5_21 
REMARK    8  A    between atoms: N5_21  and  C17_23 
ROOT
HETATM    1  C4  UNL     1      24.381   0.837  52.693  1.00  0.00     0.139 A 
HETATM    2  N2  UNL     1      25.219  -0.107  53.099  1.00  0.00    -0.224 NA
HETATM    3  C5  UNL     1      26.488  -0.223  52.744  1.00  0.00     0.236 A 
HETATM    4  N3  UNL     1      26.924   0.720  51.894  1.00  0.00    -0.234 NA
HETATM    5  C6  UNL     1      26.118   1.652  51.484  1.00  0.00     0.114 A 
HETATM    6  S1  UNL     1      26.432   3.063  50.327  1.00  0.00    -0.072 SA
HETATM    7  C7  UNL     1      24.738   3.745  50.413  1.00  0.00     0.010 A 
HETATM    8  C8  UNL     1      24.061   2.860  51.307  1.00  0.00    -0.025 A 
HETATM    9  C9  UNL     1      24.768   1.822  51.830  1.00  0.00     0.053 A 
HETATM   10  C10 UNL     1      22.719   3.452  51.341  1.00  0.00     0.060 C 
HETATM   11  C11 UNL     1      22.829   4.959  51.689  1.00  0.00     0.128 C 
HETATM   12  N4  UNL     1      23.446   5.713  50.644  1.00  0.00    -0.380 N 
HETATM   13  C18 UNL     1      24.224   4.896  49.729  1.00  0.00     0.169 C 
ENDROOT
BRANCH   1  14
HETATM   14  N1  UNL     1      23.068   0.735  53.229  1.00  0.00    -0.365 N 
HETATM   15  H7  UNL     1      22.456   1.292  53.845  1.00  0.00     0.162 HD
BRANCH  14  16
HETATM   16  C3  UNL     1      22.197  -0.412  52.921  1.00  0.00     0.116 C 
BRANCH  16  17
HETATM   17  C2  UNL     1      21.595  -0.866  54.218  1.00  0.00     0.025 C 
HETATM   18  C1  UNL     1      22.570  -1.351  55.238  1.00  0.00     0.007 C 
ENDBRANCH  16  17
BRANCH  16  19
HETATM   19  C19 UNL     1      21.190   0.046  51.919  1.00  0.00    -0.036 A 
HETATM   20  C20 UNL     1      21.239   0.463  50.610  1.00  0.00     0.009 A 
HETATM   21  C21 UNL     1      20.102   0.847  49.941  1.00  0.00     0.001 A 
HETATM   22  C22 UNL     1      18.860   0.834  50.540  1.00  0.00     0.000 A 
HETATM   23  C23 UNL     1      18.776   0.421  51.853  1.00  0.00     0.001 A 
HETATM   24  C24 UNL     1      19.930   0.029  52.539  1.00  0.00     0.009 A 
ENDBRANCH  16  19
ENDBRANCH  14  16
ENDBRANCH   1  14
BRANCH  12  25
HETATM   25  C12 UNL     1      23.233   7.117  50.626  1.00  0.00     0.001 C 
HETATM   26  C13 UNL     1      21.772   7.250  50.842  1.00  0.00     0.067 C 
HETATM   27  C14 UNL     1      24.049   8.134  50.466  1.00  0.00     0.017 C 
BRANCH  27  28
HETATM   28  C15 UNL     1      25.503   7.936  50.254  1.00  0.00     0.153 C 
BRANCH  28  29
HETATM   29  N5  UNL     1      25.869   8.536  48.989  1.00  0.00    -0.360 N 
HETATM   30  C16 UNL     1      26.312   7.571  48.022  1.00  0.00     0.152 C 
BRANCH  29  31
HETATM   31  C17 UNL     1      25.806   9.918  48.715  1.00  0.00     0.350 C 
HETATM   32  O1  UNL     1      26.563  10.732  49.283  1.00  0.00    -0.284 OA
ENDBRANCH  29  31
ENDBRANCH  28  29
ENDBRANCH  27  28
ENDBRANCH  12  25
TORSDOF 8
ENDMDL
MODEL 5
REMARK VINA RESULT:      -7.7      2.989      5.857
REMARK  8 active torsions:
REMARK  status: ('A' for Active; 'I' for Inactive)
REMARK    1  A    between atoms: C2_2  and  C3_3 
REMARK    2  A    between atoms: C3_3  and  N1_4 
REMARK    3  A    between atoms: C3_3  and  C19_26 
REMARK    4  A    between atoms: N1_4  and  C4_5 
REMARK    5  A    between atoms: N4_16  and  C12_17 
REMARK    6  A    between atoms: C14_19  and  C15_20 
REMARK    7  A    between atoms: C15_20  and  N5_21 
REMARK    8  A    between atoms: N5_21  and  C17_23 
ROOT
HETATM    1  C4  UNL     1      25.086   0.584  52.344  1.00  0.00     0.139 A 
HETATM    2  N2  UNL     1      26.327   0.206  52.616  1.00  0.00    -0.224 NA
HETATM    3  C5  UNL     1      26.701  -0.562  53.625  1.00  0.00     0.236 A 
HETATM    4  N3  UNL     1      25.702  -0.974  54.422  1.00  0.00    -0.234 NA
HETATM    5  C6  UNL     1      24.480  -0.613  54.173  1.00  0.00     0.114 A 
HETATM    6  S1  UNL     1      22.919  -1.017  55.083  1.00  0.00    -0.072 SA
HETATM    7  C7  UNL     1      21.815  -0.070  53.976  1.00  0.00     0.010 A 
HETATM    8  C8  UNL     1      22.704   0.480  53.001  1.00  0.00    -0.025 A 
HETATM    9  C9  UNL     1      24.029   0.197  53.118  1.00  0.00     0.053 A 
HETATM   10  C10 UNL     1      21.771   1.221  52.144  1.00  0.00     0.060 C 
HETATM   11  C11 UNL     1      20.626   0.278  51.693  1.00  0.00     0.128 C 
HETATM   12  N4  UNL     1      19.776  -0.099  52.778  1.00  0.00    -0.380 N 
HETATM   13  C18 UNL     1      20.393   0.081  54.080  1.00  0.00     0.169 C 
ENDROOT
BRANCH   1  14
HETATM   14  N1  UNL     1      24.955   1.410  51.196  1.00  0.00    -0.365 N 
HETATM   15  H7  UNL     1      24.625   1.310  50.223  1.00  0.00     0.162 HD
BRANCH  14  16
HETATM   16  C3  UNL     1      25.343   2.832  51.220  1.00  0.00     0.116 C 
BRANCH  16  17
HETATM   17  C2  UNL     1      26.317   3.039  50.098  1.00  0.00     0.025 C 
HETATM   18  C1  UNL     1      26.437   4.443  49.608  1.00  0.00     0.007 C 
ENDBRANCH  16  17
BRANCH  16  19
HETATM   19  C19 UNL     1      24.096   3.640  51.091  1.00  0.00    -0.036 A 
HETATM   20  C20 UNL     1      23.236   3.946  50.064  1.00  0.00     0.009 A 
HETATM   21  C21 UNL     1      22.144   4.756  50.264  1.00  0.00     0.001 A 
HETATM   22  C22 UNL     1      21.854   5.301  51.498  1.00  0.00     0.000 A 
HETATM   23  C23 UNL     1      22.697   5.014  52.550  1.00  0.00     0.001 A 
HETATM   24  C24 UNL     1      23.810   4.191  52.351  1.00  0.00     0.009 A 
ENDBRANCH  16  19
ENDBRANCH  14  16
ENDBRANCH   1  14
BRANCH  12  25
HETATM   25  C12 UNL     1      18.479  -0.586  52.465  1.00  0.00     0.001 C 
HETATM   26  C13 UNL     1      18.311  -1.740  53.381  1.00  0.00     0.067 C 
HETATM   27  C14 UNL     1      17.570  -0.193  51.600  1.00  0.00     0.017 C 
BRANCH  27  28
HETATM   28  C15 UNL     1      17.798   0.970  50.710  1.00  0.00     0.153 C 
BRANCH  28  29
HETATM   29  N5  UNL     1      17.160   2.129  51.295  1.00  0.00    -0.360 N 
HETATM   30  C16 UNL     1      15.766   1.920  51.568  1.00  0.00     0.152 C 
BRANCH  29  31
HETATM   31  C17 UNL     1      17.819   3.344  51.575  1.00  0.00     0.350 C 
HETATM   32  O1  UNL     1      18.936   3.369  52.132  1.00  0.00    -0.284 OA
ENDBRANCH  29  31
ENDBRANCH  28  29
ENDBRANCH  27  28
ENDBRANCH  12  25
TORSDOF 8
ENDMDL
MODEL 6
REMARK VINA RESULT:      -7.7      3.466      5.890
REMARK  8 active torsions:
REMARK  status: ('A' for Active; 'I' for Inactive)
REMARK    1  A    between atoms: C2_2  and  C3_3 
REMARK    2  A    between atoms: C3_3  and  N1_4 
REMARK    3  A    between atoms: C3_3  and  C19_26 
REMARK    4  A    between atoms: N1_4  and  C4_5 
REMARK    5  A    between atoms: N4_16  and  C12_17 
REMARK    6  A    between atoms: C14_19  and  C15_20 
REMARK    7  A    between atoms: C15_20  and  N5_21 
REMARK    8  A    between atoms: N5_21  and  C17_23 
ROOT
HETATM    1  C4  UNL     1      25.239   2.507  51.555  1.00  0.00     0.139 A 
HETATM    2  N2  UNL     1      26.425   1.916  51.532  1.00  0.00    -0.224 NA
HETATM    3  C5  UNL     1      26.710   0.726  52.033  1.00  0.00     0.236 A 
HETATM    4  N3  UNL     1      25.675   0.094  52.609  1.00  0.00    -0.234 NA
HETATM    5  C6  UNL     1      24.505   0.657  52.643  1.00  0.00     0.114 A 
HETATM    6  S1  UNL     1      22.915   0.037  53.361  1.00  0.00    -0.072 SA
HETATM    7  C7  UNL     1      21.928   1.508  52.907  1.00  0.00     0.010 A 
HETATM    8  C8  UNL     1      22.869   2.357  52.247  1.00  0.00    -0.025 A 
HETATM    9  C9  UNL     1      24.149   1.913  52.126  1.00  0.00     0.053 A 
HETATM   10  C10 UNL     1      22.029   3.510  51.904  1.00  0.00     0.060 C 
HETATM   11  C11 UNL     1      20.770   3.022  51.142  1.00  0.00     0.128 C 
HETATM   12  N4  UNL     1      19.890   2.268  51.978  1.00  0.00    -0.380 N 
HETATM   13  C18 UNL     1      20.537   1.740  53.166  1.00  0.00     0.169 C 
ENDROOT
BRANCH   1  14
HETATM   14  N1  UNL     1      25.201   3.788  50.941  1.00  0.00    -0.365 N 
HETATM   15  H7  UNL     1      25.140   4.773  51.245  1.00  0.00     0.162 HD
BRANCH  14  16
HETATM   16  C3  UNL     1      25.263   3.944  49.477  1.00  0.00     0.116 C 
BRANCH  16  17
HETATM   17  C2  UNL     1      23.855   4.153  49.000  1.00  0.00     0.025 C 
HETATM   18  C1  UNL     1      23.171   2.934  48.478  1.00  0.00     0.007 C 
ENDBRANCH  16  17
BRANCH  16  19
HETATM   19  C19 UNL     1      26.173   5.089  49.186  1.00  0.00    -0.036 A 
HETATM   20  C20 UNL     1      26.061   6.458  49.233  1.00  0.00     0.009 A 
HETATM   21  C21 UNL     1      27.109   7.273  48.878  1.00  0.00     0.001 A 
HETATM   22  C22 UNL     1      28.321   6.765  48.459  1.00  0.00     0.000 A 
HETATM   23  C23 UNL     1      28.466   5.396  48.400  1.00  0.00     0.001 A 
HETATM   24  C24 UNL     1      27.403   4.562  48.760  1.00  0.00     0.009 A 
ENDBRANCH  16  19
ENDBRANCH  14  16
ENDBRANCH   1  14
BRANCH  12  25
HETATM   25  C12 UNL     1      18.539   2.128  51.562  1.00  0.00     0.001 C 
HETATM   26  C13 UNL     1      18.070   3.529  51.426  1.00  0.00     0.067 C 
HETATM   27  C14 UNL     1      17.790   1.075  51.324  1.00  0.00     0.017 C 
BRANCH  27  28
HETATM   28  C15 UNL     1      18.317  -0.303  51.477  1.00  0.00     0.153 C 
BRANCH  28  29
HETATM   29  N5  UNL     1      17.647  -0.930  52.595  1.00  0.00    -0.360 N 
HETATM   30  C16 UNL     1      16.253  -0.595  52.670  1.00  0.00     0.152 C 
BRANCH  29  31
HETATM   31  C17 UNL     1      18.278  -1.782  53.525  1.00  0.00     0.350 C 
HETATM   32  O1  UNL     1      19.479  -1.637  53.835  1.00  0.00    -0.284 OA
ENDBRANCH  29  31
ENDBRANCH  28  29
ENDBRANCH  27  28
ENDBRANCH  12  25
TORSDOF 8
ENDMDL
MODEL 7
REMARK VINA RESULT:      -7.6      3.257      5.729
REMARK  8 active torsions:
REMARK  status: ('A' for Active; 'I' for Inactive)
REMARK    1  A    between atoms: C2_2  and  C3_3 
REMARK    2  A    between atoms: C3_3  and  N1_4 
REMARK    3  A    between atoms: C3_3  and  C19_26 
REMARK    4  A    between atoms: N1_4  and  C4_5 
REMARK    5  A    between atoms: N4_16  and  C12_17 
REMARK    6  A    between atoms: C14_19  and  C15_20 
REMARK    7  A    between atoms: C15_20  and  N5_21 
REMARK    8  A    between atoms: N5_21  and  C17_23 
ROOT
HETATM    1  C4  UNL     1      24.728   1.850  52.008  1.00  0.00     0.139 A 
HETATM    2  N2  UNL     1      26.029   1.599  52.057  1.00  0.00    -0.224 NA
HETATM    3  C5  UNL     1      26.604   0.610  52.721  1.00  0.00     0.236 A 
HETATM    4  N3  UNL     1      25.758  -0.186  53.393  1.00  0.00    -0.234 NA
HETATM    5  C6  UNL     1      24.480   0.044  53.358  1.00  0.00     0.114 A 
HETATM    6  S1  UNL     1      23.091  -0.869  54.174  1.00  0.00    -0.072 SA
HETATM    7  C7  UNL     1      21.764   0.207  53.524  1.00  0.00     0.010 A 
HETATM    8  C8  UNL     1      22.465   1.174  52.740  1.00  0.00    -0.025 A 
HETATM    9  C9  UNL     1      23.819   1.074  52.670  1.00  0.00     0.053 A 
HETATM   10  C10 UNL     1      21.359   2.002  52.244  1.00  0.00     0.060 C 
HETATM   11  C11 UNL     1      20.296   1.094  51.573  1.00  0.00     0.128 C 
HETATM   12  N4  UNL     1      19.624   0.259  52.518  1.00  0.00    -0.380 N 
HETATM   13  C18 UNL     1      20.354   0.096  53.762  1.00  0.00     0.169 C 
ENDROOT
BRANCH   1  14
HETATM   14  N1  UNL     1      24.370   2.975  51.217  1.00  0.00    -0.365 N 
HETATM   15  H7  UNL     1      24.030   3.936  51.377  1.00  0.00     0.162 HD
BRANCH  14  16
HETATM   16  C3  UNL     1      24.452   2.941  49.746  1.00  0.00     0.116 C 
BRANCH  16  17
HETATM   17  C2  UNL     1      23.084   3.270  49.225  1.00  0.00     0.025 C 
HETATM   18  C1  UNL     1      22.360   2.139  48.575  1.00  0.00     0.007 C 
ENDBRANCH  16  17
BRANCH  16  19
HETATM   19  C19 UNL     1      25.503   3.915  49.333  1.00  0.00    -0.036 A 
HETATM   20  C20 UNL     1      26.867   3.866  49.169  1.00  0.00     0.009 A 
HETATM   21  C21 UNL     1      27.580   4.973  48.777  1.00  0.00     0.001 A 
HETATM   22  C22 UNL     1      26.971   6.185  48.529  1.00  0.00     0.000 A 
HETATM   23  C23 UNL     1      25.604   6.269  48.684  1.00  0.00     0.001 A 
HETATM   24  C24 UNL     1      24.873   5.145  49.082  1.00  0.00     0.009 A 
ENDBRANCH  16  19
ENDBRANCH  14  16
ENDBRANCH   1  14
BRANCH  12  25
HETATM   25  C12 UNL     1      18.371  -0.292  52.140  1.00  0.00     0.001 C 
HETATM   26  C13 UNL     1      18.138  -1.352  53.151  1.00  0.00     0.067 C 
HETATM   27  C14 UNL     1      17.539  -0.013  51.161  1.00  0.00     0.017 C 
BRANCH  27  28
HETATM   28  C15 UNL     1      17.828   1.061  50.180  1.00  0.00     0.153 C 
BRANCH  28  29
HETATM   29  N5  UNL     1      17.009   2.209  50.501  1.00  0.00    -0.360 N 
HETATM   30  C16 UNL     1      15.603   1.938  50.394  1.00  0.00     0.152 C 
BRANCH  29  31
HETATM   31  C17 UNL     1      17.516   3.469  50.879  1.00  0.00     0.350 C 
HETATM   32  O1  UNL     1      17.946   3.681  52.032  1.00  0.00    -0.284 OA
ENDBRANCH  29  31
ENDBRANCH  28  29
ENDBRANCH  27  28
ENDBRANCH  12  25
TORSDOF 8
ENDMDL
MODEL 8
REMARK VINA RESULT:      -7.5      3.139      5.118
REMARK  8 active torsions:
REMARK  status: ('A' for Active; 'I' for Inactive)
REMARK    1  A    between atoms: C2_2  and  C3_3 
REMARK    2  A    between atoms: C3_3  and  N1_4 
REMARK    3  A    between atoms: C3_3  and  C19_26 
REMARK    4  A    between atoms: N1_4  and  C4_5 
REMARK    5  A    between atoms: N4_16  and  C12_17 
REMARK    6  A    between atoms: C14_19  and  C15_20 
REMARK    7  A    between atoms: C15_20  and  N5_21 
REMARK    8  A    between atoms: N5_21  and  C17_23 
ROOT
HETATM    1  C4  UNL     1      25.776   3.068  50.199  1.00  0.00     0.139 A 
HETATM    2  N2  UNL     1      26.834   3.826  49.947  1.00  0.00    -0.224 NA
HETATM    3  C5  UNL     1      26.835   4.948  49.247  1.00  0.00     0.236 A 
HETATM    4  N3  UNL     1      25.636   5.314  48.765  1.00  0.00    -0.234 NA
HETATM    5  C6  UNL     1      24.589   4.583  49.001  1.00  0.00     0.114 A 
HETATM    6  S1  UNL     1      22.831   4.831  48.473  1.00  0.00    -0.072 SA
HETATM    7  C7  UNL     1      22.188   3.322  49.279  1.00  0.00     0.010 A 
HETATM    8  C8  UNL     1      23.344   2.743  49.888  1.00  0.00    -0.025 A 
HETATM    9  C9  UNL     1      24.532   3.389  49.737  1.00  0.00     0.053 A 
HETATM   10  C10 UNL     1      22.773   1.548  50.519  1.00  0.00     0.060 C 
HETATM   11  C11 UNL     1      21.566   1.958  51.401  1.00  0.00     0.128 C 
HETATM   12  N4  UNL     1      20.461   2.424  50.623  1.00  0.00    -0.380 N 
HETATM   13  C18 UNL     1      20.836   2.843  49.284  1.00  0.00     0.169 C 
ENDROOT
BRANCH   1  14
HETATM   14  N1  UNL     1      26.047   1.912  50.981  1.00  0.00    -0.365 N 
HETATM   15  H7  UNL     1      26.094   0.892  50.836  1.00  0.00     0.162 HD
BRANCH  14  16
HETATM   16  C3  UNL     1      26.377   2.012  52.414  1.00  0.00     0.116 C 
BRANCH  16  17
HETATM   17  C2  UNL     1      25.078   1.999  53.165  1.00  0.00     0.025 C 
HETATM   18  C1  UNL     1      24.479   3.340  53.427  1.00  0.00     0.007 C 
ENDBRANCH  16  17
BRANCH  16  19
HETATM   19  C19 UNL     1      27.275   0.869  52.748  1.00  0.00    -0.036 A 
HETATM   20  C20 UNL     1      27.193  -0.499  52.639  1.00  0.00     0.009 A 
HETATM   21  C21 UNL     1      28.217  -1.312  53.062  1.00  0.00     0.001 A 
HETATM   22  C22 UNL     1      29.375  -0.804  53.613  1.00  0.00     0.000 A 
HETATM   23  C23 UNL     1      29.489   0.564  53.737  1.00  0.00     0.001 A 
HETATM   24  C24 UNL     1      28.450   1.396  53.309  1.00  0.00     0.009 A 
ENDBRANCH  16  19
ENDBRANCH  14  16
ENDBRANCH   1  14
BRANCH  12  25
HETATM   25  C12 UNL     1      19.177   2.425  51.231  1.00  0.00     0.001 C 
HETATM   26  C13 UNL     1      18.862   3.866  51.377  1.00  0.00     0.067 C 
HETATM   27  C14 UNL     1      18.377   1.454  51.611  1.00  0.00     0.017 C 
BRANCH  27  28
HETATM   28  C15 UNL     1      18.749   0.029  51.438  1.00  0.00     0.153 C 
BRANCH  28  29
HETATM   29  N5  UNL     1      18.643  -0.633  52.719  1.00  0.00    -0.360 N 
HETATM   30  C16 UNL     1      19.872  -0.610  53.462  1.00  0.00     0.152 C 
BRANCH  29  31
HETATM   31  C17 UNL     1      17.469  -1.244  53.205  1.00  0.00     0.350 C 
HETATM   32  O1  UNL     1      16.555  -1.608  52.436  1.00  0.00    -0.284 OA
ENDBRANCH  29  31
ENDBRANCH  28  29
ENDBRANCH  27  28
ENDBRANCH  12  25
TORSDOF 8
ENDMDL
MODEL 9
REMARK VINA RESULT:      -7.3      3.855      6.509
REMARK  8 active torsions:
REMARK  status: ('A' for Active; 'I' for Inactive)
REMARK    1  A    between atoms: C2_2  and  C3_3 
REMARK    2  A    between atoms: C3_3  and  N1_4 
REMARK    3  A    between atoms: C3_3  and  C19_26 
REMARK    4  A    between atoms: N1_4  and  C4_5 
REMARK    5  A    between atoms: N4_16  and  C12_17 
REMARK    6  A    between atoms: C14_19  and  C15_20 
REMARK    7  A    between atoms: C15_20  and  N5_21 
REMARK    8  A    between atoms: N5_21  and  C17_23 
ROOT
HETATM    1  C4  UNL     1      24.625   1.778  52.185  1.00  0.00     0.139 A 
HETATM    2  N2  UNL     1      25.897   1.425  52.305  1.00  0.00    -0.224 NA
HETATM    3  C5  UNL     1      26.347   0.337  52.907  1.00  0.00     0.236 A 
HETATM    4  N3  UNL     1      25.396  -0.453  53.429  1.00  0.00    -0.234 NA
HETATM    5  C6  UNL     1      24.144  -0.124  53.323  1.00  0.00     0.114 A 
HETATM    6  S1  UNL     1      22.634  -1.002  53.937  1.00  0.00    -0.072 SA
HETATM    7  C7  UNL     1      21.441   0.228  53.302  1.00  0.00     0.010 A 
HETATM    8  C8  UNL     1      22.268   1.210  52.673  1.00  0.00    -0.025 A 
HETATM    9  C9  UNL     1      23.614   1.014  52.695  1.00  0.00     0.053 A 
HETATM   10  C10 UNL     1      21.265   2.163  52.183  1.00  0.00     0.060 C 
HETATM   11  C11 UNL     1      20.202   1.406  51.346  1.00  0.00     0.128 C 
HETATM   12  N4  UNL     1      19.399   0.538  52.149  1.00  0.00    -0.380 N 
HETATM   13  C18 UNL     1      20.012   0.202  53.422  1.00  0.00     0.169 C 
ENDROOT
BRANCH   1  14
HETATM   14  N1  UNL     1      24.410   2.998  51.487  1.00  0.00    -0.365 N 
HETATM   15  H7  UNL     1      24.289   3.995  51.723  1.00  0.00     0.162 HD
BRANCH  14  16
HETATM   16  C3  UNL     1      24.312   3.038  50.017  1.00  0.00     0.116 C 
BRANCH  16  17
HETATM   17  C2  UNL     1      22.955   3.584  49.684  1.00  0.00     0.025 C 
HETATM   18  C1  UNL     1      22.230   2.869  48.594  1.00  0.00     0.007 C 
ENDBRANCH  16  17
BRANCH  16  19
HETATM   19  C19 UNL     1      25.438   3.878  49.516  1.00  0.00    -0.036 A 
HETATM   20  C20 UNL     1      26.787   3.689  49.329  1.00  0.00     0.009 A 
HETATM   21  C21 UNL     1      27.589   4.695  48.847  1.00  0.00     0.001 A 
HETATM   22  C22 UNL     1      27.089   5.940  48.527  1.00  0.00     0.000 A 
HETATM   23  C23 UNL     1      25.740   6.163  48.704  1.00  0.00     0.001 A 
HETATM   24  C24 UNL     1      24.919   5.143  49.194  1.00  0.00     0.009 A 
ENDBRANCH  16  19
ENDBRANCH  14  16
ENDBRANCH   1  14
BRANCH  12  25
HETATM   25  C12 UNL     1      18.146   0.123  51.625  1.00  0.00     0.001 C 
HETATM   26  C13 UNL     1      17.902   1.072  50.512  1.00  0.00     0.067 C 
HETATM   27  C14 UNL     1      17.322  -0.844  51.962  1.00  0.00     0.017 C 
BRANCH  27  28
HETATM   28  C15 UNL     1      17.623  -1.763  53.087  1.00  0.00     0.153 C 
BRANCH  28  29
HETATM   29  N5  UNL     1      16.674  -2.855  53.055  1.00  0.00    -0.360 N 
HETATM   30  C16 UNL     1      17.123  -4.005  53.787  1.00  0.00     0.152 C 
BRANCH  29  31
HETATM   31  C17 UNL     1      15.436  -2.814  52.381  1.00  0.00     0.350 C 
HETATM   32  O1  UNL     1      14.722  -3.832  52.264  1.00  0.00    -0.284 OA
ENDBRANCH  29  31
ENDBRANCH  28  29
ENDBRANCH  27  28
ENDBRANCH  12  25
TORSDOF 8
ENDMDL
