MODEL 1
REMARK VINA RESULT:      -7.4      0.000      0.000
REMARK  8 active torsions:
REMARK  status: ('A' for Active; 'I' for Inactive)
REMARK    1  A    between atoms: O1_2  and  C2_3 
REMARK    2  A    between atoms: C3_4  and  O2_5 
REMARK    3  A    between atoms: C5_7  and  O3_8 
REMARK    4  A    between atoms: O3_8  and  C6_9 
REMARK    5  A    between atoms: C6_9  and  N1_10 
REMARK    6  A    between atoms: N1_10  and  C7_11 
REMARK    7  A    between atoms: C11_17  and  O4_18 
REMARK    8  A    between atoms: C13_20  and  O5_21 
ROOT
HETATM    1  C7  UNL     1      24.168   1.803  51.467  1.00  0.00     0.139 A 
HETATM    2  N2  UNL     1      24.593   2.670  50.531  1.00  0.00    -0.224 NA
HETATM    3  C8  UNL     1      25.858   3.022  50.311  1.00  0.00     0.235 A 
HETATM    4  N3  UNL     1      26.809   2.471  51.088  1.00  0.00    -0.241 NA
HETATM    5  C9  UNL     1      26.496   1.590  52.056  1.00  0.00     0.075 A 
HETATM    6  C10 UNL     1      27.457   1.004  52.874  1.00  0.00     0.072 A 
HETATM    7  C11 UNL     1      27.074   0.111  53.847  1.00  0.00     0.103 A 
HETATM    8  C13 UNL     1      25.743  -0.232  54.045  1.00  0.00     0.102 A 
HETATM    9  C15 UNL     1      24.822   0.370  53.215  1.00  0.00     0.057 A 
HETATM   10  C16 UNL     1      25.170   1.264  52.237  1.00  0.00     0.041 A 
ENDROOT
BRANCH   1  11
HETATM   11  N1  UNL     1      22.774   1.521  51.589  1.00  0.00    -0.353 N 
HETATM   12  H10 UNL     1      22.250   1.489  52.486  1.00  0.00     0.163 HD
BRANCH  11  13
HETATM   13  C6  UNL     1      22.008   1.252  50.378  1.00  0.00     0.293 C 
BRANCH  13  14
HETATM   14  O3  UNL     1      21.103   0.241  50.677  1.00  0.00    -0.356 OA
BRANCH  14  15
HETATM   15  C5  UNL     1      20.085   0.642  51.504  1.00  0.00     0.212 A 
HETATM   16  C3  UNL     1      19.810  -0.212  52.656  1.00  0.00     0.112 A 
HETATM   17  C2  UNL     1      18.532  -0.551  52.722  1.00  0.00     0.100 A 
HETATM   18  C19 UNL     1      17.888   0.090  51.572  1.00  0.00     0.045 A 
HETATM   19  C17 UNL     1      18.768   0.790  50.847  1.00  0.00    -0.046 A 
HETATM   20  C18 UNL     1      18.466   1.565  49.616  1.00  0.00     0.046 C 
BRANCH  16  21
HETATM   21  O2  UNL     1      20.878  -0.524  53.470  1.00  0.00    -0.354 OA
HETATM   22  C4  UNL     1      21.018   0.214  54.683  1.00  0.00     0.209 C 
ENDBRANCH  16  21
BRANCH  17  23
HETATM   23  O1  UNL     1      17.821  -1.333  53.624  1.00  0.00    -0.353 OA
HETATM   24  C1  UNL     1      17.837  -2.747  53.584  1.00  0.00     0.210 C 
ENDBRANCH  17  23
ENDBRANCH  14  15
ENDBRANCH  13  14
ENDBRANCH  11  13
ENDBRANCH   1  11
BRANCH   8  25
HETATM   25  O5  UNL     1      25.568  -1.134  55.059  1.00  0.00    -0.353 OA
HETATM   26  C14 UNL     1      24.310  -1.351  55.628  1.00  0.00     0.210 C 
ENDBRANCH   8  25
BRANCH   7  27
HETATM   27  O4  UNL     1      28.114  -0.399  54.588  1.00  0.00    -0.353 OA
HETATM   28  C12 UNL     1      29.406  -0.578  54.080  1.00  0.00     0.210 C 
ENDBRANCH   7  27
TORSDOF 8
ENDMDL
MODEL 2
REMARK VINA RESULT:      -7.3      3.641      6.974
REMARK  8 active torsions:
REMARK  status: ('A' for Active; 'I' for Inactive)
REMARK    1  A    between atoms: O1_2  and  C2_3 
REMARK    2  A    between atoms: C3_4  and  O2_5 
REMARK    3  A    between atoms: C5_7  and  O3_8 
REMARK    4  A    between atoms: O3_8  and  C6_9 
REMARK    5  A    between atoms: C6_9  and  N1_10 
REMARK    6  A    between atoms: N1_10  and  C7_11 
REMARK    7  A    between atoms: C11_17  and  O4_18 
REMARK    8  A    between atoms: C13_20  and  O5_21 
ROOT
HETATM    1  C7  UNL     1      24.203   2.318  52.744  1.00  0.00     0.139 A 
HETATM    2  N2  UNL     1      22.962   1.802  52.757  1.00  0.00    -0.224 NA
HETATM    3  C8  UNL     1      22.648   0.534  53.011  1.00  0.00     0.235 A 
HETATM    4  N3  UNL     1      23.651  -0.322  53.282  1.00  0.00    -0.241 NA
HETATM    5  C9  UNL     1      24.933   0.087  53.296  1.00  0.00     0.075 A 
HETATM    6  C10 UNL     1      25.991  -0.774  53.572  1.00  0.00     0.072 A 
HETATM    7  C11 UNL     1      27.280  -0.294  53.571  1.00  0.00     0.103 A 
HETATM    8  C13 UNL     1      27.568   1.037  53.302  1.00  0.00     0.102 A 
HETATM    9  C15 UNL     1      26.493   1.857  53.033  1.00  0.00     0.057 A 
HETATM   10  C16 UNL     1      25.197   1.412  53.025  1.00  0.00     0.041 A 
ENDROOT
BRANCH   1  11
HETATM   11  N1  UNL     1      24.391   3.703  52.453  1.00  0.00    -0.353 N 
HETATM   12  H10 UNL     1      25.212   4.268  52.751  1.00  0.00     0.163 HD
BRANCH  11  13
HETATM   13  C6  UNL     1      23.368   4.398  51.682  1.00  0.00     0.293 C 
BRANCH  13  14
HETATM   14  O3  UNL     1      23.912   4.685  50.436  1.00  0.00    -0.356 OA
BRANCH  14  15
HETATM   15  C5  UNL     1      25.195   5.167  50.496  1.00  0.00     0.212 A 
HETATM   16  C3  UNL     1      25.369   6.587  50.203  1.00  0.00     0.112 A 
HETATM   17  C2  UNL     1      26.288   6.788  49.271  1.00  0.00     0.100 A 
HETATM   18  C19 UNL     1      26.776   5.457  48.898  1.00  0.00     0.045 A 
HETATM   19  C17 UNL     1      26.158   4.497  49.594  1.00  0.00    -0.046 A 
HETATM   20  C18 UNL     1      26.400   3.036  49.476  1.00  0.00     0.046 C 
BRANCH  16  21
HETATM   21  O2  UNL     1      24.584   7.471  50.911  1.00  0.00    -0.354 OA
HETATM   22  C4  UNL     1      23.559   8.160  50.196  1.00  0.00     0.209 C 
ENDBRANCH  16  21
BRANCH  17  23
HETATM   23  O1  UNL     1      26.782   7.945  48.682  1.00  0.00    -0.353 OA
HETATM   24  C1  UNL     1      27.483   8.932  49.413  1.00  0.00     0.210 C 
ENDBRANCH  17  23
ENDBRANCH  14  15
ENDBRANCH  13  14
ENDBRANCH  11  13
ENDBRANCH   1  11
BRANCH   8  25
HETATM   25  O5  UNL     1      28.907   1.316  53.349  1.00  0.00    -0.353 OA
HETATM   26  C14 UNL     1      29.454   2.068  54.392  1.00  0.00     0.210 C 
ENDBRANCH   8  25
BRANCH   7  27
HETATM   27  O4  UNL     1      28.236  -1.241  53.858  1.00  0.00    -0.353 OA
HETATM   28  C12 UNL     1      28.678  -2.193  52.932  1.00  0.00     0.210 C 
ENDBRANCH   7  27
TORSDOF 8
ENDMDL
MODEL 3
REMARK VINA RESULT:      -7.2      1.180      2.190
REMARK  8 active torsions:
REMARK  status: ('A' for Active; 'I' for Inactive)
REMARK    1  A    between atoms: O1_2  and  C2_3 
REMARK    2  A    between atoms: C3_4  and  O2_5 
REMARK    3  A    between atoms: C5_7  and  O3_8 
REMARK    4  A    between atoms: O3_8  and  C6_9 
REMARK    5  A    between atoms: C6_9  and  N1_10 
REMARK    6  A    between atoms: N1_10  and  C7_11 
REMARK    7  A    between atoms: C11_17  and  O4_18 
REMARK    8  A    between atoms: C13_20  and  O5_21 
ROOT
HETATM    1  C7  UNL     1      24.259   1.993  51.609  1.00  0.00     0.139 A 
HETATM    2  N2  UNL     1      24.682   2.885  50.696  1.00  0.00    -0.224 NA
HETATM    3  C8  UNL     1      25.951   3.190  50.433  1.00  0.00     0.235 A 
HETATM    4  N3  UNL     1      26.909   2.560  51.137  1.00  0.00    -0.241 NA
HETATM    5  C9  UNL     1      26.599   1.647  52.076  1.00  0.00     0.075 A 
HETATM    6  C10 UNL     1      27.568   0.979  52.819  1.00  0.00     0.072 A 
HETATM    7  C11 UNL     1      27.187   0.057  53.767  1.00  0.00     0.103 A 
HETATM    8  C13 UNL     1      25.852  -0.234  54.011  1.00  0.00     0.102 A 
HETATM    9  C15 UNL     1      24.923   0.448  53.255  1.00  0.00     0.057 A 
HETATM   10  C16 UNL     1      25.269   1.372  52.304  1.00  0.00     0.041 A 
ENDROOT
BRANCH   1  11
HETATM   11  N1  UNL     1      22.860   1.768  51.783  1.00  0.00    -0.353 N 
HETATM   12  H10 UNL     1      22.384   0.854  51.650  1.00  0.00     0.163 HD
BRANCH  11  13
HETATM   13  C6  UNL     1      22.017   2.890  52.177  1.00  0.00     0.293 C 
BRANCH  13  14
HETATM   14  O3  UNL     1      20.844   2.361  52.702  1.00  0.00    -0.356 OA
BRANCH  14  15
HETATM   15  C5  UNL     1      20.611   1.063  52.325  1.00  0.00     0.212 A 
HETATM   16  C3  UNL     1      19.472   0.839  51.439  1.00  0.00     0.112 A 
HETATM   17  C2  UNL     1      18.657  -0.091  51.912  1.00  0.00     0.100 A 
HETATM   18  C19 UNL     1      19.248  -0.535  53.177  1.00  0.00     0.045 A 
HETATM   19  C17 UNL     1      20.384   0.119  53.442  1.00  0.00    -0.046 A 
HETATM   20  C18 UNL     1      21.247  -0.074  54.635  1.00  0.00     0.046 C 
BRANCH  16  21
HETATM   21  O2  UNL     1      19.418   1.597  50.289  1.00  0.00    -0.354 OA
HETATM   22  C4  UNL     1      20.363   1.302  49.262  1.00  0.00     0.209 C 
ENDBRANCH  16  21
BRANCH  17  23
HETATM   23  O1  UNL     1      17.472  -0.627  51.424  1.00  0.00    -0.353 OA
HETATM   24  C1  UNL     1      16.481  -1.179  52.270  1.00  0.00     0.210 C 
ENDBRANCH  17  23
ENDBRANCH  14  15
ENDBRANCH  13  14
ENDBRANCH  11  13
ENDBRANCH   1  11
BRANCH   8  25
HETATM   25  O5  UNL     1      25.680  -1.177  54.989  1.00  0.00    -0.353 OA
HETATM   26  C14 UNL     1      24.480  -1.274  55.699  1.00  0.00     0.210 C 
ENDBRANCH   8  25
BRANCH   7  27
HETATM   27  O4  UNL     1      28.234  -0.534  54.433  1.00  0.00    -0.353 OA
HETATM   28  C12 UNL     1      29.449  -0.863  53.820  1.00  0.00     0.210 C 
ENDBRANCH   7  27
TORSDOF 8
ENDMDL
MODEL 4
REMARK VINA RESULT:      -7.0      3.663      6.478
REMARK  8 active torsions:
REMARK  status: ('A' for Active; 'I' for Inactive)
REMARK    1  A    between atoms: O1_2  and  C2_3 
REMARK    2  A    between atoms: C3_4  and  O2_5 
REMARK    3  A    between atoms: C5_7  and  O3_8 
REMARK    4  A    between atoms: O3_8  and  C6_9 
REMARK    5  A    between atoms: C6_9  and  N1_10 
REMARK    6  A    between atoms: N1_10  and  C7_11 
REMARK    7  A    between atoms: C11_17  and  O4_18 
REMARK    8  A    between atoms: C13_20  and  O5_21 
ROOT
HETATM    1  C7  UNL     1      23.624   1.592  51.756  1.00  0.00     0.139 A 
HETATM    2  N2  UNL     1      22.459   0.942  51.920  1.00  0.00    -0.224 NA
HETATM    3  C8  UNL     1      22.289  -0.198  52.585  1.00  0.00     0.235 A 
HETATM    4  N3  UNL     1      23.371  -0.766  53.149  1.00  0.00    -0.241 NA
HETATM    5  C9  UNL     1      24.588  -0.201  53.048  1.00  0.00     0.075 A 
HETATM    6  C10 UNL     1      25.725  -0.764  53.620  1.00  0.00     0.072 A 
HETATM    7  C11 UNL     1      26.942  -0.138  53.481  1.00  0.00     0.103 A 
HETATM    8  C13 UNL     1      27.078   1.052  52.780  1.00  0.00     0.102 A 
HETATM    9  C15 UNL     1      25.930   1.577  52.228  1.00  0.00     0.057 A 
HETATM   10  C16 UNL     1      24.703   0.979  52.347  1.00  0.00     0.041 A 
ENDROOT
BRANCH   1  11
HETATM   11  N1  UNL     1      23.657   2.811  51.014  1.00  0.00    -0.353 N 
HETATM   12  H10 UNL     1      24.452   3.127  50.424  1.00  0.00     0.163 HD
BRANCH  11  13
HETATM   13  C6  UNL     1      22.499   3.695  51.074  1.00  0.00     0.293 C 
BRANCH  13  14
HETATM   14  O3  UNL     1      22.945   4.929  51.532  1.00  0.00    -0.356 OA
BRANCH  14  15
HETATM   15  C5  UNL     1      23.388   5.758  50.533  1.00  0.00     0.212 A 
HETATM   16  C3  UNL     1      24.831   5.965  50.454  1.00  0.00     0.112 A 
HETATM   17  C2  UNL     1      25.142   7.252  50.438  1.00  0.00     0.100 A 
HETATM   18  C19 UNL     1      23.868   7.973  50.510  1.00  0.00     0.045 A 
HETATM   19  C17 UNL     1      22.832   7.129  50.565  1.00  0.00    -0.046 A 
HETATM   20  C18 UNL     1      21.398   7.508  50.645  1.00  0.00     0.046 C 
BRANCH  16  21
HETATM   21  O2  UNL     1      25.621   4.837  50.408  1.00  0.00    -0.354 OA
HETATM   22  C4  UNL     1      26.339   4.585  49.201  1.00  0.00     0.209 C 
ENDBRANCH  16  21
BRANCH  17  23
HETATM   23  O1  UNL     1      26.361   7.915  50.372  1.00  0.00    -0.353 OA
HETATM   24  C1  UNL     1      26.977   8.255  49.145  1.00  0.00     0.210 C 
ENDBRANCH  17  23
ENDBRANCH  14  15
ENDBRANCH  13  14
ENDBRANCH  11  13
ENDBRANCH   1  11
BRANCH   8  25
HETATM   25  O5  UNL     1      28.367   1.515  52.755  1.00  0.00    -0.353 OA
HETATM   26  C14 UNL     1      28.797   2.510  53.637  1.00  0.00     0.210 C 
ENDBRANCH   8  25
BRANCH   7  27
HETATM   27  O4  UNL     1      27.987  -0.791  54.091  1.00  0.00    -0.353 OA
HETATM   28  C12 UNL     1      29.023  -1.414  53.384  1.00  0.00     0.210 C 
ENDBRANCH   7  27
TORSDOF 8
ENDMDL
MODEL 5
REMARK VINA RESULT:      -6.9      3.184      6.896
REMARK  8 active torsions:
REMARK  status: ('A' for Active; 'I' for Inactive)
REMARK    1  A    between atoms: O1_2  and  C2_3 
REMARK    2  A    between atoms: C3_4  and  O2_5 
REMARK    3  A    between atoms: C5_7  and  O3_8 
REMARK    4  A    between atoms: O3_8  and  C6_9 
REMARK    5  A    between atoms: C6_9  and  N1_10 
REMARK    6  A    between atoms: N1_10  and  C7_11 
REMARK    7  A    between atoms: C11_17  and  O4_18 
REMARK    8  A    between atoms: C13_20  and  O5_21 
ROOT
HETATM    1  C7  UNL     1      26.045   1.719  52.815  1.00  0.00     0.139 A 
HETATM    2  N2  UNL     1      27.054   1.254  53.572  1.00  0.00    -0.224 NA
HETATM    3  C8  UNL     1      26.991   0.216  54.403  1.00  0.00     0.235 A 
HETATM    4  N3  UNL     1      25.819  -0.438  54.507  1.00  0.00    -0.241 NA
HETATM    5  C9  UNL     1      24.742  -0.059  53.795  1.00  0.00     0.075 A 
HETATM    6  C10 UNL     1      23.519  -0.715  53.880  1.00  0.00     0.072 A 
HETATM    7  C11 UNL     1      22.454  -0.278  53.126  1.00  0.00     0.103 A 
HETATM    8  C13 UNL     1      22.560   0.809  52.269  1.00  0.00     0.102 A 
HETATM    9  C15 UNL     1      23.788   1.432  52.213  1.00  0.00     0.057 A 
HETATM   10  C16 UNL     1      24.867   1.023  52.950  1.00  0.00     0.041 A 
ENDROOT
BRANCH   1  11
HETATM   11  N1  UNL     1      26.258   2.847  51.967  1.00  0.00    -0.353 N 
HETATM   12  H10 UNL     1      26.070   3.835  52.232  1.00  0.00     0.163 HD
BRANCH  11  13
HETATM   13  C6  UNL     1      26.775   2.621  50.623  1.00  0.00     0.293 C 
BRANCH  13  14
HETATM   14  O3  UNL     1      25.919   3.265  49.737  1.00  0.00    -0.356 OA
BRANCH  14  15
HETATM   15  C5  UNL     1      25.825   4.617  49.950  1.00  0.00     0.212 A 
HETATM   16  C3  UNL     1      24.475   5.171  50.017  1.00  0.00     0.112 A 
HETATM   17  C2  UNL     1      24.322   6.193  49.189  1.00  0.00     0.100 A 
HETATM   18  C19 UNL     1      25.613   6.360  48.517  1.00  0.00     0.045 A 
HETATM   19  C17 UNL     1      26.505   5.458  48.940  1.00  0.00    -0.046 A 
HETATM   20  C18 UNL     1      27.911   5.333  48.476  1.00  0.00     0.046 C 
BRANCH  16  21
HETATM   21  O2  UNL     1      23.599   4.572  50.896  1.00  0.00    -0.354 OA
HETATM   22  C4  UNL     1      23.464   5.157  52.191  1.00  0.00     0.209 C 
ENDBRANCH  16  21
BRANCH  17  23
HETATM   23  O1  UNL     1      23.237   7.015  48.915  1.00  0.00    -0.353 OA
HETATM   24  C1  UNL     1      23.382   8.306  48.355  1.00  0.00     0.210 C 
ENDBRANCH  17  23
ENDBRANCH  14  15
ENDBRANCH  13  14
ENDBRANCH  11  13
ENDBRANCH   1  11
BRANCH   8  25
HETATM   25  O5  UNL     1      21.393   1.085  51.609  1.00  0.00    -0.353 OA
HETATM   26  C14 UNL     1      21.234   0.771  50.256  1.00  0.00     0.210 C 
ENDBRANCH   8  25
BRANCH   7  27
HETATM   27  O4  UNL     1      21.302  -1.008  53.299  1.00  0.00    -0.353 OA
HETATM   28  C12 UNL     1      21.036  -1.768  54.444  1.00  0.00     0.210 C 
ENDBRANCH   7  27
TORSDOF 8
ENDMDL
MODEL 6
REMARK VINA RESULT:      -6.8      4.738      8.304
REMARK  8 active torsions:
REMARK  status: ('A' for Active; 'I' for Inactive)
REMARK    1  A    between atoms: O1_2  and  C2_3 
REMARK    2  A    between atoms: C3_4  and  O2_5 
REMARK    3  A    between atoms: C5_7  and  O3_8 
REMARK    4  A    between atoms: O3_8  and  C6_9 
REMARK    5  A    between atoms: C6_9  and  N1_10 
REMARK    6  A    between atoms: N1_10  and  C7_11 
REMARK    7  A    between atoms: C11_17  and  O4_18 
REMARK    8  A    between atoms: C13_20  and  O5_21 
ROOT
HETATM    1  C7  UNL     1      26.371   5.027  48.929  1.00  0.00     0.139 A 
HETATM    2  N2  UNL     1      25.201   5.689  48.922  1.00  0.00    -0.224 NA
HETATM    3  C8  UNL     1      25.021   6.952  48.540  1.00  0.00     0.235 A 
HETATM    4  N3  UNL     1      26.097   7.642  48.120  1.00  0.00    -0.241 NA
HETATM    5  C9  UNL     1      27.319   7.078  48.085  1.00  0.00     0.075 A 
HETATM    6  C10 UNL     1      28.449   7.766  47.656  1.00  0.00     0.072 A 
HETATM    7  C11 UNL     1      29.671   7.134  47.644  1.00  0.00     0.103 A 
HETATM    8  C13 UNL     1      29.817   5.815  48.050  1.00  0.00     0.102 A 
HETATM    9  C15 UNL     1      28.674   5.168  48.468  1.00  0.00     0.057 A 
HETATM   10  C16 UNL     1      27.443   5.768  48.492  1.00  0.00     0.041 A 
ENDROOT
BRANCH   1  11
HETATM   11  N1  UNL     1      26.414   3.670  49.368  1.00  0.00    -0.353 N 
HETATM   12  H10 UNL     1      26.520   2.846  48.743  1.00  0.00     0.163 HD
BRANCH  11  13
HETATM   13  C6  UNL     1      26.303   3.395  50.795  1.00  0.00     0.293 C 
BRANCH  13  14
HETATM   14  O3  UNL     1      26.730   2.088  50.998  1.00  0.00    -0.356 OA
BRANCH  14  15
HETATM   15  C5  UNL     1      26.559   1.650  52.287  1.00  0.00     0.212 A 
HETATM   16  C3  UNL     1      27.718   1.027  52.920  1.00  0.00     0.112 A 
HETATM   17  C2  UNL     1      27.425  -0.162  53.423  1.00  0.00     0.100 A 
HETATM   18  C19 UNL     1      26.005  -0.380  53.130  1.00  0.00     0.045 A 
HETATM   19  C17 UNL     1      25.477   0.657  52.471  1.00  0.00    -0.046 A 
HETATM   20  C18 UNL     1      24.069   0.778  52.015  1.00  0.00     0.046 C 
BRANCH  16  21
HETATM   21  O2  UNL     1      28.897   1.741  52.900  1.00  0.00    -0.354 OA
HETATM   22  C4  UNL     1      29.401   2.214  54.149  1.00  0.00     0.209 C 
ENDBRANCH  16  21
BRANCH  17  23
HETATM   23  O1  UNL     1      28.190  -1.102  54.102  1.00  0.00    -0.353 OA
HETATM   24  C1  UNL     1      29.329  -1.714  53.528  1.00  0.00     0.210 C 
ENDBRANCH  17  23
ENDBRANCH  14  15
ENDBRANCH  13  14
ENDBRANCH  11  13
ENDBRANCH   1  11
BRANCH   8  25
HETATM   25  O5  UNL     1      31.109   5.368  47.963  1.00  0.00    -0.353 OA
HETATM   26  C14 UNL     1      31.447   4.277  47.159  1.00  0.00     0.210 C 
ENDBRANCH   8  25
BRANCH   7  27
HETATM   27  O4  UNL     1      30.709   7.918  47.199  1.00  0.00    -0.353 OA
HETATM   28  C12 UNL     1      30.524   9.101  46.474  1.00  0.00     0.210 C 
ENDBRANCH   7  27
TORSDOF 8
ENDMDL
MODEL 7
REMARK VINA RESULT:      -6.8      2.080      4.146
REMARK  8 active torsions:
REMARK  status: ('A' for Active; 'I' for Inactive)
REMARK    1  A    between atoms: O1_2  and  C2_3 
REMARK    2  A    between atoms: C3_4  and  O2_5 
REMARK    3  A    between atoms: C5_7  and  O3_8 
REMARK    4  A    between atoms: O3_8  and  C6_9 
REMARK    5  A    between atoms: C6_9  and  N1_10 
REMARK    6  A    between atoms: N1_10  and  C7_11 
REMARK    7  A    between atoms: C11_17  and  O4_18 
REMARK    8  A    between atoms: C13_20  and  O5_21 
ROOT
HETATM    1  C7  UNL     1      23.521  -0.341  53.693  1.00  0.00     0.139 A 
HETATM    2  N2  UNL     1      23.201  -1.080  54.770  1.00  0.00    -0.224 NA
HETATM    3  C8  UNL     1      24.037  -1.452  55.737  1.00  0.00     0.235 A 
HETATM    4  N3  UNL     1      25.322  -1.062  55.643  1.00  0.00    -0.241 NA
HETATM    5  C9  UNL     1      25.753  -0.318  54.607  1.00  0.00     0.075 A 
HETATM    6  C10 UNL     1      27.074   0.100  54.484  1.00  0.00     0.072 A 
HETATM    7  C11 UNL     1      27.452   0.858  53.400  1.00  0.00     0.103 A 
HETATM    8  C13 UNL     1      26.549   1.226  52.411  1.00  0.00     0.102 A 
HETATM    9  C15 UNL     1      25.251   0.792  52.570  1.00  0.00     0.057 A 
HETATM   10  C16 UNL     1      24.842   0.036  53.637  1.00  0.00     0.041 A 
ENDROOT
BRANCH   1  11
HETATM   11  N1  UNL     1      22.516  -0.018  52.732  1.00  0.00    -0.353 N 
HETATM   12  H10 UNL     1      22.703   0.315  51.765  1.00  0.00     0.163 HD
BRANCH  11  13
HETATM   13  C6  UNL     1      21.116  -0.158  53.114  1.00  0.00     0.293 C 
BRANCH  13  14
HETATM   14  O3  UNL     1      20.406   0.836  52.451  1.00  0.00    -0.356 OA
BRANCH  14  15
HETATM   15  C5  UNL     1      20.095   0.517  51.154  1.00  0.00     0.212 A 
HETATM   16  C3  UNL     1      20.610   1.414  50.123  1.00  0.00     0.112 A 
HETATM   17  C2  UNL     1      19.651   1.830  49.310  1.00  0.00     0.100 A 
HETATM   18  C19 UNL     1      18.418   1.199  49.791  1.00  0.00     0.045 A 
HETATM   19  C17 UNL     1      18.648   0.431  50.861  1.00  0.00    -0.046 A 
HETATM   20  C18 UNL     1      17.632  -0.356  51.607  1.00  0.00     0.046 C 
BRANCH  16  21
HETATM   21  O2  UNL     1      21.962   1.682  50.149  1.00  0.00    -0.354 OA
HETATM   22  C4  UNL     1      22.368   2.970  50.611  1.00  0.00     0.209 C 
ENDBRANCH  16  21
BRANCH  17  23
HETATM   23  O1  UNL     1      19.665   2.675  48.208  1.00  0.00    -0.353 OA
HETATM   24  C1  UNL     1      19.724   4.083  48.328  1.00  0.00     0.210 C 
ENDBRANCH  17  23
ENDBRANCH  14  15
ENDBRANCH  13  14
ENDBRANCH  11  13
ENDBRANCH   1  11
BRANCH   8  25
HETATM   25  O5  UNL     1      27.119   1.978  51.420  1.00  0.00    -0.353 OA
HETATM   26  C14 UNL     1      26.363   2.886  50.673  1.00  0.00     0.210 C 
ENDBRANCH   8  25
BRANCH   7  27
HETATM   27  O4  UNL     1      28.782   1.208  53.391  1.00  0.00    -0.353 OA
HETATM   28  C12 UNL     1      29.819   0.301  53.639  1.00  0.00     0.210 C 
ENDBRANCH   7  27
TORSDOF 8
ENDMDL
MODEL 8
REMARK VINA RESULT:      -6.8      2.921      5.174
REMARK  8 active torsions:
REMARK  status: ('A' for Active; 'I' for Inactive)
REMARK    1  A    between atoms: O1_2  and  C2_3 
REMARK    2  A    between atoms: C3_4  and  O2_5 
REMARK    3  A    between atoms: C5_7  and  O3_8 
REMARK    4  A    between atoms: O3_8  and  C6_9 
REMARK    5  A    between atoms: C6_9  and  N1_10 
REMARK    6  A    between atoms: N1_10  and  C7_11 
REMARK    7  A    between atoms: C11_17  and  O4_18 
REMARK    8  A    between atoms: C13_20  and  O5_21 
ROOT
HETATM    1  C7  UNL     1      22.606   0.530  53.386  1.00  0.00     0.139 A 
HETATM    2  N2  UNL     1      22.039  -0.293  54.284  1.00  0.00    -0.224 NA
HETATM    3  C8  UNL     1      22.682  -1.169  55.054  1.00  0.00     0.235 A 
HETATM    4  N3  UNL     1      24.020  -1.249  54.935  1.00  0.00    -0.241 NA
HETATM    5  C9  UNL     1      24.692  -0.471  54.066  1.00  0.00     0.075 A 
HETATM    6  C10 UNL     1      26.074  -0.532  53.920  1.00  0.00     0.072 A 
HETATM    7  C11 UNL     1      26.703   0.290  53.013  1.00  0.00     0.103 A 
HETATM    8  C13 UNL     1      25.997   1.191  52.228  1.00  0.00     0.102 A 
HETATM    9  C15 UNL     1      24.630   1.221  52.402  1.00  0.00     0.057 A 
HETATM   10  C16 UNL     1      23.973   0.416  53.295  1.00  0.00     0.041 A 
ENDROOT
BRANCH   1  11
HETATM   11  N1  UNL     1      21.789   1.420  52.626  1.00  0.00    -0.353 N 
HETATM   12  H10 UNL     1      21.437   2.338  52.962  1.00  0.00     0.163 HD
BRANCH  11  13
HETATM   13  C6  UNL     1      21.404   1.031  51.274  1.00  0.00     0.293 C 
BRANCH  13  14
HETATM   14  O3  UNL     1      21.206   2.199  50.549  1.00  0.00    -0.356 OA
BRANCH  14  15
HETATM   15  C5  UNL     1      22.371   2.838  50.209  1.00  0.00     0.212 A 
HETATM   16  C3  UNL     1      22.560   4.179  50.756  1.00  0.00     0.112 A 
HETATM   17  C2  UNL     1      22.847   5.060  49.810  1.00  0.00     0.100 A 
HETATM   18  C19 UNL     1      22.860   4.307  48.553  1.00  0.00     0.045 A 
HETATM   19  C17 UNL     1      22.587   3.013  48.755  1.00  0.00    -0.046 A 
HETATM   20  C18 UNL     1      22.516   1.960  47.710  1.00  0.00     0.046 C 
BRANCH  16  21
HETATM   21  O2  UNL     1      22.417   4.321  52.119  1.00  0.00    -0.354 OA
HETATM   22  C4  UNL     1      23.572   4.703  52.866  1.00  0.00     0.209 C 
ENDBRANCH  16  21
BRANCH  17  23
HETATM   23  O1  UNL     1      23.104   6.424  49.855  1.00  0.00    -0.353 OA
HETATM   24  C1  UNL     1      22.173   7.358  50.368  1.00  0.00     0.210 C 
ENDBRANCH  17  23
ENDBRANCH  14  15
ENDBRANCH  13  14
ENDBRANCH  11  13
ENDBRANCH   1  11
BRANCH   8  25
HETATM   25  O5  UNL     1      26.801   1.917  51.391  1.00  0.00    -0.353 OA
HETATM   26  C14 UNL     1      26.280   2.931  50.584  1.00  0.00     0.210 C 
ENDBRANCH   8  25
BRANCH   7  27
HETATM   27  O4  UNL     1      28.068   0.136  52.963  1.00  0.00    -0.353 OA
HETATM   28  C12 UNL     1      28.930   0.566  53.979  1.00  0.00     0.210 C 
ENDBRANCH   7  27
TORSDOF 8
ENDMDL
MODEL 9
REMARK VINA RESULT:      -6.7      1.867      7.072
REMARK  8 active torsions:
REMARK  status: ('A' for Active; 'I' for Inactive)
REMARK    1  A    between atoms: O1_2  and  C2_3 
REMARK    2  A    between atoms: C3_4  and  O2_5 
REMARK    3  A    between atoms: C5_7  and  O3_8 
REMARK    4  A    between atoms: O3_8  and  C6_9 
REMARK    5  A    between atoms: C6_9  and  N1_10 
REMARK    6  A    between atoms: N1_10  and  C7_11 
REMARK    7  A    between atoms: C11_17  and  O4_18 
REMARK    8  A    between atoms: C13_20  and  O5_21 
ROOT
HETATM    1  C7  UNL     1      24.044   2.913  51.419  1.00  0.00     0.139 A 
HETATM    2  N2  UNL     1      24.420   3.283  50.182  1.00  0.00    -0.224 NA
HETATM    3  C8  UNL     1      23.725   3.087  49.064  1.00  0.00     0.235 A 
HETATM    4  N3  UNL     1      22.536   2.463  49.163  1.00  0.00    -0.241 NA
HETATM    5  C9  UNL     1      22.061   2.049  50.352  1.00  0.00     0.075 A 
HETATM    6  C10 UNL     1      20.837   1.402  50.486  1.00  0.00     0.072 A 
HETATM    7  C11 UNL     1      20.406   1.003  51.730  1.00  0.00     0.103 A 
HETATM    8  C13 UNL     1      21.161   1.227  52.874  1.00  0.00     0.102 A 
HETATM    9  C15 UNL     1      22.368   1.871  52.699  1.00  0.00     0.057 A 
HETATM   10  C16 UNL     1      22.825   2.280  51.475  1.00  0.00     0.041 A 
ENDROOT
BRANCH   1  11
HETATM   11  N1  UNL     1      24.896   3.190  52.530  1.00  0.00    -0.353 N 
HETATM   12  H10 UNL     1      24.811   4.018  53.153  1.00  0.00     0.163 HD
BRANCH  11  13
HETATM   13  C6  UNL     1      25.973   2.256  52.832  1.00  0.00     0.293 C 
BRANCH  13  14
HETATM   14  O3  UNL     1      25.784   1.815  54.137  1.00  0.00    -0.356 OA
BRANCH  14  15
HETATM   15  C5  UNL     1      26.297   0.565  54.373  1.00  0.00     0.212 A 
HETATM   16  C3  UNL     1      27.746   0.424  54.255  1.00  0.00     0.112 A 
HETATM   17  C2  UNL     1      28.079  -0.568  53.444  1.00  0.00     0.100 A 
HETATM   18  C19 UNL     1      26.815  -1.144  52.977  1.00  0.00     0.045 A 
HETATM   19  C17 UNL     1      25.763  -0.505  53.502  1.00  0.00    -0.046 A 
HETATM   20  C18 UNL     1      24.334  -0.819  53.249  1.00  0.00     0.046 C 
BRANCH  16  21
HETATM   21  O2  UNL     1      28.519   1.309  54.975  1.00  0.00    -0.354 OA
HETATM   22  C4  UNL     1      29.407   2.153  54.245  1.00  0.00     0.209 C 
ENDBRANCH  16  21
BRANCH  17  23
HETATM   23  O1  UNL     1      29.310  -1.065  53.036  1.00  0.00    -0.353 OA
HETATM   24  C1  UNL     1      30.242  -1.628  53.939  1.00  0.00     0.210 C 
ENDBRANCH  17  23
ENDBRANCH  14  15
ENDBRANCH  13  14
ENDBRANCH  11  13
ENDBRANCH   1  11
BRANCH   8  25
HETATM   25  O5  UNL     1      20.562   0.757  54.011  1.00  0.00    -0.353 OA
HETATM   26  C14 UNL     1      21.057  -0.364  54.682  1.00  0.00     0.210 C 
ENDBRANCH   8  25
BRANCH   7  27
HETATM   27  O4  UNL     1      19.183   0.375  51.731  1.00  0.00    -0.353 OA
HETATM   28  C12 UNL     1      18.331   0.349  50.621  1.00  0.00     0.210 C 
ENDBRANCH   7  27
TORSDOF 8
ENDMDL
