MODEL 1
REMARK VINA RESULT:      -8.5      0.000      0.000
REMARK  3 active torsions:
REMARK  status: ('A' for Active; 'I' for Inactive)
REMARK    1  A    between atoms: O1_1  and  C1_2 
REMARK    2  A    between atoms: C8_10  and  C9_11 
REMARK    3  A    between atoms: N2_19  and  C15_20 
ROOT
HETATM    1  C1  UNL     1      23.469   2.926  50.422  1.00  0.00     0.193 A 
HETATM    2  C2  UNL     1      22.925   4.304  50.490  1.00  0.00     0.020 A 
HETATM    3 BR1  UNL     1      22.210   4.818  48.788  1.00  0.00    -0.053 Br
HETATM    4  C3  UNL     1      22.844   5.202  51.455  1.00  0.00     0.017 A 
HETATM    5  C4  UNL     1      23.391   4.795  52.740  1.00  0.00    -0.000 A 
HETATM    6  C5  UNL     1      23.898   3.578  52.776  1.00  0.00     0.010 A 
HETATM    7  C6  UNL     1      24.032   2.504  51.752  1.00  0.00     0.112 A 
HETATM    8  C7  UNL     1      25.510   2.199  51.669  1.00  0.00     0.102 C 
HETATM    9  C8  UNL     1      25.641   0.955  52.458  1.00  0.00     0.068 C 
HETATM   10  N1  UNL     1      24.492   0.466  52.775  1.00  0.00    -0.173 NA
HETATM   11  N2  UNL     1      23.485   1.290  52.257  1.00  0.00    -0.229 N 
ENDROOT
BRANCH   1  12
HETATM   12  O1  UNL     1      24.503   2.980  49.457  1.00  0.00    -0.387 OA
HETATM   13  H1  UNL     1      25.364   3.223  49.848  1.00  0.00     0.210 HD
ENDBRANCH   1  12
BRANCH  11  14
HETATM   14  C15 UNL     1      22.147   0.772  52.338  1.00  0.00     0.190 A 
HETATM   15  N3  UNL     1      21.159   0.679  51.699  1.00  0.00    -0.235 NA
HETATM   16  C16 UNL     1      20.047   0.095  52.125  1.00  0.00     0.127 A 
HETATM   17  C17 UNL     1      19.980  -0.473  53.419  1.00  0.00     0.072 A 
HETATM   18  S1  UNL     1      21.732  -0.072  53.985  1.00  0.00    -0.061 SA
ENDBRANCH  11  14
BRANCH   9  19
HETATM   19  C9  UNL     1      26.935   0.353  52.834  1.00  0.00    -0.010 A 
HETATM   20  C10 UNL     1      27.946   1.157  53.259  1.00  0.00     0.016 A 
HETATM   21  C11 UNL     1      29.195   0.667  53.632  1.00  0.00     0.043 A 
HETATM   22  C12 UNL     1      29.396  -0.696  53.561  1.00  0.00     0.116 A 
HETATM   23  F1  UNL     1      30.590  -1.240  53.910  1.00  0.00    -0.206 F 
HETATM   24  C13 UNL     1      28.384  -1.504  53.135  1.00  0.00     0.043 A 
HETATM   25  C14 UNL     1      27.151  -0.989  52.770  1.00  0.00     0.016 A 
ENDBRANCH   9  19
TORSDOF 3
ENDMDL
MODEL 2
REMARK VINA RESULT:      -8.1      4.385      6.029
REMARK  3 active torsions:
REMARK  status: ('A' for Active; 'I' for Inactive)
REMARK    1  A    between atoms: O1_1  and  C1_2 
REMARK    2  A    between atoms: C8_10  and  C9_11 
REMARK    3  A    between atoms: N2_19  and  C15_20 
ROOT
HETATM    1  C1  UNL     1      23.579   2.074  50.307  1.00  0.00     0.193 A 
HETATM    2  C2  UNL     1      22.385   2.103  51.185  1.00  0.00     0.020 A 
HETATM    3 BR1  UNL     1      21.142   0.742  50.659  1.00  0.00    -0.053 Br
HETATM    4  C3  UNL     1      22.030   2.853  52.213  1.00  0.00     0.017 A 
HETATM    5  C4  UNL     1      22.984   3.881  52.599  1.00  0.00    -0.000 A 
HETATM    6  C5  UNL     1      24.083   3.931  51.872  1.00  0.00     0.010 A 
HETATM    7  C6  UNL     1      24.567   3.136  50.709  1.00  0.00     0.112 A 
HETATM    8  C7  UNL     1      24.806   4.135  49.600  1.00  0.00     0.102 C 
HETATM    9  C8  UNL     1      26.273   4.314  49.619  1.00  0.00     0.068 C 
HETATM   10  N1  UNL     1      26.849   3.464  50.399  1.00  0.00    -0.173 NA
HETATM   11  N2  UNL     1      25.875   2.641  50.977  1.00  0.00    -0.229 N 
ENDROOT
BRANCH   1  12
HETATM   12  O1  UNL     1      23.091   2.339  49.005  1.00  0.00    -0.387 OA
HETATM   13  H1  UNL     1      22.833   1.525  48.531  1.00  0.00     0.210 HD
ENDBRANCH   1  12
BRANCH  11  14
HETATM   14  C15 UNL     1      26.368   1.504  51.706  1.00  0.00     0.190 A 
HETATM   15  N3  UNL     1      26.218   0.337  51.795  1.00  0.00    -0.235 NA
HETATM   16  C16 UNL     1      26.895  -0.441  52.630  1.00  0.00     0.127 A 
HETATM   17  C17 UNL     1      27.873   0.107  53.493  1.00  0.00     0.072 A 
HETATM   18  S1  UNL     1      27.720   1.911  52.971  1.00  0.00    -0.061 SA
ENDBRANCH  11  14
BRANCH   9  19
HETATM   19  C9  UNL     1      26.986   5.343  48.838  1.00  0.00    -0.010 A 
HETATM   20  C10 UNL     1      26.310   6.444  48.412  1.00  0.00     0.016 A 
HETATM   21  C11 UNL     1      26.910   7.459  47.671  1.00  0.00     0.043 A 
HETATM   22  C12 UNL     1      28.248   7.325  47.367  1.00  0.00     0.116 A 
HETATM   23  F1  UNL     1      28.895   8.279  46.648  1.00  0.00    -0.206 F 
HETATM   24  C13 UNL     1      28.929   6.223  47.793  1.00  0.00     0.043 A 
HETATM   25  C14 UNL     1      28.306   5.228  48.529  1.00  0.00     0.016 A 
ENDBRANCH   9  19
TORSDOF 3
ENDMDL
MODEL 3
REMARK VINA RESULT:      -7.9      3.613      5.023
REMARK  3 active torsions:
REMARK  status: ('A' for Active; 'I' for Inactive)
REMARK    1  A    between atoms: O1_1  and  C1_2 
REMARK    2  A    between atoms: C8_10  and  C9_11 
REMARK    3  A    between atoms: N2_19  and  C15_20 
ROOT
HETATM    1  C1  UNL     1      25.682   4.811  49.479  1.00  0.00     0.193 A 
HETATM    2  C2  UNL     1      26.010   6.251  49.609  1.00  0.00     0.020 A 
HETATM    3 BR1  UNL     1      27.513   6.691  48.504  1.00  0.00    -0.053 Br
HETATM    4  C3  UNL     1      25.489   7.241  50.310  1.00  0.00     0.017 A 
HETATM    5  C4  UNL     1      24.349   6.890  51.142  1.00  0.00    -0.000 A 
HETATM    6  C5  UNL     1      23.983   5.624  51.090  1.00  0.00     0.010 A 
HETATM    7  C6  UNL     1      24.502   4.448  50.339  1.00  0.00     0.112 A 
HETATM    8  C7  UNL     1      24.859   3.417  51.384  1.00  0.00     0.102 C 
HETATM    9  C8  UNL     1      23.717   2.479  51.337  1.00  0.00     0.068 C 
HETATM   10  N1  UNL     1      22.934   2.729  50.344  1.00  0.00    -0.173 NA
HETATM   11  N2  UNL     1      23.436   3.824  49.629  1.00  0.00    -0.229 N 
ENDROOT
BRANCH   1  12
HETATM   12  O1  UNL     1      26.835   4.123  49.930  1.00  0.00    -0.387 OA
HETATM   13  H1  UNL     1      26.649   3.549  50.698  1.00  0.00     0.210 HD
ENDBRANCH   1  12
BRANCH  11  14
HETATM   14  C15 UNL     1      22.798   4.096  48.371  1.00  0.00     0.190 A 
HETATM   15  N3  UNL     1      22.521   4.996  47.658  1.00  0.00    -0.235 NA
HETATM   16  C16 UNL     1      21.893   4.863  46.498  1.00  0.00     0.127 A 
HETATM   17  C17 UNL     1      21.506   3.585  46.029  1.00  0.00     0.072 A 
HETATM   18  S1  UNL     1      22.154   2.557  47.469  1.00  0.00    -0.061 SA
ENDBRANCH  11  14
BRANCH   9  19
HETATM   19  C9  UNL     1      23.505   1.393  52.312  1.00  0.00    -0.010 A 
HETATM   20  C10 UNL     1      22.247   1.137  52.763  1.00  0.00     0.016 A 
HETATM   21  C11 UNL     1      21.965   0.130  53.682  1.00  0.00     0.043 A 
HETATM   22  C12 UNL     1      23.018  -0.631  54.144  1.00  0.00     0.116 A 
HETATM   23  F1  UNL     1      22.812  -1.630  55.041  1.00  0.00    -0.206 F 
HETATM   24  C13 UNL     1      24.280  -0.377  53.693  1.00  0.00     0.043 A 
HETATM   25  C14 UNL     1      24.533   0.632  52.778  1.00  0.00     0.016 A 
ENDBRANCH   9  19
TORSDOF 3
ENDMDL
MODEL 4
REMARK VINA RESULT:      -7.8      3.253      6.014
REMARK  3 active torsions:
REMARK  status: ('A' for Active; 'I' for Inactive)
REMARK    1  A    between atoms: O1_1  and  C1_2 
REMARK    2  A    between atoms: C8_10  and  C9_11 
REMARK    3  A    between atoms: N2_19  and  C15_20 
ROOT
HETATM    1  C1  UNL     1      23.743   4.288  51.934  1.00  0.00     0.193 A 
HETATM    2  C2  UNL     1      24.059   5.066  50.712  1.00  0.00     0.020 A 
HETATM    3 BR1  UNL     1      24.392   6.899  51.161  1.00  0.00    -0.053 Br
HETATM    4  C3  UNL     1      24.150   4.750  49.433  1.00  0.00     0.017 A 
HETATM    5  C4  UNL     1      23.895   3.356  49.110  1.00  0.00    -0.000 A 
HETATM    6  C5  UNL     1      23.605   2.583  50.139  1.00  0.00     0.010 A 
HETATM    7  C6  UNL     1      23.481   2.844  51.600  1.00  0.00     0.112 A 
HETATM    8  C7  UNL     1      22.079   2.422  51.975  1.00  0.00     0.102 C 
HETATM    9  C8  UNL     1      22.283   1.099  52.602  1.00  0.00     0.068 C 
HETATM   10  N1  UNL     1      23.533   0.843  52.785  1.00  0.00    -0.173 NA
HETATM   11  N2  UNL     1      24.294   1.924  52.322  1.00  0.00    -0.229 N 
ENDROOT
BRANCH   1  12
HETATM   12  O1  UNL     1      22.569   4.880  52.460  1.00  0.00    -0.387 OA
HETATM   13  H1  UNL     1      22.644   5.851  52.537  1.00  0.00     0.210 HD
ENDBRANCH   1  12
BRANCH  11  14
HETATM   14  C15 UNL     1      25.693   1.891  52.648  1.00  0.00     0.190 A 
HETATM   15  N3  UNL     1      26.719   2.383  52.335  1.00  0.00    -0.235 NA
HETATM   16  C16 UNL     1      27.887   2.093  52.893  1.00  0.00     0.127 A 
HETATM   17  C17 UNL     1      27.970   1.141  53.936  1.00  0.00     0.072 A 
HETATM   18  S1  UNL     1      26.145   0.686  54.041  1.00  0.00    -0.061 SA
ENDBRANCH  11  14
BRANCH   9  19
HETATM   19  C9  UNL     1      21.184   0.185  52.970  1.00  0.00    -0.010 A 
HETATM   20  C10 UNL     1      19.968   0.333  52.378  1.00  0.00     0.016 A 
HETATM   21  C11 UNL     1      18.881  -0.487  52.671  1.00  0.00     0.043 A 
HETATM   22  C12 UNL     1      19.066  -1.488  53.601  1.00  0.00     0.116 A 
HETATM   23  F1  UNL     1      18.048  -2.324  53.932  1.00  0.00    -0.206 F 
HETATM   24  C13 UNL     1      20.284  -1.639  54.195  1.00  0.00     0.043 A 
HETATM   25  C14 UNL     1      21.348  -0.808  53.886  1.00  0.00     0.016 A 
ENDBRANCH   9  19
TORSDOF 3
ENDMDL
MODEL 5
REMARK VINA RESULT:      -7.8      2.803      4.226
REMARK  3 active torsions:
REMARK  status: ('A' for Active; 'I' for Inactive)
REMARK    1  A    between atoms: O1_1  and  C1_2 
REMARK    2  A    between atoms: C8_10  and  C9_11 
REMARK    3  A    between atoms: N2_19  and  C15_20 
ROOT
HETATM    1  C1  UNL     1      21.178   2.056  51.809  1.00  0.00     0.193 A 
HETATM    2  C2  UNL     1      20.174   1.635  50.802  1.00  0.00     0.020 A 
HETATM    3 BR1  UNL     1      18.424   1.606  51.584  1.00  0.00    -0.053 Br
HETATM    4  C3  UNL     1      20.252   1.291  49.530  1.00  0.00     0.017 A 
HETATM    5  C4  UNL     1      21.586   1.319  48.952  1.00  0.00    -0.000 A 
HETATM    6  C5  UNL     1      22.549   1.684  49.776  1.00  0.00     0.010 A 
HETATM    7  C6  UNL     1      22.559   2.086  51.210  1.00  0.00     0.112 A 
HETATM    8  C7  UNL     1      23.496   1.123  51.901  1.00  0.00     0.102 C 
HETATM    9  C8  UNL     1      24.738   1.911  52.052  1.00  0.00     0.068 C 
HETATM   10  N1  UNL     1      24.560   3.148  51.739  1.00  0.00    -0.173 NA
HETATM   11  N2  UNL     1      23.227   3.336  51.353  1.00  0.00    -0.229 N 
ENDROOT
BRANCH   1  12
HETATM   12  O1  UNL     1      21.118   1.076  52.829  1.00  0.00    -0.387 OA
HETATM   13  H1  UNL     1      20.244   1.044  53.263  1.00  0.00     0.210 HD
ENDBRANCH   1  12
BRANCH  11  14
HETATM   14  C15 UNL     1      22.811   4.701  51.179  1.00  0.00     0.190 A 
HETATM   15  N3  UNL     1      21.849   5.382  51.243  1.00  0.00    -0.235 NA
HETATM   16  C16 UNL     1      21.841   6.686  51.002  1.00  0.00     0.127 A 
HETATM   17  C17 UNL     1      23.031   7.360  50.641  1.00  0.00     0.072 A 
HETATM   18  S1  UNL     1      24.205   5.887  50.682  1.00  0.00    -0.061 SA
ENDBRANCH  11  14
BRANCH   9  19
HETATM   19  C9  UNL     1      26.021   1.343  52.506  1.00  0.00    -0.010 A 
HETATM   20  C10 UNL     1      26.255   0.012  52.347  1.00  0.00     0.016 A 
HETATM   21  C11 UNL     1      27.440  -0.599  52.749  1.00  0.00     0.043 A 
HETATM   22  C12 UNL     1      28.407   0.195  53.330  1.00  0.00     0.116 A 
HETATM   23  F1  UNL     1      29.586  -0.338  53.744  1.00  0.00    -0.206 F 
HETATM   24  C13 UNL     1      28.175   1.529  53.490  1.00  0.00     0.043 A 
HETATM   25  C14 UNL     1      26.987   2.112  53.081  1.00  0.00     0.016 A 
ENDBRANCH   9  19
TORSDOF 3
ENDMDL
MODEL 6
REMARK VINA RESULT:      -7.7      7.800      9.607
REMARK  3 active torsions:
REMARK  status: ('A' for Active; 'I' for Inactive)
REMARK    1  A    between atoms: O1_1  and  C1_2 
REMARK    2  A    between atoms: C8_10  and  C9_11 
REMARK    3  A    between atoms: N2_19  and  C15_20 
ROOT
HETATM    1  C1  UNL     1      29.626   8.950  48.874  1.00  0.00     0.193 A 
HETATM    2  C2  UNL     1      29.772  10.180  48.058  1.00  0.00     0.020 A 
HETATM    3 BR1  UNL     1      30.663  11.544  49.067  1.00  0.00    -0.053 Br
HETATM    4  C3  UNL     1      29.421  10.499  46.825  1.00  0.00     0.017 A 
HETATM    5  C4  UNL     1      28.747   9.452  46.073  1.00  0.00    -0.000 A 
HETATM    6  C5  UNL     1      28.572   8.317  46.721  1.00  0.00     0.010 A 
HETATM    7  C6  UNL     1      28.931   7.867  48.095  1.00  0.00     0.112 A 
HETATM    8  C7  UNL     1      27.631   7.451  48.743  1.00  0.00     0.102 C 
HETATM    9  C8  UNL     1      27.665   5.975  48.648  1.00  0.00     0.068 C 
HETATM   10  N1  UNL     1      28.812   5.548  48.243  1.00  0.00    -0.173 NA
HETATM   11  N2  UNL     1      29.657   6.644  48.025  1.00  0.00    -0.229 N 
ENDROOT
BRANCH   1  12
HETATM   12  O1  UNL     1      28.832   9.330  49.983  1.00  0.00    -0.387 OA
HETATM   13  H1  UNL     1      28.712   8.601  50.621  1.00  0.00     0.210 HD
ENDBRANCH   1  12
BRANCH  11  14
HETATM   14  C15 UNL     1      31.037   6.330  47.777  1.00  0.00     0.190 A 
HETATM   15  N3  UNL     1      31.811   6.236  46.891  1.00  0.00    -0.235 NA
HETATM   16  C16 UNL     1      33.087   5.909  47.046  1.00  0.00     0.127 A 
HETATM   17  C17 UNL     1      33.612   5.644  48.332  1.00  0.00     0.072 A 
HETATM   18  S1  UNL     1      32.040   5.921  49.333  1.00  0.00    -0.061 SA
ENDBRANCH  11  14
BRANCH   9  19
HETATM   19  C9  UNL     1      26.521   5.104  48.978  1.00  0.00    -0.010 A 
HETATM   20  C10 UNL     1      26.753   3.846  49.442  1.00  0.00     0.016 A 
HETATM   21  C11 UNL     1      25.728   2.964  49.775  1.00  0.00     0.043 A 
HETATM   22  C12 UNL     1      24.429   3.402  49.623  1.00  0.00     0.116 A 
HETATM   23  F1  UNL     1      23.383   2.592  49.929  1.00  0.00    -0.206 F 
HETATM   24  C13 UNL     1      24.194   4.662  49.158  1.00  0.00     0.043 A 
HETATM   25  C14 UNL     1      25.233   5.520  48.834  1.00  0.00     0.016 A 
ENDBRANCH   9  19
TORSDOF 3
ENDMDL
MODEL 7
REMARK VINA RESULT:      -7.5      3.133      4.716
REMARK  3 active torsions:
REMARK  status: ('A' for Active; 'I' for Inactive)
REMARK    1  A    between atoms: O1_1  and  C1_2 
REMARK    2  A    between atoms: C8_10  and  C9_11 
REMARK    3  A    between atoms: N2_19  and  C15_20 
ROOT
HETATM    1  C1  UNL     1      19.944   2.965  51.457  1.00  0.00     0.193 A 
HETATM    2  C2  UNL     1      18.574   2.429  51.269  1.00  0.00     0.020 A 
HETATM    3 BR1  UNL     1      17.282   3.831  51.464  1.00  0.00    -0.053 Br
HETATM    4  C3  UNL     1      18.098   1.226  51.004  1.00  0.00     0.017 A 
HETATM    5  C4  UNL     1      19.092   0.175  50.859  1.00  0.00    -0.000 A 
HETATM    6  C5  UNL     1      20.345   0.560  51.010  1.00  0.00     0.010 A 
HETATM    7  C6  UNL     1      20.973   1.878  51.304  1.00  0.00     0.112 A 
HETATM    8  C7  UNL     1      21.775   1.677  52.569  1.00  0.00     0.102 C 
HETATM    9  C8  UNL     1      23.161   1.543  52.070  1.00  0.00     0.068 C 
HETATM   10  N1  UNL     1      23.246   1.818  50.814  1.00  0.00    -0.173 NA
HETATM   11  N2  UNL     1      21.975   2.159  50.333  1.00  0.00    -0.229 N 
ENDROOT
BRANCH   1  12
HETATM   12  O1  UNL     1      19.969   3.469  52.780  1.00  0.00    -0.387 OA
HETATM   13  H1  UNL     1      20.876   3.530  53.138  1.00  0.00     0.210 HD
ENDBRANCH   1  12
BRANCH  11  14
HETATM   14  C15 UNL     1      21.934   2.699  49.002  1.00  0.00     0.190 A 
HETATM   15  N3  UNL     1      21.716   2.377  47.887  1.00  0.00    -0.235 NA
HETATM   16  C16 UNL     1      21.774   3.198  46.848  1.00  0.00     0.127 A 
HETATM   17  C17 UNL     1      22.112   4.561  47.023  1.00  0.00     0.072 A 
HETATM   18  S1  UNL     1      22.348   4.546  48.893  1.00  0.00    -0.061 SA
ENDBRANCH  11  14
BRANCH   9  19
HETATM   19  C9  UNL     1      24.302   1.140  52.914  1.00  0.00    -0.010 A 
HETATM   20  C10 UNL     1      24.338  -0.116  53.433  1.00  0.00     0.016 A 
HETATM   21  C11 UNL     1      25.379  -0.572  54.238  1.00  0.00     0.043 A 
HETATM   22  C12 UNL     1      26.411   0.303  54.508  1.00  0.00     0.116 A 
HETATM   23  F1  UNL     1      27.458  -0.077  55.285  1.00  0.00    -0.206 F 
HETATM   24  C13 UNL     1      26.378   1.563  53.988  1.00  0.00     0.043 A 
HETATM   25  C14 UNL     1      25.329   1.991  53.190  1.00  0.00     0.016 A 
ENDBRANCH   9  19
TORSDOF 3
ENDMDL
MODEL 8
REMARK VINA RESULT:      -7.4      3.905      5.555
REMARK  3 active torsions:
REMARK  status: ('A' for Active; 'I' for Inactive)
REMARK    1  A    between atoms: O1_1  and  C1_2 
REMARK    2  A    between atoms: C8_10  and  C9_11 
REMARK    3  A    between atoms: N2_19  and  C15_20 
ROOT
HETATM    1  C1  UNL     1      23.263   6.093  50.349  1.00  0.00     0.193 A 
HETATM    2  C2  UNL     1      22.227   6.511  49.374  1.00  0.00     0.020 A 
HETATM    3 BR1  UNL     1      21.404   8.147  49.940  1.00  0.00    -0.053 Br
HETATM    4  C3  UNL     1      21.784   5.994  48.242  1.00  0.00     0.017 A 
HETATM    5  C4  UNL     1      22.419   4.753  47.827  1.00  0.00    -0.000 A 
HETATM    6  C5  UNL     1      23.358   4.303  48.636  1.00  0.00     0.010 A 
HETATM    7  C6  UNL     1      23.921   4.811  49.919  1.00  0.00     0.112 A 
HETATM    8  C7  UNL     1      23.714   3.703  50.925  1.00  0.00     0.102 C 
HETATM    9  C8  UNL     1      25.050   3.074  51.013  1.00  0.00     0.068 C 
HETATM   10  N1  UNL     1      25.943   3.759  50.386  1.00  0.00    -0.173 NA
HETATM   11  N2  UNL     1      25.340   4.890  49.821  1.00  0.00    -0.229 N 
ENDROOT
BRANCH   1  12
HETATM   12  O1  UNL     1      22.569   5.892  51.567  1.00  0.00    -0.387 OA
HETATM   13  H1  UNL     1      22.783   5.033  51.980  1.00  0.00     0.210 HD
ENDBRANCH   1  12
BRANCH  11  14
HETATM   14  C15 UNL     1      26.236   5.869  49.270  1.00  0.00     0.190 A 
HETATM   15  N3  UNL     1      26.324   7.032  49.087  1.00  0.00    -0.235 NA
HETATM   16  C16 UNL     1      27.367   7.620  48.516  1.00  0.00     0.127 A 
HETATM   17  C17 UNL     1      28.475   6.858  48.078  1.00  0.00     0.072 A 
HETATM   18  S1  UNL     1      27.852   5.153  48.583  1.00  0.00    -0.061 SA
ENDBRANCH  11  14
BRANCH   9  19
HETATM   19  C9  UNL     1      25.319   1.814  51.733  1.00  0.00    -0.010 A 
HETATM   20  C10 UNL     1      26.554   1.250  51.650  1.00  0.00     0.016 A 
HETATM   21  C11 UNL     1      26.887   0.064  52.298  1.00  0.00     0.043 A 
HETATM   22  C12 UNL     1      25.910  -0.550  53.054  1.00  0.00     0.116 A 
HETATM   23  F1  UNL     1      26.169  -1.709  53.713  1.00  0.00    -0.206 F 
HETATM   24  C13 UNL     1      24.672   0.014  53.139  1.00  0.00     0.043 A 
HETATM   25  C14 UNL     1      24.367   1.195  52.483  1.00  0.00     0.016 A 
ENDBRANCH   9  19
TORSDOF 3
ENDMDL
MODEL 9
REMARK VINA RESULT:      -7.2      5.178      6.593
REMARK  3 active torsions:
REMARK  status: ('A' for Active; 'I' for Inactive)
REMARK    1  A    between atoms: O1_1  and  C1_2 
REMARK    2  A    between atoms: C8_10  and  C9_11 
REMARK    3  A    between atoms: N2_19  and  C15_20 
ROOT
HETATM    1  C1  UNL     1      23.187   3.578  51.005  1.00  0.00     0.193 A 
HETATM    2  C2  UNL     1      22.388   2.342  50.826  1.00  0.00     0.020 A 
HETATM    3 BR1  UNL     1      21.755   1.711  52.522  1.00  0.00    -0.053 Br
HETATM    4  C3  UNL     1      22.045   1.627  49.770  1.00  0.00     0.017 A 
HETATM    5  C4  UNL     1      22.532   2.120  48.492  1.00  0.00    -0.000 A 
HETATM    6  C5  UNL     1      23.256   3.221  48.552  1.00  0.00     0.010 A 
HETATM    7  C6  UNL     1      23.689   4.090  49.682  1.00  0.00     0.112 A 
HETATM    8  C7  UNL     1      25.199   4.117  49.623  1.00  0.00     0.102 C 
HETATM    9  C8  UNL     1      25.487   5.423  48.992  1.00  0.00     0.068 C 
HETATM   10  N1  UNL     1      24.426   6.147  48.883  1.00  0.00    -0.173 NA
HETATM   11  N2  UNL     1      23.336   5.442  49.410  1.00  0.00    -0.229 N 
ENDROOT
BRANCH   1  12
HETATM   12  O1  UNL     1      24.280   3.201  51.821  1.00  0.00    -0.387 OA
HETATM   13  H1  UNL     1      25.043   2.887  51.299  1.00  0.00     0.210 HD
ENDBRANCH   1  12
BRANCH  11  14
HETATM   14  C15 UNL     1      22.119   6.192  49.560  1.00  0.00     0.190 A 
HETATM   15  N3  UNL     1      20.949   6.043  49.601  1.00  0.00    -0.235 NA
HETATM   16  C16 UNL     1      20.076   7.028  49.767  1.00  0.00     0.127 A 
HETATM   17  C17 UNL     1      20.517   8.365  49.909  1.00  0.00     0.072 A 
HETATM   18  S1  UNL     1      22.371   8.059  49.778  1.00  0.00    -0.061 SA
ENDBRANCH  11  14
BRANCH   9  19
HETATM   19  C9  UNL     1      26.829   5.840  48.541  1.00  0.00    -0.010 A 
HETATM   20  C10 UNL     1      27.859   4.953  48.603  1.00  0.00     0.016 A 
HETATM   21  C11 UNL     1      29.153   5.269  48.197  1.00  0.00     0.043 A 
HETATM   22  C12 UNL     1      29.381   6.541  47.714  1.00  0.00     0.116 A 
HETATM   23  F1  UNL     1      30.620   6.914  47.302  1.00  0.00    -0.206 F 
HETATM   24  C13 UNL     1      28.350   7.432  47.651  1.00  0.00     0.043 A 
HETATM   25  C14 UNL     1      27.072   7.091  48.062  1.00  0.00     0.016 A 
ENDBRANCH   9  19
TORSDOF 3
ENDMDL
