MODEL 1
REMARK VINA RESULT:      -9.0      0.000      0.000
REMARK  6 active torsions:
REMARK  status: ('A' for Active; 'I' for Inactive)
REMARK    1  A    between atoms: O1_2  and  C2_3 
REMARK    2  A    between atoms: C6_7  and  N1_8 
REMARK    3  A    between atoms: N1_8  and  C7_9 
REMARK    4  A    between atoms: N4_19  and  C15_20 
REMARK    5  A    between atoms: C15_20  and  C16_21 
REMARK    6  A    between atoms: C16_21  and  C17_22 
ROOT
HETATM    1  C7  UNL     1      26.747   1.995  52.071  1.00  0.00     0.141 A 
HETATM    2  N2  UNL     1      27.936   2.425  52.545  1.00  0.00    -0.224 NA
HETATM    3  C8  UNL     1      28.420   1.909  53.704  1.00  0.00     0.235 A 
HETATM    4  N3  UNL     1      27.931   0.994  54.533  1.00  0.00    -0.244 NA
HETATM    5  C9  UNL     1      26.700   0.563  54.029  1.00  0.00     0.063 A 
HETATM    6  C10 UNL     1      26.086  -0.268  54.798  1.00  0.00     0.059 A 
HETATM    7  C11 UNL     1      25.352  -1.047  55.394  1.00  0.00     0.055 A 
HETATM    8  C12 UNL     1      24.837  -0.421  54.083  1.00  0.00     0.068 A 
HETATM    9  C13 UNL     1      24.961   0.431  52.911  1.00  0.00     0.023 A 
HETATM   10  C14 UNL     1      26.252   1.098  52.883  1.00  0.00     0.034 A 
HETATM   11  N4  UNL     1      23.438  -0.832  53.916  1.00  0.00    -0.398 N 
HETATM   12  C23 UNL     1      23.593  -0.798  55.376  1.00  0.00     0.126 A 
HETATM   13  O3  UNL     1      25.126  -1.032  55.294  1.00  0.00     0.000 OA
ENDROOT
BRANCH   1  14
HETATM   14  N1  UNL     1      25.819   2.223  51.045  1.00  0.00    -0.340 N 
HETATM   15  H7  UNL     1      25.120   1.553  50.682  1.00  0.00     0.167 HD
BRANCH  14  16
HETATM   16  C6  UNL     1      25.826   3.486  50.408  1.00  0.00     0.036 A 
HETATM   17  C5  UNL     1      26.857   3.765  49.489  1.00  0.00     0.029 A 
HETATM   18  C4  UNL     1      26.873   4.955  48.854  1.00  0.00     0.005 A 
HETATM   19  C3  UNL     1      25.969   5.960  49.005  1.00  0.00     0.037 A 
HETATM   20  C2  UNL     1      24.965   5.698  49.897  1.00  0.00     0.070 A 
HETATM   21  C24 UNL     1      24.870   4.474  50.608  1.00  0.00     0.066 A 
BRANCH  20  22
HETATM   22  O1  UNL     1      23.979   6.623  50.152  1.00  0.00    -0.356 OA
HETATM   23  C1  UNL     1      24.056   7.852  50.785  1.00  0.00     0.210 C 
ENDBRANCH  20  22
ENDBRANCH  14  16
ENDBRANCH   1  14
BRANCH  11  24
HETATM   24  C15 UNL     1      22.468  -1.095  52.920  1.00  0.00     0.118 C 
BRANCH  24  25
HETATM   25  C16 UNL     1      21.146  -0.438  52.938  1.00  0.00     0.024 C 
BRANCH  25  26
HETATM   26  C17 UNL     1      21.402   0.973  52.310  1.00  0.00    -0.005 C 
HETATM   27  C18 UNL     1      20.376   1.913  52.862  1.00  0.00     0.031 C 
HETATM   28  C19 UNL     1      20.168   2.988  51.810  1.00  0.00     0.168 C 
HETATM   29  O2  UNL     1      19.635   2.503  50.629  1.00  0.00    -0.391 OA
HETATM   30  C20 UNL     1      19.944   1.199  50.340  1.00  0.00     0.172 C 
HETATM   31  C21 UNL     1      21.321   0.801  50.830  1.00  0.00     0.009 C 
HETATM   32  C22 UNL     1      22.390   1.554  50.075  1.00  0.00     0.012 C 
ENDBRANCH  25  26
ENDBRANCH  24  25
ENDBRANCH  11  24
TORSDOF 6
ENDMDL
MODEL 2
REMARK VINA RESULT:      -8.9      2.093      5.798
REMARK  6 active torsions:
REMARK  status: ('A' for Active; 'I' for Inactive)
REMARK    1  A    between atoms: O1_2  and  C2_3 
REMARK    2  A    between atoms: C6_7  and  N1_8 
REMARK    3  A    between atoms: N1_8  and  C7_9 
REMARK    4  A    between atoms: N4_19  and  C15_20 
REMARK    5  A    between atoms: C15_20  and  C16_21 
REMARK    6  A    between atoms: C16_21  and  C17_22 
ROOT
HETATM    1  C7  UNL     1      24.148  -0.635  53.716  1.00  0.00     0.141 A 
HETATM    2  N2  UNL     1      24.032  -1.164  54.953  1.00  0.00    -0.224 NA
HETATM    3  C8  UNL     1      22.797  -1.393  55.469  1.00  0.00     0.235 A 
HETATM    4  N3  UNL     1      21.582  -1.192  54.970  1.00  0.00    -0.244 NA
HETATM    5  C9  UNL     1      21.722  -0.642  53.692  1.00  0.00     0.063 A 
HETATM    6  C10 UNL     1      20.604  -0.323  53.138  1.00  0.00     0.059 A 
HETATM    7  C11 UNL     1      19.655   0.054  52.462  1.00  0.00     0.055 A 
HETATM    8  C12 UNL     1      21.077   0.310  51.925  1.00  0.00     0.068 A 
HETATM    9  C13 UNL     1      22.527   0.238  51.998  1.00  0.00     0.023 A 
HETATM   10  C14 UNL     1      22.958  -0.427  53.216  1.00  0.00     0.034 A 
HETATM   11  N4  UNL     1      20.952   1.122  50.709  1.00  0.00    -0.398 N 
HETATM   12  C23 UNL     1      19.788   1.542  51.500  1.00  0.00     0.126 A 
HETATM   13  O3  UNL     1      19.742   0.202  52.283  1.00  0.00     0.000 OA
ENDROOT
BRANCH   1  14
HETATM   14  N1  UNL     1      25.101  -0.164  52.802  1.00  0.00    -0.340 N 
HETATM   15  H7  UNL     1      24.924   0.432  51.975  1.00  0.00     0.167 HD
BRANCH  14  16
HETATM   16  C6  UNL     1      26.452  -0.540  52.991  1.00  0.00     0.036 A 
HETATM   17  C5  UNL     1      26.827  -1.861  52.680  1.00  0.00     0.029 A 
HETATM   18  C4  UNL     1      28.113  -2.237  52.833  1.00  0.00     0.005 A 
HETATM   19  C3  UNL     1      29.134  -1.452  53.274  1.00  0.00     0.037 A 
HETATM   20  C2  UNL     1      28.777  -0.168  53.580  1.00  0.00     0.070 A 
HETATM   21  C24 UNL     1      27.449   0.313  53.447  1.00  0.00     0.066 A 
BRANCH  20  22
HETATM   22  O1  UNL     1      29.705   0.740  54.037  1.00  0.00    -0.356 OA
HETATM   23  C1  UNL     1      29.528   2.026  54.517  1.00  0.00     0.210 C 
ENDBRANCH  20  22
ENDBRANCH  14  16
ENDBRANCH   1  14
BRANCH  11  24
HETATM   24  C15 UNL     1      21.593   1.381  49.475  1.00  0.00     0.118 C 
BRANCH  24  25
HETATM   25  C16 UNL     1      22.042   2.738  49.109  1.00  0.00     0.024 C 
BRANCH  25  26
HETATM   26  C17 UNL     1      22.948   3.187  50.303  1.00  0.00    -0.005 C 
HETATM   27  C18 UNL     1      22.413   4.485  50.822  1.00  0.00     0.031 C 
HETATM   28  C19 UNL     1      23.593   5.226  51.427  1.00  0.00     0.168 C 
HETATM   29  O2  UNL     1      24.561   5.564  50.499  1.00  0.00    -0.391 OA
HETATM   30  C20 UNL     1      24.657   4.723  49.420  1.00  0.00     0.172 C 
HETATM   31  C21 UNL     1      24.338   3.284  49.770  1.00  0.00     0.009 C 
HETATM   32  C22 UNL     1      25.384   2.721  50.702  1.00  0.00     0.012 C 
ENDBRANCH  25  26
ENDBRANCH  24  25
ENDBRANCH  11  24
TORSDOF 6
ENDMDL
MODEL 3
REMARK VINA RESULT:      -8.8      2.095      5.440
REMARK  6 active torsions:
REMARK  status: ('A' for Active; 'I' for Inactive)
REMARK    1  A    between atoms: O1_2  and  C2_3 
REMARK    2  A    between atoms: C6_7  and  N1_8 
REMARK    3  A    between atoms: N1_8  and  C7_9 
REMARK    4  A    between atoms: N4_19  and  C15_20 
REMARK    5  A    between atoms: C15_20  and  C16_21 
REMARK    6  A    between atoms: C16_21  and  C17_22 
ROOT
HETATM    1  C7  UNL     1      24.487  -0.496  53.750  1.00  0.00     0.141 A 
HETATM    2  N2  UNL     1      24.598  -1.031  54.984  1.00  0.00    -0.224 NA
HETATM    3  C8  UNL     1      23.478  -1.408  55.652  1.00  0.00     0.235 A 
HETATM    4  N3  UNL     1      22.193  -1.358  55.318  1.00  0.00    -0.244 NA
HETATM    5  C9  UNL     1      22.097  -0.798  54.040  1.00  0.00     0.063 A 
HETATM    6  C10 UNL     1      20.886  -0.620  53.640  1.00  0.00     0.059 A 
HETATM    7  C11 UNL     1      19.818  -0.362  53.098  1.00  0.00     0.055 A 
HETATM    8  C12 UNL     1      21.116   0.063  52.385  1.00  0.00     0.068 A 
HETATM    9  C13 UNL     1      22.562   0.169  52.268  1.00  0.00     0.023 A 
HETATM   10  C14 UNL     1      23.226  -0.436  53.411  1.00  0.00     0.034 A 
HETATM   11  N4  UNL     1      20.737   0.851  51.207  1.00  0.00    -0.398 N 
HETATM   12  C23 UNL     1      19.643   1.127  52.147  1.00  0.00     0.126 A 
HETATM   13  O3  UNL     1      19.862  -0.206  52.912  1.00  0.00     0.000 OA
ENDROOT
BRANCH   1  14
HETATM   14  N1  UNL     1      25.248   0.086  52.726  1.00  0.00    -0.340 N 
HETATM   15  H7  UNL     1      24.992   0.153  51.726  1.00  0.00     0.167 HD
BRANCH  14  16
HETATM   16  C6  UNL     1      26.510   0.630  53.059  1.00  0.00     0.036 A 
HETATM   17  C5  UNL     1      26.582   1.999  53.384  1.00  0.00     0.029 A 
HETATM   18  C4  UNL     1      27.772   2.536  53.725  1.00  0.00     0.005 A 
HETATM   19  C3  UNL     1      28.962   1.879  53.793  1.00  0.00     0.037 A 
HETATM   20  C2  UNL     1      28.901   0.550  53.477  1.00  0.00     0.070 A 
HETATM   21  C24 UNL     1      27.693  -0.098  53.110  1.00  0.00     0.066 A 
BRANCH  20  22
HETATM   22  O1  UNL     1      30.026  -0.241  53.504  1.00  0.00    -0.356 OA
HETATM   23  C1  UNL     1      30.160  -1.585  53.810  1.00  0.00     0.210 C 
ENDBRANCH  20  22
ENDBRANCH  14  16
ENDBRANCH   1  14
BRANCH  11  24
HETATM   24  C15 UNL     1      21.175   1.182  49.903  1.00  0.00     0.118 C 
BRANCH  24  25
HETATM   25  C16 UNL     1      21.333   2.587  49.477  1.00  0.00     0.024 C 
BRANCH  25  26
HETATM   26  C17 UNL     1      22.446   3.159  50.417  1.00  0.00    -0.005 C 
HETATM   27  C18 UNL     1      21.899   4.383  51.082  1.00  0.00     0.031 C 
HETATM   28  C19 UNL     1      23.090   5.274  51.390  1.00  0.00     0.168 C 
HETATM   29  O2  UNL     1      23.744   5.724  50.258  1.00  0.00    -0.391 OA
HETATM   30  C20 UNL     1      23.671   4.892  49.171  1.00  0.00     0.172 C 
HETATM   31  C21 UNL     1      23.635   3.428  49.555  1.00  0.00     0.009 C 
HETATM   32  C22 UNL     1      24.942   3.012  50.184  1.00  0.00     0.012 C 
ENDBRANCH  25  26
ENDBRANCH  24  25
ENDBRANCH  11  24
TORSDOF 6
ENDMDL
MODEL 4
REMARK VINA RESULT:      -8.6      2.654      7.905
REMARK  6 active torsions:
REMARK  status: ('A' for Active; 'I' for Inactive)
REMARK    1  A    between atoms: O1_2  and  C2_3 
REMARK    2  A    between atoms: C6_7  and  N1_8 
REMARK    3  A    between atoms: N1_8  and  C7_9 
REMARK    4  A    between atoms: N4_19  and  C15_20 
REMARK    5  A    between atoms: C15_20  and  C16_21 
REMARK    6  A    between atoms: C16_21  and  C17_22 
ROOT
HETATM    1  C7  UNL     1      24.394   1.788  52.901  1.00  0.00     0.141 A 
HETATM    2  N2  UNL     1      23.430   0.899  53.220  1.00  0.00    -0.224 NA
HETATM    3  C8  UNL     1      22.455   0.617  52.318  1.00  0.00     0.235 A 
HETATM    4  N3  UNL     1      22.236   1.067  51.087  1.00  0.00    -0.244 NA
HETATM    5  C9  UNL     1      23.240   1.990  50.776  1.00  0.00     0.063 A 
HETATM    6  C10 UNL     1      23.084   2.562  49.633  1.00  0.00     0.059 A 
HETATM    7  C11 UNL     1      23.099   3.215  48.597  1.00  0.00     0.055 A 
HETATM    8  C12 UNL     1      24.175   3.513  49.659  1.00  0.00     0.068 A 
HETATM    9  C13 UNL     1      24.835   3.302  50.937  1.00  0.00     0.023 A 
HETATM   10  C14 UNL     1      24.185   2.244  51.694  1.00  0.00     0.034 A 
HETATM   11  N4  UNL     1      24.934   4.683  49.204  1.00  0.00    -0.398 N 
HETATM   12  C23 UNL     1      23.603   4.918  48.629  1.00  0.00     0.126 A 
HETATM   13  O3  UNL     1      23.254   3.405  48.628  1.00  0.00     0.000 OA
ENDROOT
BRANCH   1  14
HETATM   14  N1  UNL     1      25.506   2.451  53.438  1.00  0.00    -0.340 N 
HETATM   15  H7  UNL     1      25.546   3.433  53.760  1.00  0.00     0.167 HD
BRANCH  14  16
HETATM   16  C6  UNL     1      26.721   1.734  53.549  1.00  0.00     0.036 A 
HETATM   17  C5  UNL     1      27.917   2.465  53.687  1.00  0.00     0.029 A 
HETATM   18  C4  UNL     1      29.086   1.803  53.814  1.00  0.00     0.005 A 
HETATM   19  C3  UNL     1      29.248   0.452  53.825  1.00  0.00     0.037 A 
HETATM   20  C2  UNL     1      28.092  -0.265  53.689  1.00  0.00     0.070 A 
HETATM   21  C24 UNL     1      26.819   0.348  53.552  1.00  0.00     0.066 A 
BRANCH  20  22
HETATM   22  O1  UNL     1      28.103  -1.641  53.684  1.00  0.00    -0.356 OA
HETATM   23  C1  UNL     1      29.051  -2.519  53.186  1.00  0.00     0.210 C 
ENDBRANCH  20  22
ENDBRANCH  14  16
ENDBRANCH   1  14
BRANCH  11  24
HETATM   24  C15 UNL     1      26.217   5.275  49.281  1.00  0.00     0.118 C 
BRANCH  24  25
HETATM   25  C16 UNL     1      26.467   6.641  48.781  1.00  0.00     0.024 C 
BRANCH  25  26
HETATM   26  C17 UNL     1      27.710   6.492  47.842  1.00  0.00    -0.005 C 
HETATM   27  C18 UNL     1      28.611   5.454  48.434  1.00  0.00     0.031 C 
HETATM   28  C19 UNL     1      30.020   5.797  47.982  1.00  0.00     0.168 C 
HETATM   29  O2  UNL     1      30.472   7.009  48.473  1.00  0.00    -0.391 OA
HETATM   30  C20 UNL     1      29.497   7.942  48.717  1.00  0.00     0.172 C 
HETATM   31  C21 UNL     1      28.337   7.843  47.748  1.00  0.00     0.009 C 
HETATM   32  C22 UNL     1      28.780   8.208  46.351  1.00  0.00     0.012 C 
ENDBRANCH  25  26
ENDBRANCH  24  25
ENDBRANCH  11  24
TORSDOF 6
ENDMDL
MODEL 5
REMARK VINA RESULT:      -8.6      1.189      2.106
REMARK  6 active torsions:
REMARK  status: ('A' for Active; 'I' for Inactive)
REMARK    1  A    between atoms: O1_2  and  C2_3 
REMARK    2  A    between atoms: C6_7  and  N1_8 
REMARK    3  A    between atoms: N1_8  and  C7_9 
REMARK    4  A    between atoms: N4_19  and  C15_20 
REMARK    5  A    between atoms: C15_20  and  C16_21 
REMARK    6  A    between atoms: C16_21  and  C17_22 
ROOT
HETATM    1  C7  UNL     1      26.576   2.127  51.869  1.00  0.00     0.141 A 
HETATM    2  N2  UNL     1      27.797   2.433  52.356  1.00  0.00    -0.224 NA
HETATM    3  C8  UNL     1      28.246   1.810  53.476  1.00  0.00     0.235 A 
HETATM    4  N3  UNL     1      27.692   0.885  54.253  1.00  0.00    -0.244 NA
HETATM    5  C9  UNL     1      26.428   0.584  53.735  1.00  0.00     0.063 A 
HETATM    6  C10 UNL     1      25.756  -0.244  54.457  1.00  0.00     0.059 A 
HETATM    7  C11 UNL     1      24.966  -0.999  55.012  1.00  0.00     0.055 A 
HETATM    8  C12 UNL     1      24.494  -0.255  53.748  1.00  0.00     0.068 A 
HETATM    9  C13 UNL     1      24.678   0.657  52.630  1.00  0.00     0.023 A 
HETATM   10  C14 UNL     1      26.018   1.222  52.629  1.00  0.00     0.034 A 
HETATM   11  N4  UNL     1      23.067  -0.544  53.570  1.00  0.00    -0.398 N 
HETATM   12  C23 UNL     1      23.233  -0.613  55.028  1.00  0.00     0.126 A 
HETATM   13  O3  UNL     1      24.742  -0.960  54.915  1.00  0.00     0.000 OA
ENDROOT
BRANCH   1  14
HETATM   14  N1  UNL     1      25.664   2.490  50.869  1.00  0.00    -0.340 N 
HETATM   15  H7  UNL     1      24.884   1.916  50.504  1.00  0.00     0.167 HD
BRANCH  14  16
HETATM   16  C6  UNL     1      25.807   3.760  50.263  1.00  0.00     0.036 A 
HETATM   17  C5  UNL     1      24.846   4.749  50.549  1.00  0.00     0.029 A 
HETATM   18  C4  UNL     1      24.973   5.974  49.999  1.00  0.00     0.005 A 
HETATM   19  C3  UNL     1      25.966   6.382  49.163  1.00  0.00     0.037 A 
HETATM   20  C2  UNL     1      26.903   5.427  48.878  1.00  0.00     0.070 A 
HETATM   21  C24 UNL     1      26.849   4.114  49.414  1.00  0.00     0.066 A 
BRANCH  20  22
HETATM   22  O1  UNL     1      27.966   5.697  48.047  1.00  0.00    -0.356 OA
HETATM   23  C1  UNL     1      29.312   5.420  48.210  1.00  0.00     0.210 C 
ENDBRANCH  20  22
ENDBRANCH  14  16
ENDBRANCH   1  14
BRANCH  11  24
HETATM   24  C15 UNL     1      22.074  -0.669  52.570  1.00  0.00     0.118 C 
BRANCH  24  25
HETATM   25  C16 UNL     1      20.680  -0.248  52.811  1.00  0.00     0.024 C 
BRANCH  25  26
HETATM   26  C17 UNL     1      20.364   0.747  51.645  1.00  0.00    -0.005 C 
HETATM   27  C18 UNL     1      21.439   0.600  50.613  1.00  0.00     0.031 C 
HETATM   28  C19 UNL     1      21.544   1.941  49.907  1.00  0.00     0.168 C 
HETATM   29  O2  UNL     1      21.960   2.966  50.738  1.00  0.00    -0.391 OA
HETATM   30  C20 UNL     1      21.624   2.821  52.059  1.00  0.00     0.172 C 
HETATM   31  C21 UNL     1      20.301   2.109  52.252  1.00  0.00     0.009 C 
HETATM   32  C22 UNL     1      19.164   2.952  51.728  1.00  0.00     0.012 C 
ENDBRANCH  25  26
ENDBRANCH  24  25
ENDBRANCH  11  24
TORSDOF 6
ENDMDL
MODEL 6
REMARK VINA RESULT:      -8.5      2.439      5.922
REMARK  6 active torsions:
REMARK  status: ('A' for Active; 'I' for Inactive)
REMARK    1  A    between atoms: O1_2  and  C2_3 
REMARK    2  A    between atoms: C6_7  and  N1_8 
REMARK    3  A    between atoms: N1_8  and  C7_9 
REMARK    4  A    between atoms: N4_19  and  C15_20 
REMARK    5  A    between atoms: C15_20  and  C16_21 
REMARK    6  A    between atoms: C16_21  and  C17_22 
ROOT
HETATM    1  C7  UNL     1      20.998   1.387  50.146  1.00  0.00     0.141 A 
HETATM    2  N2  UNL     1      19.672   1.540  49.946  1.00  0.00    -0.224 NA
HETATM    3  C8  UNL     1      18.812   1.335  50.976  1.00  0.00     0.235 A 
HETATM    4  N3  UNL     1      19.020   0.992  52.243  1.00  0.00    -0.244 NA
HETATM    5  C9  UNL     1      20.397   0.834  52.431  1.00  0.00     0.063 A 
HETATM    6  C10 UNL     1      20.716   0.416  53.606  1.00  0.00     0.059 A 
HETATM    7  C11 UNL     1      21.209   0.014  54.653  1.00  0.00     0.055 A 
HETATM    8  C12 UNL     1      22.144   0.242  53.449  1.00  0.00     0.068 A 
HETATM    9  C13 UNL     1      22.427   0.629  52.077  1.00  0.00     0.023 A 
HETATM   10  C14 UNL     1      21.215   1.042  51.388  1.00  0.00     0.034 A 
HETATM   11  N4  UNL     1      23.479  -0.238  53.827  1.00  0.00    -0.398 N 
HETATM   12  C23 UNL     1      22.588  -1.105  54.610  1.00  0.00     0.126 A 
HETATM   13  O3  UNL     1      21.441  -0.059  54.606  1.00  0.00     0.000 OA
ENDROOT
BRANCH   1  14
HETATM   14  N1  UNL     1      22.226   1.400  49.470  1.00  0.00    -0.340 N 
HETATM   15  H7  UNL     1      22.768   0.578  49.154  1.00  0.00     0.167 HD
BRANCH  14  16
HETATM   16  C6  UNL     1      22.821   2.653  49.190  1.00  0.00     0.036 A 
HETATM   17  C5  UNL     1      22.065   3.608  48.481  1.00  0.00     0.029 A 
HETATM   18  C4  UNL     1      22.604   4.817  48.221  1.00  0.00     0.005 A 
HETATM   19  C3  UNL     1      23.847   5.238  48.579  1.00  0.00     0.037 A 
HETATM   20  C2  UNL     1      24.588   4.316  49.266  1.00  0.00     0.070 A 
HETATM   21  C24 UNL     1      24.100   3.022  49.585  1.00  0.00     0.066 A 
BRANCH  20  22
HETATM   22  O1  UNL     1      25.864   4.603  49.693  1.00  0.00    -0.356 OA
HETATM   23  C1  UNL     1      27.022   4.805  48.961  1.00  0.00     0.210 C 
ENDBRANCH  20  22
ENDBRANCH  14  16
ENDBRANCH   1  14
BRANCH  11  24
HETATM   24  C15 UNL     1      24.853  -0.016  53.575  1.00  0.00     0.118 C 
BRANCH  24  25
HETATM   25  C16 UNL     1      25.741  -1.108  53.130  1.00  0.00     0.024 C 
BRANCH  25  26
HETATM   26  C17 UNL     1      27.108  -0.406  52.836  1.00  0.00    -0.005 C 
HETATM   27  C18 UNL     1      28.188  -1.436  52.955  1.00  0.00     0.031 C 
HETATM   28  C19 UNL     1      29.448  -0.694  53.365  1.00  0.00     0.168 C 
HETATM   29  O2  UNL     1      29.354  -0.105  54.613  1.00  0.00    -0.391 OA
HETATM   30  C20 UNL     1      28.090   0.267  54.991  1.00  0.00     0.172 C 
HETATM   31  C21 UNL     1      27.235   0.708  53.822  1.00  0.00     0.009 C 
HETATM   32  C22 UNL     1      27.773   1.985  53.223  1.00  0.00     0.012 C 
ENDBRANCH  25  26
ENDBRANCH  24  25
ENDBRANCH  11  24
TORSDOF 6
ENDMDL
MODEL 7
REMARK VINA RESULT:      -8.4      2.648      7.747
REMARK  6 active torsions:
REMARK  status: ('A' for Active; 'I' for Inactive)
REMARK    1  A    between atoms: O1_2  and  C2_3 
REMARK    2  A    between atoms: C6_7  and  N1_8 
REMARK    3  A    between atoms: N1_8  and  C7_9 
REMARK    4  A    between atoms: N4_19  and  C15_20 
REMARK    5  A    between atoms: C15_20  and  C16_21 
REMARK    6  A    between atoms: C16_21  and  C17_22 
ROOT
HETATM    1  C7  UNL     1      20.361   2.562  51.869  1.00  0.00     0.141 A 
HETATM    2  N2  UNL     1      19.221   2.816  51.194  1.00  0.00    -0.224 NA
HETATM    3  C8  UNL     1      19.286   3.258  49.912  1.00  0.00     0.235 A 
HETATM    4  N3  UNL     1      20.322   3.511  49.119  1.00  0.00    -0.244 NA
HETATM    5  C9  UNL     1      21.494   3.246  49.836  1.00  0.00     0.063 A 
HETATM    6  C10 UNL     1      22.572   3.537  49.194  1.00  0.00     0.059 A 
HETATM    7  C11 UNL     1      23.693   3.762  48.755  1.00  0.00     0.055 A 
HETATM    8  C12 UNL     1      23.567   3.276  50.212  1.00  0.00     0.068 A 
HETATM    9  C13 UNL     1      22.816   2.836  51.376  1.00  0.00     0.023 A 
HETATM   10  C14 UNL     1      21.389   2.813  51.101  1.00  0.00     0.034 A 
HETATM   11  N4  UNL     1      24.904   3.330  50.814  1.00  0.00    -0.398 N 
HETATM   12  C23 UNL     1      24.949   4.417  49.826  1.00  0.00     0.126 A 
HETATM   13  O3  UNL     1      23.851   3.763  48.945  1.00  0.00     0.000 OA
ENDROOT
BRANCH   1  14
HETATM   14  N1  UNL     1      20.836   2.188  53.134  1.00  0.00    -0.340 N 
HETATM   15  H7  UNL     1      21.231   2.813  53.857  1.00  0.00     0.167 HD
BRANCH  14  16
HETATM   16  C6  UNL     1      20.801   0.817  53.482  1.00  0.00     0.036 A 
HETATM   17  C5  UNL     1      21.965   0.235  54.021  1.00  0.00     0.029 A 
HETATM   18  C4  UNL     1      21.949  -1.066  54.379  1.00  0.00     0.005 A 
HETATM   19  C3  UNL     1      20.893  -1.917  54.274  1.00  0.00     0.037 A 
HETATM   20  C2  UNL     1      19.760  -1.360  53.749  1.00  0.00     0.070 A 
HETATM   21  C24 UNL     1      19.686  -0.001  53.348  1.00  0.00     0.066 A 
BRANCH  20  22
HETATM   22  O1  UNL     1      18.612  -2.102  53.584  1.00  0.00    -0.356 OA
HETATM   23  C1  UNL     1      17.387  -1.735  53.055  1.00  0.00     0.210 C 
ENDBRANCH  20  22
ENDBRANCH  14  16
ENDBRANCH   1  14
BRANCH  11  24
HETATM   24  C15 UNL     1      25.705   2.709  51.801  1.00  0.00     0.118 C 
BRANCH  24  25
HETATM   25  C16 UNL     1      26.611   1.592  51.468  1.00  0.00     0.024 C 
BRANCH  25  26
HETATM   26  C17 UNL     1      26.105   0.402  52.349  1.00  0.00    -0.005 C 
HETATM   27  C18 UNL     1      25.607   0.968  53.642  1.00  0.00     0.031 C 
HETATM   28  C19 UNL     1      25.787  -0.121  54.686  1.00  0.00     0.168 C 
HETATM   29  O2  UNL     1      27.112  -0.452  54.909  1.00  0.00    -0.391 OA
HETATM   30  C20 UNL     1      27.947  -0.274  53.836  1.00  0.00     0.172 C 
HETATM   31  C21 UNL     1      27.261  -0.529  52.511  1.00  0.00     0.009 C 
HETATM   32  C22 UNL     1      26.885  -1.986  52.380  1.00  0.00     0.012 C 
ENDBRANCH  25  26
ENDBRANCH  24  25
ENDBRANCH  11  24
TORSDOF 6
ENDMDL
MODEL 8
REMARK VINA RESULT:      -8.3      1.528      5.521
REMARK  6 active torsions:
REMARK  status: ('A' for Active; 'I' for Inactive)
REMARK    1  A    between atoms: O1_2  and  C2_3 
REMARK    2  A    between atoms: C6_7  and  N1_8 
REMARK    3  A    between atoms: N1_8  and  C7_9 
REMARK    4  A    between atoms: N4_19  and  C15_20 
REMARK    5  A    between atoms: C15_20  and  C16_21 
REMARK    6  A    between atoms: C16_21  and  C17_22 
ROOT
HETATM    1  C7  UNL     1      21.650  -0.361  52.814  1.00  0.00     0.141 A 
HETATM    2  N2  UNL     1      20.901  -0.973  53.755  1.00  0.00    -0.224 NA
HETATM    3  C8  UNL     1      21.491  -1.420  54.893  1.00  0.00     0.235 A 
HETATM    4  N3  UNL     1      22.752  -1.375  55.310  1.00  0.00    -0.244 NA
HETATM    5  C9  UNL     1      23.513  -0.742  54.322  1.00  0.00     0.063 A 
HETATM    6  C10 UNL     1      24.775  -0.715  54.577  1.00  0.00     0.059 A 
HETATM    7  C11 UNL     1      25.994  -0.606  54.635  1.00  0.00     0.055 A 
HETATM    8  C12 UNL     1      25.282  -0.129  53.354  1.00  0.00     0.068 A 
HETATM    9  C13 UNL     1      24.109   0.104  52.527  1.00  0.00     0.023 A 
HETATM   10  C14 UNL     1      22.896  -0.316  53.209  1.00  0.00     0.034 A 
HETATM   11  N4  UNL     1      26.319   0.247  52.386  1.00  0.00    -0.398 N 
HETATM   12  C23 UNL     1      26.974  -0.809  53.168  1.00  0.00     0.126 A 
HETATM   13  O3  UNL     1      26.077  -0.551  54.409  1.00  0.00     0.000 OA
ENDROOT
BRANCH   1  14
HETATM   14  N1  UNL     1      21.575   0.184  51.525  1.00  0.00    -0.340 N 
HETATM   15  H7  UNL     1      22.066  -0.155  50.680  1.00  0.00     0.167 HD
BRANCH  14  16
HETATM   16  C6  UNL     1      20.767   1.329  51.330  1.00  0.00     0.036 A 
HETATM   17  C5  UNL     1      20.991   2.451  52.151  1.00  0.00     0.029 A 
HETATM   18  C4  UNL     1      20.246   3.562  51.970  1.00  0.00     0.005 A 
HETATM   19  C3  UNL     1      19.260   3.728  51.047  1.00  0.00     0.037 A 
HETATM   20  C2  UNL     1      19.035   2.641  50.247  1.00  0.00     0.070 A 
HETATM   21  C24 UNL     1      19.773   1.435  50.366  1.00  0.00     0.066 A 
BRANCH  20  22
HETATM   22  O1  UNL     1      18.069   2.665  49.268  1.00  0.00    -0.356 OA
HETATM   23  C1  UNL     1      16.936   1.884  49.120  1.00  0.00     0.210 C 
ENDBRANCH  20  22
ENDBRANCH  14  16
ENDBRANCH   1  14
BRANCH  11  24
HETATM   24  C15 UNL     1      26.559   1.116  51.296  1.00  0.00     0.118 C 
BRANCH  24  25
HETATM   25  C16 UNL     1      26.543   2.583  51.462  1.00  0.00     0.024 C 
BRANCH  25  26
HETATM   26  C17 UNL     1      25.839   3.116  50.170  1.00  0.00    -0.005 C 
HETATM   27  C18 UNL     1      26.516   4.391  49.772  1.00  0.00     0.031 C 
HETATM   28  C19 UNL     1      25.476   5.218  49.036  1.00  0.00     0.168 C 
HETATM   29  O2  UNL     1      24.410   5.593  49.833  1.00  0.00    -0.391 OA
HETATM   30  C20 UNL     1      24.117   4.733  50.860  1.00  0.00     0.172 C 
HETATM   31  C21 UNL     1      24.396   3.286  50.511  1.00  0.00     0.009 C 
HETATM   32  C22 UNL     1      23.459   2.813  49.427  1.00  0.00     0.012 C 
ENDBRANCH  25  26
ENDBRANCH  24  25
ENDBRANCH  11  24
TORSDOF 6
ENDMDL
MODEL 9
REMARK VINA RESULT:      -8.3      4.186      9.571
REMARK  6 active torsions:
REMARK  status: ('A' for Active; 'I' for Inactive)
REMARK    1  A    between atoms: O1_2  and  C2_3 
REMARK    2  A    between atoms: C6_7  and  N1_8 
REMARK    3  A    between atoms: N1_8  and  C7_9 
REMARK    4  A    between atoms: N4_19  and  C15_20 
REMARK    5  A    between atoms: C15_20  and  C16_21 
REMARK    6  A    between atoms: C16_21  and  C17_22 
ROOT
HETATM    1  C7  UNL     1      25.560   3.405  50.259  1.00  0.00     0.141 A 
HETATM    2  N2  UNL     1      24.281   3.681  50.591  1.00  0.00    -0.224 NA
HETATM    3  C8  UNL     1      23.718   4.844  50.174  1.00  0.00     0.235 A 
HETATM    4  N3  UNL     1      24.199   5.845  49.446  1.00  0.00    -0.244 NA
HETATM    5  C9  UNL     1      25.524   5.544  49.114  1.00  0.00     0.063 A 
HETATM    6  C10 UNL     1      26.126   6.487  48.476  1.00  0.00     0.059 A 
HETATM    7  C11 UNL     1      26.863   7.265  47.883  1.00  0.00     0.055 A 
HETATM    8  C12 UNL     1      27.464   5.940  48.392  1.00  0.00     0.068 A 
HETATM    9  C13 UNL     1      27.392   4.651  49.060  1.00  0.00     0.023 A 
HETATM   10  C14 UNL     1      26.047   4.387  49.546  1.00  0.00     0.034 A 
HETATM   11  N4  UNL     1      28.910   5.985  48.146  1.00  0.00    -0.398 N 
HETATM   12  C23 UNL     1      28.571   7.400  48.351  1.00  0.00     0.126 A 
HETATM   13  O3  UNL     1      27.097   7.188  47.914  1.00  0.00     0.000 OA
ENDROOT
BRANCH   1  14
HETATM   14  N1  UNL     1      26.576   2.463  50.467  1.00  0.00    -0.340 N 
HETATM   15  H7  UNL     1      27.303   2.175  49.789  1.00  0.00     0.167 HD
BRANCH  14  16
HETATM   16  C6  UNL     1      26.631   1.806  51.719  1.00  0.00     0.036 A 
HETATM   17  C5  UNL     1      27.686   2.128  52.596  1.00  0.00     0.029 A 
HETATM   18  C4  UNL     1      27.747   1.530  53.804  1.00  0.00     0.005 A 
HETATM   19  C3  UNL     1      26.871   0.612  54.293  1.00  0.00     0.037 A 
HETATM   20  C2  UNL     1      25.846   0.291  53.447  1.00  0.00     0.070 A 
HETATM   21  C24 UNL     1      25.701   0.873  52.160  1.00  0.00     0.066 A 
BRANCH  20  22
HETATM   22  O1  UNL     1      24.883  -0.623  53.807  1.00  0.00    -0.356 OA
HETATM   23  C1  UNL     1      23.521  -0.625  53.556  1.00  0.00     0.210 C 
ENDBRANCH  20  22
ENDBRANCH  14  16
ENDBRANCH   1  14
BRANCH  11  24
HETATM   24  C15 UNL     1      30.019   5.148  47.880  1.00  0.00     0.118 C 
BRANCH  24  25
HETATM   25  C16 UNL     1      31.346   5.707  47.556  1.00  0.00     0.024 C 
BRANCH  25  26
HETATM   26  C17 UNL     1      32.343   4.532  47.825  1.00  0.00    -0.005 C 
HETATM   27  C18 UNL     1      33.662   5.127  48.209  1.00  0.00     0.031 C 
HETATM   28  C19 UNL     1      34.724   4.126  47.791  1.00  0.00     0.168 C 
HETATM   29  O2  UNL     1      34.786   3.932  46.422  1.00  0.00    -0.391 OA
HETATM   30  C20 UNL     1      33.605   4.121  45.752  1.00  0.00     0.172 C 
HETATM   31  C21 UNL     1      32.395   3.722  46.572  1.00  0.00     0.009 C 
HETATM   32  C22 UNL     1      32.386   2.232  46.814  1.00  0.00     0.012 C 
ENDBRANCH  25  26
ENDBRANCH  24  25
ENDBRANCH  11  24
TORSDOF 6
ENDMDL
