MODEL 1
REMARK VINA RESULT:      -8.7      0.000      0.000
REMARK  8 active torsions:
REMARK  status: ('A' for Active; 'I' for Inactive)
REMARK    1  A    between atoms: C2_2  and  C3_3 
REMARK    2  A    between atoms: C3_3  and  C4_4 
REMARK    3  A    between atoms: C4_4  and  C5_5 
REMARK    4  A    between atoms: C5_5  and  C6_6 
REMARK    5  A    between atoms: C6_6  and  C7_7 
REMARK    6  A    between atoms: C9_9  and  C10_10 
REMARK    7  A    between atoms: N2_18  and  C16_19 
REMARK    8  A    between atoms: C17_21  and  O1_22 
ROOT
HETATM    1  C7  UNL     1      25.783   1.483  52.422  1.00  0.00     0.122 C 
HETATM    2  C8  UNL     1      24.343   1.336  51.987  1.00  0.00     0.089 C 
HETATM    3  C9  UNL     1      23.869   0.238  52.865  1.00  0.00     0.067 C 
HETATM    4  N1  UNL     1      24.878  -0.371  53.394  1.00  0.00    -0.174 NA
HETATM    5  N2  UNL     1      26.069   0.193  52.975  1.00  0.00    -0.240 N 
ENDROOT
BRANCH   3   6
HETATM    6  C10 UNL     1      22.452  -0.068  53.066  1.00  0.00    -0.010 A 
HETATM    7  C11 UNL     1      22.001  -0.889  54.078  1.00  0.00     0.016 A 
HETATM    8  C12 UNL     1      20.653  -1.168  54.254  1.00  0.00     0.043 A 
HETATM    9  C13 UNL     1      19.712  -0.614  53.393  1.00  0.00     0.116 A 
HETATM   10  F1  UNL     1      18.398  -0.854  53.522  1.00  0.00    -0.206 F 
HETATM   11  C14 UNL     1      20.118   0.210  52.370  1.00  0.00     0.043 A 
HETATM   12  C15 UNL     1      21.469   0.453  52.244  1.00  0.00     0.016 A 
ENDBRANCH   3   6
BRANCH   1  13
HETATM   13  C6  UNL     1      26.658   1.877  51.257  1.00  0.00     0.055 C 
BRANCH  13  14
HETATM   14  C5  UNL     1      26.345   3.222  50.745  1.00  0.00    -0.024 C 
BRANCH  14  15
HETATM   15  C4  UNL     1      26.210   3.463  49.430  1.00  0.00     0.004 C 
BRANCH  15  16
HETATM   16  C3  UNL     1      26.568   4.813  49.062  1.00  0.00     0.050 C 
BRANCH  16  17
HETATM   17  C2  UNL     1      27.783   5.057  48.589  1.00  0.00    -0.155 C 
HETATM   18  C1  UNL     1      28.972   5.531  48.249  1.00  0.00     0.096 C 
ENDBRANCH  16  17
ENDBRANCH  15  16
ENDBRANCH  14  15
ENDBRANCH  13  14
ENDBRANCH   1  13
BRANCH   5  19
HETATM   19  C16 UNL     1      27.254  -0.609  53.185  1.00  0.00     0.192 A 
HETATM   20  N3  UNL     1      27.607  -1.696  53.183  1.00  0.00    -0.198 NA
HETATM   21  C17 UNL     1      28.830  -2.130  53.432  1.00  0.00     0.171 A 
HETATM   22  C18 UNL     1      29.814  -1.165  53.735  1.00  0.00     0.111 A 
HETATM   23  S1  UNL     1      28.831   0.360  53.625  1.00  0.00    -0.058 SA
BRANCH  21  24
HETATM   24  O1  UNL     1      29.116  -3.510  53.391  1.00  0.00    -0.344 OA
HETATM   25  H15 UNL     1      28.780  -4.044  52.595  1.00  0.00     0.219 HD
ENDBRANCH  21  24
ENDBRANCH   5  19
TORSDOF 8
ENDMDL
MODEL 2
REMARK VINA RESULT:      -8.4      0.973      1.975
REMARK  8 active torsions:
REMARK  status: ('A' for Active; 'I' for Inactive)
REMARK    1  A    between atoms: C2_2  and  C3_3 
REMARK    2  A    between atoms: C3_3  and  C4_4 
REMARK    3  A    between atoms: C4_4  and  C5_5 
REMARK    4  A    between atoms: C5_5  and  C6_6 
REMARK    5  A    between atoms: C6_6  and  C7_7 
REMARK    6  A    between atoms: C9_9  and  C10_10 
REMARK    7  A    between atoms: N2_18  and  C16_19 
REMARK    8  A    between atoms: C17_21  and  O1_22 
ROOT
HETATM    1  C7  UNL     1      25.752   1.469  52.356  1.00  0.00     0.122 C 
HETATM    2  C8  UNL     1      24.314   1.323  51.914  1.00  0.00     0.089 C 
HETATM    3  C9  UNL     1      23.831   0.234  52.798  1.00  0.00     0.067 C 
HETATM    4  N1  UNL     1      24.835  -0.374  53.337  1.00  0.00    -0.174 NA
HETATM    5  N2  UNL     1      26.030   0.182  52.920  1.00  0.00    -0.240 N 
ENDROOT
BRANCH   3   6
HETATM    6  C10 UNL     1      22.411  -0.065  52.993  1.00  0.00    -0.010 A 
HETATM    7  C11 UNL     1      21.413   0.530  52.248  1.00  0.00     0.016 A 
HETATM    8  C12 UNL     1      20.073   0.235  52.446  1.00  0.00     0.043 A 
HETATM    9  C13 UNL     1      19.702  -0.685  53.421  1.00  0.00     0.116 A 
HETATM   10  F1  UNL     1      18.418  -1.004  53.650  1.00  0.00    -0.206 F 
HETATM   11  C14 UNL     1      20.664  -1.301  54.186  1.00  0.00     0.043 A 
HETATM   12  C15 UNL     1      21.980  -0.970  53.945  1.00  0.00     0.016 A 
ENDBRANCH   3   6
BRANCH   1  13
HETATM   13  C6  UNL     1      26.634   1.850  51.193  1.00  0.00     0.055 C 
BRANCH  13  14
HETATM   14  C5  UNL     1      26.411   3.236  50.745  1.00  0.00    -0.024 C 
BRANCH  14  15
HETATM   15  C4  UNL     1      26.039   3.519  49.484  1.00  0.00     0.004 C 
BRANCH  15  16
HETATM   16  C3  UNL     1      24.747   4.159  49.405  1.00  0.00     0.050 C 
BRANCH  16  17
HETATM   17  C2  UNL     1      23.697   3.457  49.001  1.00  0.00    -0.155 C 
HETATM   18  C1  UNL     1      22.740   2.572  48.769  1.00  0.00     0.096 C 
ENDBRANCH  16  17
ENDBRANCH  15  16
ENDBRANCH  14  15
ENDBRANCH  13  14
ENDBRANCH   1  13
BRANCH   5  19
HETATM   19  C16 UNL     1      27.211  -0.622  53.143  1.00  0.00     0.192 A 
HETATM   20  N3  UNL     1      27.561  -1.710  53.148  1.00  0.00    -0.198 NA
HETATM   21  C17 UNL     1      28.781  -2.147  53.408  1.00  0.00     0.171 A 
HETATM   22  C18 UNL     1      29.765  -1.183  53.717  1.00  0.00     0.111 A 
HETATM   23  S1  UNL     1      28.787   0.343  53.593  1.00  0.00    -0.058 SA
BRANCH  21  24
HETATM   24  O1  UNL     1      29.063  -3.528  53.374  1.00  0.00    -0.344 OA
HETATM   25  H15 UNL     1      28.511  -4.113  52.754  1.00  0.00     0.219 HD
ENDBRANCH  21  24
ENDBRANCH   5  19
TORSDOF 8
ENDMDL
MODEL 3
REMARK VINA RESULT:      -8.4      1.886      2.256
REMARK  8 active torsions:
REMARK  status: ('A' for Active; 'I' for Inactive)
REMARK    1  A    between atoms: C2_2  and  C3_3 
REMARK    2  A    between atoms: C3_3  and  C4_4 
REMARK    3  A    between atoms: C4_4  and  C5_5 
REMARK    4  A    between atoms: C5_5  and  C6_6 
REMARK    5  A    between atoms: C6_6  and  C7_7 
REMARK    6  A    between atoms: C9_9  and  C10_10 
REMARK    7  A    between atoms: N2_18  and  C16_19 
REMARK    8  A    between atoms: C17_21  and  O1_22 
ROOT
HETATM    1  C7  UNL     1      25.241   2.641  51.736  1.00  0.00     0.122 C 
HETATM    2  C8  UNL     1      23.999   1.859  51.372  1.00  0.00     0.089 C 
HETATM    3  C9  UNL     1      23.734   1.106  52.622  1.00  0.00     0.067 C 
HETATM    4  N1  UNL     1      24.778   1.132  53.382  1.00  0.00    -0.174 NA
HETATM    5  N2  UNL     1      25.801   1.850  52.791  1.00  0.00    -0.240 N 
ENDROOT
BRANCH   3   6
HETATM    6  C10 UNL     1      22.457   0.447  52.901  1.00  0.00    -0.010 A 
HETATM    7  C11 UNL     1      21.303   0.728  52.199  1.00  0.00     0.016 A 
HETATM    8  C12 UNL     1      20.101   0.094  52.476  1.00  0.00     0.043 A 
HETATM    9  C13 UNL     1      20.035  -0.856  53.490  1.00  0.00     0.116 A 
HETATM   10  F1  UNL     1      18.896  -1.496  53.796  1.00  0.00    -0.206 F 
HETATM   11  C14 UNL     1      21.161  -1.165  54.215  1.00  0.00     0.043 A 
HETATM   12  C15 UNL     1      22.328  -0.505  53.895  1.00  0.00     0.016 A 
ENDBRANCH   3   6
BRANCH   1  13
HETATM   13  C6  UNL     1      26.138   2.813  50.535  1.00  0.00     0.055 C 
BRANCH  13  14
HETATM   14  C5  UNL     1      25.593   3.769  49.555  1.00  0.00    -0.024 C 
BRANCH  14  15
HETATM   15  C4  UNL     1      26.219   4.924  49.271  1.00  0.00     0.004 C 
BRANCH  15  16
HETATM   16  C3  UNL     1      27.526   4.730  48.689  1.00  0.00     0.050 C 
BRANCH  16  17
HETATM   17  C2  UNL     1      28.235   5.787  48.315  1.00  0.00    -0.155 C 
HETATM   18  C1  UNL     1      29.151   6.699  48.028  1.00  0.00     0.096 C 
ENDBRANCH  16  17
ENDBRANCH  15  16
ENDBRANCH  14  15
ENDBRANCH  13  14
ENDBRANCH   1  13
BRANCH   5  19
HETATM   19  C16 UNL     1      27.119   1.645  53.349  1.00  0.00     0.192 A 
HETATM   20  N3  UNL     1      27.960   2.206  53.881  1.00  0.00    -0.198 NA
HETATM   21  C17 UNL     1      29.114   1.705  54.284  1.00  0.00     0.171 A 
HETATM   22  C18 UNL     1      29.351   0.336  54.037  1.00  0.00     0.111 A 
HETATM   23  S1  UNL     1      27.802  -0.125  53.205  1.00  0.00    -0.058 SA
BRANCH  21  24
HETATM   24  O1  UNL     1      30.058   2.528  54.933  1.00  0.00    -0.344 OA
HETATM   25  H15 UNL     1      29.729   3.137  55.677  1.00  0.00     0.219 HD
ENDBRANCH  21  24
ENDBRANCH   5  19
TORSDOF 8
ENDMDL
MODEL 4
REMARK VINA RESULT:      -8.2      2.665      6.356
REMARK  8 active torsions:
REMARK  status: ('A' for Active; 'I' for Inactive)
REMARK    1  A    between atoms: C2_2  and  C3_3 
REMARK    2  A    between atoms: C3_3  and  C4_4 
REMARK    3  A    between atoms: C4_4  and  C5_5 
REMARK    4  A    between atoms: C5_5  and  C6_6 
REMARK    5  A    between atoms: C6_6  and  C7_7 
REMARK    6  A    between atoms: C9_9  and  C10_10 
REMARK    7  A    between atoms: N2_18  and  C16_19 
REMARK    8  A    between atoms: C17_21  and  O1_22 
ROOT
HETATM    1  C7  UNL     1      24.771   0.398  52.415  1.00  0.00     0.122 C 
HETATM    2  C8  UNL     1      24.485   1.854  52.128  1.00  0.00     0.089 C 
HETATM    3  C9  UNL     1      25.642   2.231  51.279  1.00  0.00     0.067 C 
HETATM    4  N1  UNL     1      26.570   1.339  51.377  1.00  0.00    -0.174 NA
HETATM    5  N2  UNL     1      26.190   0.324  52.236  1.00  0.00    -0.240 N 
ENDROOT
BRANCH   3   6
HETATM    6  C10 UNL     1      25.673   3.451  50.469  1.00  0.00    -0.010 A 
HETATM    7  C11 UNL     1      24.626   4.349  50.431  1.00  0.00     0.016 A 
HETATM    8  C12 UNL     1      24.673   5.500  49.658  1.00  0.00     0.043 A 
HETATM    9  C13 UNL     1      25.799   5.774  48.890  1.00  0.00     0.116 A 
HETATM   10  F1  UNL     1      25.892   6.874  48.126  1.00  0.00    -0.206 F 
HETATM   11  C14 UNL     1      26.865   4.905  48.898  1.00  0.00     0.043 A 
HETATM   12  C15 UNL     1      26.764   3.778  49.685  1.00  0.00     0.016 A 
ENDBRANCH   3   6
BRANCH   1  13
HETATM   13  C6  UNL     1      24.290   0.020  53.795  1.00  0.00     0.055 C 
BRANCH  13  14
HETATM   14  C5  UNL     1      23.110  -0.862  53.760  1.00  0.00    -0.024 C 
BRANCH  14  15
HETATM   15  C4  UNL     1      22.224  -0.897  54.770  1.00  0.00     0.004 C 
BRANCH  15  16
HETATM   16  C3  UNL     1      21.165   0.074  54.627  1.00  0.00     0.050 C 
BRANCH  16  17
HETATM   17  C2  UNL     1      20.548   0.197  53.460  1.00  0.00    -0.155 C 
HETATM   18  C1  UNL     1      20.155   0.210  52.195  1.00  0.00     0.096 C 
ENDBRANCH  16  17
ENDBRANCH  15  16
ENDBRANCH  14  15
ENDBRANCH  13  14
ENDBRANCH   1  13
BRANCH   5  19
HETATM   19  C16 UNL     1      27.256  -0.524  52.721  1.00  0.00     0.192 A 
HETATM   20  N3  UNL     1      27.527  -1.626  52.859  1.00  0.00    -0.198 NA
HETATM   21  C17 UNL     1      28.649  -2.107  53.365  1.00  0.00     0.171 A 
HETATM   22  C18 UNL     1      29.624  -1.177  53.785  1.00  0.00     0.111 A 
HETATM   23  S1  UNL     1      28.787   0.386  53.388  1.00  0.00    -0.058 SA
BRANCH  21  24
HETATM   24  O1  UNL     1      28.839  -3.500  53.471  1.00  0.00    -0.344 OA
HETATM   25  H15 UNL     1      28.337  -3.997  54.201  1.00  0.00     0.219 HD
ENDBRANCH  21  24
ENDBRANCH   5  19
TORSDOF 8
ENDMDL
MODEL 5
REMARK VINA RESULT:      -8.1      4.420      7.843
REMARK  8 active torsions:
REMARK  status: ('A' for Active; 'I' for Inactive)
REMARK    1  A    between atoms: C2_2  and  C3_3 
REMARK    2  A    between atoms: C3_3  and  C4_4 
REMARK    3  A    between atoms: C4_4  and  C5_5 
REMARK    4  A    between atoms: C5_5  and  C6_6 
REMARK    5  A    between atoms: C6_6  and  C7_7 
REMARK    6  A    between atoms: C9_9  and  C10_10 
REMARK    7  A    between atoms: N2_18  and  C16_19 
REMARK    8  A    between atoms: C17_21  and  O1_22 
ROOT
HETATM    1  C7  UNL     1      23.532   1.639  52.675  1.00  0.00     0.122 C 
HETATM    2  C8  UNL     1      24.522   0.501  52.595  1.00  0.00     0.089 C 
HETATM    3  C9  UNL     1      25.817   1.212  52.730  1.00  0.00     0.067 C 
HETATM    4  N1  UNL     1      25.648   2.477  52.535  1.00  0.00    -0.174 NA
HETATM    5  N2  UNL     1      24.322   2.761  52.266  1.00  0.00    -0.240 N 
ENDROOT
BRANCH   3   6
HETATM    6  C10 UNL     1      27.074   0.528  53.039  1.00  0.00    -0.010 A 
HETATM    7  C11 UNL     1      27.239  -0.835  52.896  1.00  0.00     0.016 A 
HETATM    8  C12 UNL     1      28.437  -1.466  53.194  1.00  0.00     0.043 A 
HETATM    9  C13 UNL     1      29.518  -0.721  53.653  1.00  0.00     0.116 A 
HETATM   10  F1  UNL     1      30.698  -1.286  53.955  1.00  0.00    -0.206 F 
HETATM   11  C14 UNL     1      29.398   0.639  53.812  1.00  0.00     0.043 A 
HETATM   12  C15 UNL     1      28.184   1.213  53.500  1.00  0.00     0.016 A 
ENDBRANCH   3   6
BRANCH   1  13
HETATM   13  C6  UNL     1      22.329   1.365  51.806  1.00  0.00     0.055 C 
BRANCH  13  14
HETATM   14  C5  UNL     1      21.594   0.159  52.222  1.00  0.00    -0.024 C 
BRANCH  14  15
HETATM   15  C4  UNL     1      20.781   0.161  53.293  1.00  0.00     0.004 C 
BRANCH  15  16
HETATM   16  C3  UNL     1      20.844  -1.065  54.054  1.00  0.00     0.050 C 
BRANCH  16  17
HETATM   17  C2  UNL     1      21.948  -1.354  54.731  1.00  0.00    -0.155 C 
HETATM   18  C1  UNL     1      23.078  -1.377  55.420  1.00  0.00     0.096 C 
ENDBRANCH  16  17
ENDBRANCH  15  16
ENDBRANCH  14  15
ENDBRANCH  13  14
ENDBRANCH   1  13
BRANCH   5  19
HETATM   19  C16 UNL     1      24.063   4.053  51.669  1.00  0.00     0.192 A 
HETATM   20  N3  UNL     1      23.434   4.995  51.821  1.00  0.00    -0.198 NA
HETATM   21  C17 UNL     1      23.420   6.068  51.050  1.00  0.00     0.171 A 
HETATM   22  C18 UNL     1      24.262   6.067  49.917  1.00  0.00     0.111 A 
HETATM   23  S1  UNL     1      25.036   4.430  50.080  1.00  0.00    -0.058 SA
BRANCH  21  24
HETATM   24  O1  UNL     1      22.587   7.161  51.368  1.00  0.00    -0.344 OA
HETATM   25  H15 UNL     1      22.244   7.738  50.606  1.00  0.00     0.219 HD
ENDBRANCH  21  24
ENDBRANCH   5  19
TORSDOF 8
ENDMDL
MODEL 6
REMARK VINA RESULT:      -7.7      4.041      7.426
REMARK  8 active torsions:
REMARK  status: ('A' for Active; 'I' for Inactive)
REMARK    1  A    between atoms: C2_2  and  C3_3 
REMARK    2  A    between atoms: C3_3  and  C4_4 
REMARK    3  A    between atoms: C4_4  and  C5_5 
REMARK    4  A    between atoms: C5_5  and  C6_6 
REMARK    5  A    between atoms: C6_6  and  C7_7 
REMARK    6  A    between atoms: C9_9  and  C10_10 
REMARK    7  A    between atoms: N2_18  and  C16_19 
REMARK    8  A    between atoms: C17_21  and  O1_22 
ROOT
HETATM    1  C7  UNL     1      25.494   1.309  52.588  1.00  0.00     0.122 C 
HETATM    2  C8  UNL     1      26.267   1.901  51.432  1.00  0.00     0.089 C 
HETATM    3  C9  UNL     1      25.400   3.037  51.034  1.00  0.00     0.067 C 
HETATM    4  N1  UNL     1      24.228   2.902  51.559  1.00  0.00    -0.174 NA
HETATM    5  N2  UNL     1      24.158   1.749  52.320  1.00  0.00    -0.240 N 
ENDROOT
BRANCH   3   6
HETATM    6  C10 UNL     1      25.858   4.125  50.168  1.00  0.00    -0.010 A 
HETATM    7  C11 UNL     1      25.184   5.323  50.054  1.00  0.00     0.016 A 
HETATM    8  C12 UNL     1      25.632   6.344  49.228  1.00  0.00     0.043 A 
HETATM    9  C13 UNL     1      26.794   6.173  48.484  1.00  0.00     0.116 A 
HETATM   10  F1  UNL     1      27.268   7.131  47.671  1.00  0.00    -0.206 F 
HETATM   11  C14 UNL     1      27.497   4.995  48.567  1.00  0.00     0.043 A 
HETATM   12  C15 UNL     1      27.006   4.016  49.404  1.00  0.00     0.016 A 
ENDBRANCH   3   6
BRANCH   1  13
HETATM   13  C6  UNL     1      25.665  -0.190  52.636  1.00  0.00     0.055 C 
BRANCH  13  14
HETATM   14  C5  UNL     1      26.390  -0.637  53.838  1.00  0.00    -0.024 C 
BRANCH  14  15
HETATM   15  C4  UNL     1      26.768   0.225  54.797  1.00  0.00     0.004 C 
BRANCH  15  16
HETATM   16  C3  UNL     1      28.193   0.460  54.816  1.00  0.00     0.050 C 
BRANCH  16  17
HETATM   17  C2  UNL     1      28.997  -0.362  54.156  1.00  0.00    -0.155 C 
HETATM   18  C1  UNL     1      29.979  -0.989  53.528  1.00  0.00     0.096 C 
ENDBRANCH  16  17
ENDBRANCH  15  16
ENDBRANCH  14  15
ENDBRANCH  13  14
ENDBRANCH   1  13
BRANCH   5  19
HETATM   19  C16 UNL     1      22.826   1.290  52.646  1.00  0.00     0.192 A 
HETATM   20  N3  UNL     1      22.222   0.848  53.510  1.00  0.00    -0.198 NA
HETATM   21  C17 UNL     1      20.944   0.512  53.490  1.00  0.00     0.171 A 
HETATM   22  C18 UNL     1      20.238   0.710  52.284  1.00  0.00     0.111 A 
HETATM   23  S1  UNL     1      21.553   1.401  51.237  1.00  0.00    -0.058 SA
BRANCH  21  24
HETATM   24  O1  UNL     1      20.333  -0.023  54.642  1.00  0.00    -0.344 OA
HETATM   25  H15 UNL     1      19.831   0.613  55.256  1.00  0.00     0.219 HD
ENDBRANCH  21  24
ENDBRANCH   5  19
TORSDOF 8
ENDMDL
MODEL 7
REMARK VINA RESULT:      -7.7      3.909      6.350
REMARK  8 active torsions:
REMARK  status: ('A' for Active; 'I' for Inactive)
REMARK    1  A    between atoms: C2_2  and  C3_3 
REMARK    2  A    between atoms: C3_3  and  C4_4 
REMARK    3  A    between atoms: C4_4  and  C5_5 
REMARK    4  A    between atoms: C5_5  and  C6_6 
REMARK    5  A    between atoms: C6_6  and  C7_7 
REMARK    6  A    between atoms: C9_9  and  C10_10 
REMARK    7  A    between atoms: N2_18  and  C16_19 
REMARK    8  A    between atoms: C17_21  and  O1_22 
ROOT
HETATM    1  C7  UNL     1      24.440   2.083  51.312  1.00  0.00     0.122 C 
HETATM    2  C8  UNL     1      25.822   2.136  51.921  1.00  0.00     0.089 C 
HETATM    3  C9  UNL     1      25.962   0.769  52.481  1.00  0.00     0.067 C 
HETATM    4  N1  UNL     1      24.806   0.196  52.538  1.00  0.00    -0.174 NA
HETATM    5  N2  UNL     1      23.816   1.034  52.061  1.00  0.00    -0.240 N 
ENDROOT
BRANCH   3   6
HETATM    6  C10 UNL     1      27.248   0.204  52.894  1.00  0.00    -0.010 A 
HETATM    7  C11 UNL     1      27.514  -1.150  52.859  1.00  0.00     0.016 A 
HETATM    8  C12 UNL     1      28.738  -1.669  53.254  1.00  0.00     0.043 A 
HETATM    9  C13 UNL     1      29.741  -0.816  53.704  1.00  0.00     0.116 A 
HETATM   10  F1  UNL     1      30.941  -1.270  54.097  1.00  0.00    -0.206 F 
HETATM   11  C14 UNL     1      29.518   0.540  53.755  1.00  0.00     0.043 A 
HETATM   12  C15 UNL     1      28.283   0.999  53.349  1.00  0.00     0.016 A 
ENDBRANCH   3   6
BRANCH   1  13
HETATM   13  C6  UNL     1      23.757   3.424  51.417  1.00  0.00     0.055 C 
BRANCH  13  14
HETATM   14  C5  UNL     1      23.499   4.032  50.100  1.00  0.00    -0.024 C 
BRANCH  14  15
HETATM   15  C4  UNL     1      24.480   4.210  49.200  1.00  0.00     0.004 C 
BRANCH  15  16
HETATM   16  C3  UNL     1      25.433   5.221  49.594  1.00  0.00     0.050 C 
BRANCH  16  17
HETATM   17  C2  UNL     1      26.623   5.258  49.009  1.00  0.00    -0.155 C 
HETATM   18  C1  UNL     1      27.839   5.050  48.529  1.00  0.00     0.096 C 
ENDBRANCH  16  17
ENDBRANCH  15  16
ENDBRANCH  14  15
ENDBRANCH  13  14
ENDBRANCH   1  13
BRANCH   5  19
HETATM   19  C16 UNL     1      22.460   0.672  52.411  1.00  0.00     0.192 A 
HETATM   20  N3  UNL     1      21.829   0.338  53.303  1.00  0.00    -0.198 NA
HETATM   21  C17 UNL     1      20.536   0.066  53.298  1.00  0.00     0.171 A 
HETATM   22  C18 UNL     1      19.849   0.192  52.072  1.00  0.00     0.111 A 
HETATM   23  S1  UNL     1      21.204   0.722  50.984  1.00  0.00    -0.058 SA
BRANCH  21  24
HETATM   24  O1  UNL     1      19.890  -0.335  54.487  1.00  0.00    -0.344 OA
HETATM   25  H15 UNL     1      19.636  -1.313  54.585  1.00  0.00     0.219 HD
ENDBRANCH  21  24
ENDBRANCH   5  19
TORSDOF 8
ENDMDL
MODEL 8
REMARK VINA RESULT:      -7.6      3.354      7.326
REMARK  8 active torsions:
REMARK  status: ('A' for Active; 'I' for Inactive)
REMARK    1  A    between atoms: C2_2  and  C3_3 
REMARK    2  A    between atoms: C3_3  and  C4_4 
REMARK    3  A    between atoms: C4_4  and  C5_5 
REMARK    4  A    between atoms: C5_5  and  C6_6 
REMARK    5  A    between atoms: C6_6  and  C7_7 
REMARK    6  A    between atoms: C9_9  and  C10_10 
REMARK    7  A    between atoms: N2_18  and  C16_19 
REMARK    8  A    between atoms: C17_21  and  O1_22 
ROOT
HETATM    1  C7  UNL     1      24.657   2.212  51.062  1.00  0.00     0.122 C 
HETATM    2  C8  UNL     1      24.700   3.664  50.645  1.00  0.00     0.089 C 
HETATM    3  C9  UNL     1      26.082   3.792  50.122  1.00  0.00     0.067 C 
HETATM    4  N1  UNL     1      26.793   2.784  50.504  1.00  0.00    -0.174 NA
HETATM    5  N2  UNL     1      26.042   1.914  51.273  1.00  0.00    -0.240 N 
ENDROOT
BRANCH   3   6
HETATM    6  C10 UNL     1      26.522   4.918  49.298  1.00  0.00    -0.010 A 
HETATM    7  C11 UNL     1      25.687   5.961  48.950  1.00  0.00     0.016 A 
HETATM    8  C12 UNL     1      26.121   7.021  48.168  1.00  0.00     0.043 A 
HETATM    9  C13 UNL     1      27.433   7.053  47.709  1.00  0.00     0.116 A 
HETATM   10  F1  UNL     1      27.900   8.056  46.949  1.00  0.00    -0.206 F 
HETATM   11  C14 UNL     1      28.299   6.034  48.030  1.00  0.00     0.043 A 
HETATM   12  C15 UNL     1      27.813   5.007  48.811  1.00  0.00     0.016 A 
ENDBRANCH   3   6
BRANCH   1  13
HETATM   13  C6  UNL     1      23.781   2.029  52.277  1.00  0.00     0.055 C 
BRANCH  13  14
HETATM   14  C5  UNL     1      22.582   1.221  51.993  1.00  0.00    -0.024 C 
BRANCH  14  15
HETATM   15  C4  UNL     1      21.591   1.088  52.891  1.00  0.00     0.004 C 
BRANCH  15  16
HETATM   16  C3  UNL     1      21.313  -0.289  53.226  1.00  0.00     0.050 C 
BRANCH  16  17
HETATM   17  C2  UNL     1      21.967  -0.860  54.228  1.00  0.00    -0.155 C 
HETATM   18  C1  UNL     1      22.806  -1.244  55.178  1.00  0.00     0.096 C 
ENDBRANCH  16  17
ENDBRANCH  15  16
ENDBRANCH  14  15
ENDBRANCH  13  14
ENDBRANCH   1  13
BRANCH   5  19
HETATM   19  C16 UNL     1      26.792   0.962  52.063  1.00  0.00     0.192 A 
HETATM   20  N3  UNL     1      26.908  -0.162  52.231  1.00  0.00    -0.198 NA
HETATM   21  C17 UNL     1      27.730  -0.754  53.079  1.00  0.00     0.171 A 
HETATM   22  C18 UNL     1      28.556   0.074  53.870  1.00  0.00     0.111 A 
HETATM   23  S1  UNL     1      28.043   1.715  53.281  1.00  0.00    -0.058 SA
BRANCH  21  24
HETATM   24  O1  UNL     1      27.762  -2.161  53.173  1.00  0.00    -0.344 OA
HETATM   25  H15 UNL     1      28.541  -2.651  52.745  1.00  0.00     0.219 HD
ENDBRANCH  21  24
ENDBRANCH   5  19
TORSDOF 8
ENDMDL
MODEL 9
REMARK VINA RESULT:      -7.5      4.369      6.952
REMARK  8 active torsions:
REMARK  status: ('A' for Active; 'I' for Inactive)
REMARK    1  A    between atoms: C2_2  and  C3_3 
REMARK    2  A    between atoms: C3_3  and  C4_4 
REMARK    3  A    between atoms: C4_4  and  C5_5 
REMARK    4  A    between atoms: C5_5  and  C6_6 
REMARK    5  A    between atoms: C6_6  and  C7_7 
REMARK    6  A    between atoms: C9_9  and  C10_10 
REMARK    7  A    between atoms: N2_18  and  C16_19 
REMARK    8  A    between atoms: C17_21  and  O1_22 
ROOT
HETATM    1  C7  UNL     1      24.917   2.685  50.690  1.00  0.00     0.122 C 
HETATM    2  C8  UNL     1      26.303   2.577  51.283  1.00  0.00     0.089 C 
HETATM    3  C9  UNL     1      26.177   1.374  52.140  1.00  0.00     0.067 C 
HETATM    4  N1  UNL     1      24.930   1.087  52.317  1.00  0.00    -0.174 NA
HETATM    5  N2  UNL     1      24.118   1.988  51.653  1.00  0.00    -0.240 N 
ENDROOT
BRANCH   3   6
HETATM    6  C10 UNL     1      27.331   0.655  52.682  1.00  0.00    -0.010 A 
HETATM    7  C11 UNL     1      28.434   1.299  53.206  1.00  0.00     0.016 A 
HETATM    8  C12 UNL     1      29.520   0.601  53.714  1.00  0.00     0.043 A 
HETATM    9  C13 UNL     1      29.518  -0.789  53.704  1.00  0.00     0.116 A 
HETATM   10  F1  UNL     1      30.544  -1.508  54.185  1.00  0.00    -0.206 F 
HETATM   11  C14 UNL     1      28.440  -1.471  53.191  1.00  0.00     0.043 A 
HETATM   12  C15 UNL     1      27.389  -0.727  52.699  1.00  0.00     0.016 A 
ENDBRANCH   3   6
BRANCH   1  13
HETATM   13  C6  UNL     1      24.534   4.130  50.482  1.00  0.00     0.055 C 
BRANCH  13  14
HETATM   14  C5  UNL     1      24.085   4.402  49.105  1.00  0.00    -0.024 C 
BRANCH  14  15
HETATM   15  C4  UNL     1      22.783   4.399  48.773  1.00  0.00     0.004 C 
BRANCH  15  16
HETATM   16  C3  UNL     1      22.428   3.314  47.887  1.00  0.00     0.050 C 
BRANCH  16  17
HETATM   17  C2  UNL     1      21.845   2.233  48.385  1.00  0.00    -0.155 C 
HETATM   18  C1  UNL     1      21.469   1.024  48.774  1.00  0.00     0.096 C 
ENDBRANCH  16  17
ENDBRANCH  15  16
ENDBRANCH  14  15
ENDBRANCH  13  14
ENDBRANCH   1  13
BRANCH   5  19
HETATM   19  C16 UNL     1      22.732   2.010  52.066  1.00  0.00     0.192 A 
HETATM   20  N3  UNL     1      21.798   2.667  52.018  1.00  0.00    -0.198 NA
HETATM   21  C17 UNL     1      20.610   2.389  52.526  1.00  0.00     0.171 A 
HETATM   22  C18 UNL     1      20.463   1.159  53.203  1.00  0.00     0.111 A 
HETATM   23  S1  UNL     1      22.141   0.483  53.033  1.00  0.00    -0.058 SA
BRANCH  21  24
HETATM   24  O1  UNL     1      19.545   3.303  52.384  1.00  0.00    -0.344 OA
HETATM   25  H15 UNL     1      18.824   3.311  53.099  1.00  0.00     0.219 HD
ENDBRANCH  21  24
ENDBRANCH   5  19
TORSDOF 8
ENDMDL
