MODEL 1
REMARK VINA RESULT:      -6.3      0.000      0.000
REMARK  5 active torsions:
REMARK  status: ('A' for Active; 'I' for Inactive)
REMARK    1  A    between atoms: C4_4  and  C5_6 
REMARK    2  A    between atoms: C7_9  and  C8_10 
REMARK    3  A    between atoms: N2_18  and  C15_19 
REMARK    4  A    between atoms: C15_19  and  C16_20 
REMARK    5  A    between atoms: C16_20  and  N3_21 
ROOT
HETATM    1  C1  UNL     1      22.974   3.203  48.636  1.00  0.00     0.032 C 
HETATM    2  C2  UNL     1      23.933   3.835  49.615  1.00  0.00     0.080 C 
HETATM    3  C3  UNL     1      24.660   2.822  50.428  1.00  0.00     0.107 C 
HETATM    4  C4  UNL     1      23.724   2.076  51.324  1.00  0.00     0.326 C 
HETATM    5  F1  UNL     1      22.984   1.214  50.499  1.00  0.00    -0.203 F 
HETATM    6  N1  UNL     1      22.788   2.912  52.018  1.00  0.00     0.130 N 
HETATM    7  C13 UNL     1      23.354   4.039  52.683  1.00  0.00     0.293 C 
HETATM    8  C14 UNL     1      23.809   5.083  51.656  1.00  0.00     0.147 C 
HETATM    9  N2  UNL     1      23.205   4.773  50.434  1.00  0.00    -0.405 N 
HETATM   10  H18 UNL     1      22.172   2.330  52.590  1.00  0.00     0.320 HD
ENDROOT
BRANCH   4  11
HETATM   11  C5  UNL     1      24.459   1.215  52.290  1.00  0.00     0.019 A 
HETATM   12  C6  UNL     1      23.764   0.250  53.138  1.00  0.00     0.062 A 
HETATM   13  S1  UNL     1      25.192  -0.500  54.104  1.00  0.00    -0.105 SA
HETATM   14  C7  UNL     1      26.403   0.425  53.373  1.00  0.00    -0.009 A 
HETATM   15  C12 UNL     1      25.792   1.261  52.450  1.00  0.00     0.028 A 
BRANCH  14  16
HETATM   16  C8  UNL     1      27.811   0.237  53.772  1.00  0.00    -0.018 C 
HETATM   17  C9  UNL     1      28.380  -1.016  53.092  1.00  0.00     0.020 C 
HETATM   18  C10 UNL     1      28.595   1.421  53.197  1.00  0.00     0.020 C 
HETATM   19  C11 UNL     1      28.040   0.149  55.243  1.00  0.00     0.020 C 
ENDBRANCH  14  16
ENDBRANCH   4  11
BRANCH   9  20
HETATM   20  C15 UNL     1      22.370   5.665  49.748  1.00  0.00     0.147 C 
BRANCH  20  21
HETATM   21  C16 UNL     1      21.046   5.877  50.394  1.00  0.00     0.290 C 
BRANCH  21  22
HETATM   22  N3  UNL     1      20.069   4.939  49.939  1.00  0.00     0.081 N 
HETATM   23  C17 UNL     1      19.609   4.162  51.097  1.00  0.00     0.309 C 
HETATM   24  C18 UNL     1      18.942   5.574  49.282  1.00  0.00     0.309 C 
ENDBRANCH  21  22
ENDBRANCH  20  21
ENDBRANCH   9  20
TORSDOF 5
ENDMDL
MODEL 2
REMARK VINA RESULT:      -6.2      1.676      2.366
REMARK  5 active torsions:
REMARK  status: ('A' for Active; 'I' for Inactive)
REMARK    1  A    between atoms: C4_4  and  C5_6 
REMARK    2  A    between atoms: C7_9  and  C8_10 
REMARK    3  A    between atoms: N2_18  and  C15_19 
REMARK    4  A    between atoms: C15_19  and  C16_20 
REMARK    5  A    between atoms: C16_20  and  N3_21 
ROOT
HETATM    1  C1  UNL     1      22.733   4.063  48.181  1.00  0.00     0.032 C 
HETATM    2  C2  UNL     1      23.622   4.480  49.327  1.00  0.00     0.080 C 
HETATM    3  C3  UNL     1      24.141   3.314  50.092  1.00  0.00     0.107 C 
HETATM    4  C4  UNL     1      23.034   2.587  50.786  1.00  0.00     0.326 C 
HETATM    5  F1  UNL     1      22.320   1.902  49.789  1.00  0.00    -0.203 F 
HETATM    6  N1  UNL     1      22.106   3.444  51.465  1.00  0.00     0.130 N 
HETATM    7  C13 UNL     1      22.695   4.426  52.315  1.00  0.00     0.293 C 
HETATM    8  C14 UNL     1      23.372   5.515  51.473  1.00  0.00     0.147 C 
HETATM    9  N2  UNL     1      22.894   5.403  50.164  1.00  0.00    -0.405 N 
HETATM   10  H18 UNL     1      21.371   2.878  51.893  1.00  0.00     0.320 HD
ENDROOT
BRANCH   4  11
HETATM   11  C5  UNL     1      23.558   1.554  51.721  1.00  0.00     0.019 A 
HETATM   12  C6  UNL     1      22.668   0.618  52.403  1.00  0.00     0.062 A 
HETATM   13  S1  UNL     1      23.890  -0.397  53.409  1.00  0.00    -0.105 SA
HETATM   14  C7  UNL     1      25.272   0.421  52.884  1.00  0.00    -0.009 A 
HETATM   15  C12 UNL     1      24.863   1.409  52.000  1.00  0.00     0.028 A 
BRANCH  14  16
HETATM   16  C8  UNL     1      26.599   0.013  53.384  1.00  0.00    -0.018 C 
HETATM   17  C9  UNL     1      26.961  -1.370  52.827  1.00  0.00     0.020 C 
HETATM   18  C10 UNL     1      27.616   0.988  52.782  1.00  0.00     0.020 C 
HETATM   19  C11 UNL     1      26.734  -0.001  54.869  1.00  0.00     0.020 C 
ENDBRANCH  14  16
ENDBRANCH   4  11
BRANCH   9  20
HETATM   20  C15 UNL     1      22.241   6.448  49.498  1.00  0.00     0.147 C 
BRANCH  20  21
HETATM   21  C16 UNL     1      22.511   7.796  50.070  1.00  0.00     0.290 C 
BRANCH  21  22
HETATM   22  N3  UNL     1      23.356   8.579  49.224  1.00  0.00     0.081 N 
HETATM   23  C17 UNL     1      24.711   8.554  49.788  1.00  0.00     0.309 C 
HETATM   24  C18 UNL     1      23.373   8.106  47.853  1.00  0.00     0.309 C 
ENDBRANCH  21  22
ENDBRANCH  20  21
ENDBRANCH   9  20
TORSDOF 5
ENDMDL
MODEL 3
REMARK VINA RESULT:      -6.1      8.148     10.856
REMARK  5 active torsions:
REMARK  status: ('A' for Active; 'I' for Inactive)
REMARK    1  A    between atoms: C4_4  and  C5_6 
REMARK    2  A    between atoms: C7_9  and  C8_10 
REMARK    3  A    between atoms: N2_18  and  C15_19 
REMARK    4  A    between atoms: C15_19  and  C16_20 
REMARK    5  A    between atoms: C16_20  and  N3_21 
ROOT
HETATM    1  C1  UNL     1      32.634   6.879  45.630  1.00  0.00     0.032 C 
HETATM    2  C2  UNL     1      32.056   5.957  46.675  1.00  0.00     0.080 C 
HETATM    3  C3  UNL     1      30.705   6.392  47.127  1.00  0.00     0.107 C 
HETATM    4  C4  UNL     1      30.772   7.700  47.846  1.00  0.00     0.326 C 
HETATM    5  F1  UNL     1      31.008   8.681  46.869  1.00  0.00    -0.203 F 
HETATM    6  N1  UNL     1      31.833   7.788  48.806  1.00  0.00     0.130 N 
HETATM    7  C13 UNL     1      31.925   6.693  49.714  1.00  0.00     0.293 C 
HETATM    8  C14 UNL     1      32.436   5.444  48.984  1.00  0.00     0.147 C 
HETATM    9  N2  UNL     1      32.991   5.856  47.769  1.00  0.00    -0.405 N 
HETATM   10  H18 UNL     1      31.826   8.715  49.237  1.00  0.00     0.320 HD
ENDROOT
BRANCH   4  11
HETATM   11  C5  UNL     1      29.471   8.041  48.485  1.00  0.00     0.019 A 
HETATM   12  C6  UNL     1      29.294   9.274  49.249  1.00  0.00     0.062 A 
HETATM   13  S1  UNL     1      27.497   9.129  49.783  1.00  0.00    -0.105 SA
HETATM   14  C7  UNL     1      27.209   7.643  49.032  1.00  0.00    -0.009 A 
HETATM   15  C12 UNL     1      28.386   7.255  48.408  1.00  0.00     0.028 A 
BRANCH  14  16
HETATM   16  C8  UNL     1      25.876   7.019  49.129  1.00  0.00    -0.018 C 
HETATM   17  C9  UNL     1      25.042   7.381  47.892  1.00  0.00     0.020 C 
HETATM   18  C10 UNL     1      26.092   5.503  49.062  1.00  0.00     0.020 C 
HETATM   19  C11 UNL     1      25.108   7.363  50.360  1.00  0.00     0.020 C 
ENDBRANCH  14  16
ENDBRANCH   4  11
BRANCH   9  20
HETATM   20  C15 UNL     1      34.323   5.604  47.414  1.00  0.00     0.147 C 
BRANCH  20  21
HETATM   21  C16 UNL     1      34.848   4.303  47.911  1.00  0.00     0.290 C 
BRANCH  21  22
HETATM   22  N3  UNL     1      34.883   3.309  46.885  1.00  0.00     0.081 N 
HETATM   23  C17 UNL     1      33.616   2.568  46.927  1.00  0.00     0.309 C 
HETATM   24  C18 UNL     1      35.092   3.872  45.564  1.00  0.00     0.309 C 
ENDBRANCH  21  22
ENDBRANCH  20  21
ENDBRANCH   9  20
TORSDOF 5
ENDMDL
MODEL 4
REMARK VINA RESULT:      -6.0      2.708      7.371
REMARK  5 active torsions:
REMARK  status: ('A' for Active; 'I' for Inactive)
REMARK    1  A    between atoms: C4_4  and  C5_6 
REMARK    2  A    between atoms: C7_9  and  C8_10 
REMARK    3  A    between atoms: N2_18  and  C15_19 
REMARK    4  A    between atoms: C15_19  and  C16_20 
REMARK    5  A    between atoms: C16_20  and  N3_21 
ROOT
HETATM    1  C1  UNL     1      23.252  -0.780  53.089  1.00  0.00     0.032 C 
HETATM    2  C2  UNL     1      23.582   0.603  53.594  1.00  0.00     0.080 C 
HETATM    3  C3  UNL     1      22.773   1.657  52.922  1.00  0.00     0.107 C 
HETATM    4  C4  UNL     1      23.109   1.751  51.469  1.00  0.00     0.326 C 
HETATM    5  F1  UNL     1      22.553   0.616  50.856  1.00  0.00    -0.203 F 
HETATM    6  N1  UNL     1      24.516   1.741  51.191  1.00  0.00     0.130 N 
HETATM    7  C13 UNL     1      25.296   2.651  51.964  1.00  0.00     0.293 C 
HETATM    8  C14 UNL     1      25.389   2.165  53.415  1.00  0.00     0.147 C 
HETATM    9  N2  UNL     1      24.999   0.823  53.443  1.00  0.00    -0.405 N 
HETATM   10  H18 UNL     1      24.664   1.786  50.181  1.00  0.00     0.320 HD
ENDROOT
BRANCH   4  11
HETATM   11  C5  UNL     1      22.469   2.936  50.833  1.00  0.00     0.019 A 
HETATM   12  C6  UNL     1      21.733   3.921  51.620  1.00  0.00     0.062 A 
HETATM   13  S1  UNL     1      21.182   5.129  50.288  1.00  0.00    -0.105 SA
HETATM   14  C7  UNL     1      21.897   4.305  48.997  1.00  0.00    -0.009 A 
HETATM   15  C12 UNL     1      22.520   3.179  49.513  1.00  0.00     0.028 A 
BRANCH  14  16
HETATM   16  C8  UNL     1      21.776   4.842  47.628  1.00  0.00    -0.018 C 
HETATM   17  C9  UNL     1      20.461   5.622  47.491  1.00  0.00     0.020 C 
HETATM   18  C10 UNL     1      22.897   5.873  47.459  1.00  0.00     0.020 C 
HETATM   19  C11 UNL     1      21.862   3.823  46.543  1.00  0.00     0.020 C 
ENDBRANCH  14  16
ENDBRANCH   4  11
BRANCH   9  20
HETATM   20  C15 UNL     1      25.830  -0.203  53.912  1.00  0.00     0.147 C 
BRANCH  20  21
HETATM   21  C16 UNL     1      26.849   0.244  54.901  1.00  0.00     0.290 C 
BRANCH  21  22
HETATM   22  N3  UNL     1      28.180  -0.050  54.472  1.00  0.00     0.081 N 
HETATM   23  C17 UNL     1      28.096  -0.882  53.265  1.00  0.00     0.309 C 
HETATM   24  C18 UNL     1      28.962   1.143  54.206  1.00  0.00     0.309 C 
ENDBRANCH  21  22
ENDBRANCH  20  21
ENDBRANCH   9  20
TORSDOF 5
ENDMDL
MODEL 5
REMARK VINA RESULT:      -6.0      4.395      5.965
REMARK  5 active torsions:
REMARK  status: ('A' for Active; 'I' for Inactive)
REMARK    1  A    between atoms: C4_4  and  C5_6 
REMARK    2  A    between atoms: C7_9  and  C8_10 
REMARK    3  A    between atoms: N2_18  and  C15_19 
REMARK    4  A    between atoms: C15_19  and  C16_20 
REMARK    5  A    between atoms: C16_20  and  N3_21 
ROOT
HETATM    1  C1  UNL     1      22.999   2.407  49.669  1.00  0.00     0.032 C 
HETATM    2  C2  UNL     1      22.538   3.843  49.714  1.00  0.00     0.080 C 
HETATM    3  C3  UNL     1      23.398   4.739  48.892  1.00  0.00     0.107 C 
HETATM    4  C4  UNL     1      24.781   4.821  49.452  1.00  0.00     0.326 C 
HETATM    5  F1  UNL     1      25.401   3.593  49.170  1.00  0.00    -0.203 F 
HETATM    6  N1  UNL     1      24.828   5.007  50.873  1.00  0.00     0.130 N 
HETATM    7  C13 UNL     1      24.000   6.053  51.378  1.00  0.00     0.293 C 
HETATM    8  C14 UNL     1      22.524   5.646  51.291  1.00  0.00     0.147 C 
HETATM    9  N2  UNL     1      22.472   4.264  51.092  1.00  0.00    -0.405 N 
HETATM   10  H18 UNL     1      25.802   5.032  51.182  1.00  0.00     0.320 HD
ENDROOT
BRANCH   4  11
HETATM   11  C5  UNL     1      25.587   5.871  48.770  1.00  0.00     0.019 A 
HETATM   12  C6  UNL     1      24.957   7.021  48.127  1.00  0.00     0.062 A 
HETATM   13  S1  UNL     1      26.455   7.949  47.468  1.00  0.00    -0.105 SA
HETATM   14  C7  UNL     1      27.607   6.855  48.044  1.00  0.00    -0.009 A 
HETATM   15  C12 UNL     1      26.928   5.838  48.698  1.00  0.00     0.028 A 
BRANCH  14  16
HETATM   16  C8  UNL     1      29.040   7.104  47.800  1.00  0.00    -0.018 C 
HETATM   17  C9  UNL     1      29.230   7.724  46.409  1.00  0.00     0.020 C 
HETATM   18  C10 UNL     1      29.478   8.178  48.802  1.00  0.00     0.020 C 
HETATM   19  C11 UNL     1      29.918   5.906  47.931  1.00  0.00     0.020 C 
ENDBRANCH  14  16
ENDBRANCH   4  11
BRANCH   9  20
HETATM   20  C15 UNL     1      21.810   3.391  51.967  1.00  0.00     0.147 C 
BRANCH  20  21
HETATM   21  C16 UNL     1      20.343   3.625  52.064  1.00  0.00     0.290 C 
BRANCH  21  22
HETATM   22  N3  UNL     1      19.608   2.403  52.141  1.00  0.00     0.081 N 
HETATM   23  C17 UNL     1      19.362   1.933  50.772  1.00  0.00     0.309 C 
HETATM   24  C18 UNL     1      20.295   1.380  52.907  1.00  0.00     0.309 C 
ENDBRANCH  21  22
ENDBRANCH  20  21
ENDBRANCH   9  20
TORSDOF 5
ENDMDL
MODEL 6
REMARK VINA RESULT:      -5.9      1.804      2.515
REMARK  5 active torsions:
REMARK  status: ('A' for Active; 'I' for Inactive)
REMARK    1  A    between atoms: C4_4  and  C5_6 
REMARK    2  A    between atoms: C7_9  and  C8_10 
REMARK    3  A    between atoms: N2_18  and  C15_19 
REMARK    4  A    between atoms: C15_19  and  C16_20 
REMARK    5  A    between atoms: C16_20  and  N3_21 
ROOT
HETATM    1  C1  UNL     1      20.674   2.094  48.348  1.00  0.00     0.032 C 
HETATM    2  C2  UNL     1      21.503   3.003  49.221  1.00  0.00     0.080 C 
HETATM    3  C3  UNL     1      22.494   2.252  50.039  1.00  0.00     0.107 C 
HETATM    4  C4  UNL     1      21.814   1.372  51.038  1.00  0.00     0.326 C 
HETATM    5  F1  UNL     1      21.260   0.302  50.316  1.00  0.00    -0.203 F 
HETATM    6  N1  UNL     1      20.742   2.010  51.746  1.00  0.00     0.130 N 
HETATM    7  C13 UNL     1      21.055   3.284  52.305  1.00  0.00     0.293 C 
HETATM    8  C14 UNL     1      21.191   4.330  51.191  1.00  0.00     0.147 C 
HETATM    9  N2  UNL     1      20.616   3.799  50.033  1.00  0.00    -0.405 N 
HETATM   10  H18 UNL     1      20.315   1.342  52.391  1.00  0.00     0.320 HD
ENDROOT
BRANCH   4  11
HETATM   11  C5  UNL     1      22.784   0.780  51.999  1.00  0.00     0.019 A 
HETATM   12  C6  UNL     1      22.348  -0.088  53.090  1.00  0.00     0.062 A 
HETATM   13  S1  UNL     1      23.984  -0.495  53.922  1.00  0.00    -0.105 SA
HETATM   14  C7  UNL     1      24.947   0.410  52.869  1.00  0.00    -0.009 A 
HETATM   15  C12 UNL     1      24.108   0.998  51.935  1.00  0.00     0.028 A 
BRANCH  14  16
HETATM   16  C8  UNL     1      26.409   0.448  53.064  1.00  0.00    -0.018 C 
HETATM   17  C9  UNL     1      26.998   1.665  52.337  1.00  0.00     0.020 C 
HETATM   18  C10 UNL     1      26.649   0.694  54.557  1.00  0.00     0.020 C 
HETATM   19  C11 UNL     1      27.134  -0.783  52.634  1.00  0.00     0.020 C 
ENDBRANCH  14  16
ENDBRANCH   4  11
BRANCH   9  20
HETATM   20  C15 UNL     1      19.556   4.416  49.356  1.00  0.00     0.147 C 
BRANCH  20  21
HETATM   21  C16 UNL     1      18.371   4.702  50.212  1.00  0.00     0.290 C 
BRANCH  21  22
HETATM   22  N3  UNL     1      17.255   3.876  49.877  1.00  0.00     0.081 N 
HETATM   23  C17 UNL     1      17.302   3.610  48.434  1.00  0.00     0.309 C 
HETATM   24  C18 UNL     1      17.236   2.628  50.617  1.00  0.00     0.309 C 
ENDBRANCH  21  22
ENDBRANCH  20  21
ENDBRANCH   9  20
TORSDOF 5
ENDMDL
MODEL 7
REMARK VINA RESULT:      -5.8      1.984      3.092
REMARK  5 active torsions:
REMARK  status: ('A' for Active; 'I' for Inactive)
REMARK    1  A    between atoms: C4_4  and  C5_6 
REMARK    2  A    between atoms: C7_9  and  C8_10 
REMARK    3  A    between atoms: N2_18  and  C15_19 
REMARK    4  A    between atoms: C15_19  and  C16_20 
REMARK    5  A    between atoms: C16_20  and  N3_21 
ROOT
HETATM    1  C1  UNL     1      21.718   6.237  51.266  1.00  0.00     0.032 C 
HETATM    2  C2  UNL     1      21.724   5.003  50.397  1.00  0.00     0.080 C 
HETATM    3  C3  UNL     1      22.049   3.771  51.167  1.00  0.00     0.107 C 
HETATM    4  C4  UNL     1      23.450   3.813  51.685  1.00  0.00     0.326 C 
HETATM    5  F1  UNL     1      23.460   4.745  52.736  1.00  0.00    -0.203 F 
HETATM    6  N1  UNL     1      24.419   4.246  50.721  1.00  0.00     0.130 N 
HETATM    7  C13 UNL     1      24.353   3.592  49.455  1.00  0.00     0.293 C 
HETATM    8  C14 UNL     1      23.107   4.052  48.688  1.00  0.00     0.147 C 
HETATM    9  N2  UNL     1      22.634   5.217  49.299  1.00  0.00    -0.405 N 
HETATM   10  H18 UNL     1      25.344   4.270  51.154  1.00  0.00     0.320 HD
ENDROOT
BRANCH   4  11
HETATM   11  C5  UNL     1      23.858   2.506  52.271  1.00  0.00     0.019 A 
HETATM   12  C6  UNL     1      22.878   1.467  52.577  1.00  0.00     0.062 A 
HETATM   13  S1  UNL     1      23.977   0.108  53.271  1.00  0.00    -0.105 SA
HETATM   14  C7  UNL     1      25.431   0.954  53.100  1.00  0.00    -0.009 A 
HETATM   15  C12 UNL     1      25.132   2.193  52.555  1.00  0.00     0.028 A 
BRANCH  14  16
HETATM   16  C8  UNL     1      26.699   0.321  53.512  1.00  0.00    -0.018 C 
HETATM   17  C9  UNL     1      26.862  -1.027  52.797  1.00  0.00     0.020 C 
HETATM   18  C10 UNL     1      27.827   1.215  52.988  1.00  0.00     0.020 C 
HETATM   19  C11 UNL     1      26.855   0.123  54.982  1.00  0.00     0.020 C 
ENDBRANCH  14  16
ENDBRANCH   4  11
BRANCH   9  20
HETATM   20  C15 UNL     1      22.495   6.433  48.617  1.00  0.00     0.147 C 
BRANCH  20  21
HETATM   21  C16 UNL     1      23.787   7.059  48.221  1.00  0.00     0.290 C 
BRANCH  21  22
HETATM   22  N3  UNL     1      23.972   8.339  48.829  1.00  0.00     0.081 N 
HETATM   23  C17 UNL     1      22.664   9.002  48.902  1.00  0.00     0.309 C 
HETATM   24  C18 UNL     1      24.566   8.254  50.149  1.00  0.00     0.309 C 
ENDBRANCH  21  22
ENDBRANCH  20  21
ENDBRANCH   9  20
TORSDOF 5
ENDMDL
MODEL 8
REMARK VINA RESULT:      -5.8      1.997      2.475
REMARK  5 active torsions:
REMARK  status: ('A' for Active; 'I' for Inactive)
REMARK    1  A    between atoms: C4_4  and  C5_6 
REMARK    2  A    between atoms: C7_9  and  C8_10 
REMARK    3  A    between atoms: N2_18  and  C15_19 
REMARK    4  A    between atoms: C15_19  and  C16_20 
REMARK    5  A    between atoms: C16_20  and  N3_21 
ROOT
HETATM    1  C1  UNL     1      21.981   2.722  47.487  1.00  0.00     0.032 C 
HETATM    2  C2  UNL     1      22.610   3.547  48.581  1.00  0.00     0.080 C 
HETATM    3  C3  UNL     1      23.290   2.706  49.604  1.00  0.00     0.107 C 
HETATM    4  C4  UNL     1      22.306   1.866  50.353  1.00  0.00     0.326 C 
HETATM    5  F1  UNL     1      21.890   0.856  49.470  1.00  0.00    -0.203 F 
HETATM    6  N1  UNL     1      21.134   2.575  50.775  1.00  0.00     0.130 N 
HETATM    7  C13 UNL     1      21.377   3.810  51.445  1.00  0.00     0.293 C 
HETATM    8  C14 UNL     1      21.880   4.860  50.447  1.00  0.00     0.147 C 
HETATM    9  N2  UNL     1      21.597   4.397  49.159  1.00  0.00    -0.405 N 
HETATM   10  H18 UNL     1      20.503   1.931  51.258  1.00  0.00     0.320 HD
ENDROOT
BRANCH   4  11
HETATM   11  C5  UNL     1      22.940   1.183  51.514  1.00  0.00     0.019 A 
HETATM   12  C6  UNL     1      22.172   0.318  52.405  1.00  0.00     0.062 A 
HETATM   13  S1  UNL     1      23.491  -0.224  53.631  1.00  0.00    -0.105 SA
HETATM   14  C7  UNL     1      24.757   0.641  52.920  1.00  0.00    -0.009 A 
HETATM   15  C12 UNL     1      24.241   1.310  51.821  1.00  0.00     0.028 A 
BRANCH  14  16
HETATM   16  C8  UNL     1      26.110   0.573  53.506  1.00  0.00    -0.018 C 
HETATM   17  C9  UNL     1      27.054  -0.164  52.546  1.00  0.00     0.020 C 
HETATM   18  C10 UNL     1      26.629   2.012  53.585  1.00  0.00     0.020 C 
HETATM   19  C11 UNL     1      26.181  -0.062  54.854  1.00  0.00     0.020 C 
ENDBRANCH  14  16
ENDBRANCH   4  11
BRANCH   9  20
HETATM   20  C15 UNL     1      20.804   5.108  48.249  1.00  0.00     0.147 C 
BRANCH  20  21
HETATM   21  C16 UNL     1      21.339   6.452  47.896  1.00  0.00     0.290 C 
BRANCH  21  22
HETATM   22  N3  UNL     1      21.186   6.743  46.506  1.00  0.00     0.081 N 
HETATM   23  C17 UNL     1      22.254   6.050  45.775  1.00  0.00     0.309 C 
HETATM   24  C18 UNL     1      19.888   6.351  45.988  1.00  0.00     0.309 C 
ENDBRANCH  21  22
ENDBRANCH  20  21
ENDBRANCH   9  20
TORSDOF 5
ENDMDL
MODEL 9
REMARK VINA RESULT:      -5.8      6.009      7.046
REMARK  5 active torsions:
REMARK  status: ('A' for Active; 'I' for Inactive)
REMARK    1  A    between atoms: C4_4  and  C5_6 
REMARK    2  A    between atoms: C7_9  and  C8_10 
REMARK    3  A    between atoms: N2_18  and  C15_19 
REMARK    4  A    between atoms: C15_19  and  C16_20 
REMARK    5  A    between atoms: C16_20  and  N3_21 
ROOT
HETATM    1  C1  UNL     1      24.185   6.006  48.426  1.00  0.00     0.032 C 
HETATM    2  C2  UNL     1      24.720   7.394  48.175  1.00  0.00     0.080 C 
HETATM    3  C3  UNL     1      26.042   7.376  47.492  1.00  0.00     0.107 C 
HETATM    4  C4  UNL     1      27.094   6.773  48.366  1.00  0.00     0.326 C 
HETATM    5  F1  UNL     1      26.840   5.392  48.403  1.00  0.00    -0.203 F 
HETATM    6  N1  UNL     1      27.073   7.248  49.719  1.00  0.00     0.130 N 
HETATM    7  C13 UNL     1      27.025   8.666  49.866  1.00  0.00     0.293 C 
HETATM    8  C14 UNL     1      25.643   9.192  49.462  1.00  0.00     0.147 C 
HETATM    9  N2  UNL     1      24.764   8.105  49.430  1.00  0.00    -0.405 N 
HETATM   10  H18 UNL     1      27.803   6.776  50.257  1.00  0.00     0.320 HD
ENDROOT
BRANCH   4  11
HETATM   11  C5  UNL     1      28.454   6.941  47.784  1.00  0.00     0.019 A 
HETATM   12  C6  UNL     1      28.764   8.036  46.869  1.00  0.00     0.062 A 
HETATM   13  S1  UNL     1      30.578   7.710  46.495  1.00  0.00    -0.105 SA
HETATM   14  C7  UNL     1      30.714   6.335  47.469  1.00  0.00    -0.009 A 
HETATM   15  C12 UNL     1      29.475   6.112  48.053  1.00  0.00     0.028 A 
BRANCH  14  16
HETATM   16  C8  UNL     1      32.005   5.627  47.561  1.00  0.00    -0.018 C 
HETATM   17  C9  UNL     1      31.805   4.140  47.240  1.00  0.00     0.020 C 
HETATM   18  C10 UNL     1      32.894   6.183  46.444  1.00  0.00     0.020 C 
HETATM   19  C11 UNL     1      32.703   5.760  48.873  1.00  0.00     0.020 C 
ENDBRANCH  14  16
ENDBRANCH   4  11
BRANCH   9  20
HETATM   20  C15 UNL     1      23.603   8.039  50.211  1.00  0.00     0.147 C 
BRANCH  20  21
HETATM   21  C16 UNL     1      22.415   8.687  49.590  1.00  0.00     0.290 C 
BRANCH  21  22
HETATM   22  N3  UNL     1      21.235   7.894  49.731  1.00  0.00     0.081 N 
HETATM   23  C17 UNL     1      21.448   6.954  50.839  1.00  0.00     0.309 C 
HETATM   24  C18 UNL     1      20.046   8.691  49.971  1.00  0.00     0.309 C 
ENDBRANCH  21  22
ENDBRANCH  20  21
ENDBRANCH   9  20
TORSDOF 5
ENDMDL
