MODEL 1
REMARK VINA RESULT:      -7.6      0.000      0.000
REMARK  6 active torsions:
REMARK  status: ('A' for Active; 'I' for Inactive)
REMARK    1  A    between atoms: C7_7  and  N1_8 
REMARK    2  A    between atoms: N1_8  and  C8_9 
REMARK    3  A    between atoms: C9_10  and  C11_13 
REMARK    4  A    between atoms: C11_13  and  C12_14 
REMARK    5  A    between atoms: C15_17  and  O1_18 
REMARK    6  A    between atoms: O1_18  and  C16_19 
ROOT
HETATM    1  C1  UNL     1      29.782  -0.946  53.819  1.00  0.00     0.018 C 
HETATM    2  C2  UNL     1      28.695  -0.446  53.422  1.00  0.00    -0.078 C 
HETATM    3  C3  UNL     1      27.468   0.125  53.004  1.00  0.00     0.019 A 
HETATM    4  C4  UNL     1      26.314  -0.533  53.356  1.00  0.00     0.021 A 
HETATM    5  C5  UNL     1      25.108  -0.026  53.029  1.00  0.00     0.004 A 
HETATM    6  C6  UNL     1      25.143   1.132  52.337  1.00  0.00     0.029 A 
HETATM    7  C7  UNL     1      26.200   1.962  51.878  1.00  0.00     0.029 A 
HETATM    8  C20 UNL     1      27.350   1.263  52.324  1.00  0.00     0.049 A 
ENDROOT
BRANCH   7   9
HETATM    9  N1  UNL     1      26.047   3.168  51.225  1.00  0.00    -0.384 N 
HETATM   10  H5  UNL     1      26.076   4.003  51.861  1.00  0.00     0.160 HD
BRANCH   9  11
HETATM   11  C8  UNL     1      25.817   3.377  49.824  1.00  0.00     0.103 A 
HETATM   12  C9  UNL     1      26.802   4.280  49.218  1.00  0.00     0.022 A 
HETATM   13  N2  UNL     1      25.721   4.824  49.651  1.00  0.00     0.000 N 
HETATM   14  C10 UNL     1      24.671   5.546  50.144  1.00  0.00     0.048 A 
HETATM   15  C11 UNL     1      25.872   5.399  49.826  1.00  0.00     0.028 A 
HETATM   16  C12 UNL     1      24.664   4.520  49.789  1.00  0.00     0.053 A 
HETATM   17  C15 UNL     1      23.379   5.585  50.444  1.00  0.00     0.093 A 
HETATM   18  C14 UNL     1      22.455   4.778  50.364  1.00  0.00     0.129 A 
HETATM   19  C13 UNL     1      23.471   3.836  49.815  1.00  0.00     0.094 A 
HETATM   20  O2  UNL     1      21.292   4.093  50.388  1.00  0.00    -0.344 OA
HETATM   21  O3  UNL     1      23.359   2.459  49.379  1.00  0.00    -0.349 OA
HETATM   22  C19 UNL     1      22.345   1.851  50.221  1.00  0.00     0.202 C 
HETATM   23  C18 UNL     1      21.206   2.720  50.517  1.00  0.00     0.202 C 
BRANCH  17  24
HETATM   24  O1  UNL     1      22.971   6.838  50.986  1.00  0.00    -0.352 OA
BRANCH  24  25
HETATM   25  C16 UNL     1      22.160   7.589  50.160  1.00  0.00     0.171 C 
HETATM   26  C17 UNL     1      22.746   8.657  49.341  1.00  0.00     0.034 C 
ENDBRANCH  24  25
ENDBRANCH  17  24
ENDBRANCH   9  11
ENDBRANCH   7   9
TORSDOF 6
ENDMDL
MODEL 2
REMARK VINA RESULT:      -7.6      0.902      2.071
REMARK  6 active torsions:
REMARK  status: ('A' for Active; 'I' for Inactive)
REMARK    1  A    between atoms: C7_7  and  N1_8 
REMARK    2  A    between atoms: N1_8  and  C8_9 
REMARK    3  A    between atoms: C9_10  and  C11_13 
REMARK    4  A    between atoms: C11_13  and  C12_14 
REMARK    5  A    between atoms: C15_17  and  O1_18 
REMARK    6  A    between atoms: O1_18  and  C16_19 
ROOT
HETATM    1  C1  UNL     1      22.397  -0.950  54.380  1.00  0.00     0.018 C 
HETATM    2  C2  UNL     1      23.433  -0.486  53.831  1.00  0.00    -0.078 C 
HETATM    3  C3  UNL     1      24.591   0.019  53.190  1.00  0.00     0.019 A 
HETATM    4  C4  UNL     1      25.685  -0.809  53.123  1.00  0.00     0.021 A 
HETATM    5  C5  UNL     1      26.808  -0.413  52.491  1.00  0.00     0.004 A 
HETATM    6  C6  UNL     1      26.761   0.830  51.967  1.00  0.00     0.029 A 
HETATM    7  C7  UNL     1      25.755   1.832  51.923  1.00  0.00     0.029 A 
HETATM    8  C20 UNL     1      24.686   1.219  52.623  1.00  0.00     0.049 A 
ENDROOT
BRANCH   7   9
HETATM    9  N1  UNL     1      25.862   3.047  51.278  1.00  0.00    -0.384 N 
HETATM   10  H5  UNL     1      26.076   3.851  51.918  1.00  0.00     0.160 HD
BRANCH   9  11
HETATM   11  C8  UNL     1      25.673   3.311  49.880  1.00  0.00     0.103 A 
HETATM   12  C9  UNL     1      26.676   4.235  49.338  1.00  0.00     0.022 A 
HETATM   13  N2  UNL     1      25.583   4.763  49.761  1.00  0.00     0.000 N 
HETATM   14  C10 UNL     1      24.520   5.467  50.250  1.00  0.00     0.048 A 
HETATM   15  C11 UNL     1      25.729   5.331  49.962  1.00  0.00     0.028 A 
HETATM   16  C12 UNL     1      24.522   4.456  49.856  1.00  0.00     0.053 A 
HETATM   17  C15 UNL     1      23.219   5.497  50.514  1.00  0.00     0.093 A 
HETATM   18  C14 UNL     1      22.298   4.695  50.377  1.00  0.00     0.129 A 
HETATM   19  C13 UNL     1      23.329   3.774  49.821  1.00  0.00     0.094 A 
HETATM   20  O2  UNL     1      21.134   4.012  50.340  1.00  0.00    -0.344 OA
HETATM   21  O3  UNL     1      23.228   2.415  49.329  1.00  0.00    -0.349 OA
HETATM   22  C19 UNL     1      22.190   1.776  50.118  1.00  0.00     0.202 C 
HETATM   23  C18 UNL     1      21.043   2.636  50.413  1.00  0.00     0.202 C 
BRANCH  17  24
HETATM   24  O1  UNL     1      22.797   6.729  51.092  1.00  0.00    -0.352 OA
BRANCH  24  25
HETATM   25  C16 UNL     1      23.101   7.851  50.349  1.00  0.00     0.171 C 
HETATM   26  C17 UNL     1      22.082   8.442  49.473  1.00  0.00     0.034 C 
ENDBRANCH  24  25
ENDBRANCH  17  24
ENDBRANCH   9  11
ENDBRANCH   7   9
TORSDOF 6
ENDMDL
MODEL 3
REMARK VINA RESULT:      -7.3      3.428      6.153
REMARK  6 active torsions:
REMARK  status: ('A' for Active; 'I' for Inactive)
REMARK    1  A    between atoms: C7_7  and  N1_8 
REMARK    2  A    between atoms: N1_8  and  C8_9 
REMARK    3  A    between atoms: C9_10  and  C11_13 
REMARK    4  A    between atoms: C11_13  and  C12_14 
REMARK    5  A    between atoms: C15_17  and  O1_18 
REMARK    6  A    between atoms: O1_18  and  C16_19 
ROOT
HETATM    1  C1  UNL     1      26.783   3.986  49.337  1.00  0.00     0.018 C 
HETATM    2  C2  UNL     1      26.329   3.137  50.151  1.00  0.00    -0.078 C 
HETATM    3  C3  UNL     1      25.821   2.204  51.089  1.00  0.00     0.019 A 
HETATM    4  C4  UNL     1      26.723   1.612  51.939  1.00  0.00     0.021 A 
HETATM    5  C5  UNL     1      26.307   0.746  52.885  1.00  0.00     0.004 A 
HETATM    6  C6  UNL     1      24.977   0.515  52.904  1.00  0.00     0.029 A 
HETATM    7  C7  UNL     1      23.891   1.007  52.133  1.00  0.00     0.029 A 
HETATM    8  C20 UNL     1      24.537   1.884  51.226  1.00  0.00     0.049 A 
ENDROOT
BRANCH   7   9
HETATM    9  N1  UNL     1      22.561   0.702  52.336  1.00  0.00    -0.384 N 
HETATM   10  H5  UNL     1      22.120   0.176  51.540  1.00  0.00     0.160 HD
BRANCH   9  11
HETATM   11  C8  UNL     1      21.747   1.056  53.462  1.00  0.00     0.103 A 
HETATM   12  C9  UNL     1      21.620  -0.035  54.435  1.00  0.00     0.022 A 
HETATM   13  N2  UNL     1      20.705   0.035  53.534  1.00  0.00     0.000 N 
HETATM   14  C10 UNL     1      19.722  -0.068  52.592  1.00  0.00     0.048 A 
HETATM   15  C11 UNL     1      20.512  -0.545  53.436  1.00  0.00     0.028 A 
HETATM   16  C12 UNL     1      20.229   0.831  52.927  1.00  0.00     0.053 A 
HETATM   17  C15 UNL     1      18.931   0.551  51.723  1.00  0.00     0.093 A 
HETATM   18  C14 UNL     1      18.782   1.723  51.384  1.00  0.00     0.129 A 
HETATM   19  C13 UNL     1      19.859   2.031  52.366  1.00  0.00     0.094 A 
HETATM   20  O2  UNL     1      18.430   2.907  50.838  1.00  0.00    -0.344 OA
HETATM   21  O3  UNL     1      20.485   3.284  52.734  1.00  0.00    -0.349 OA
HETATM   22  C19 UNL     1      20.496   4.098  51.532  1.00  0.00     0.202 C 
HETATM   23  C18 UNL     1      19.284   3.986  50.718  1.00  0.00     0.202 C 
BRANCH  17  24
HETATM   24  O1  UNL     1      18.068  -0.341  51.023  1.00  0.00    -0.352 OA
BRANCH  24  25
HETATM   25  C16 UNL     1      16.745  -0.287  51.408  1.00  0.00     0.171 C 
HETATM   26  C17 UNL     1      16.275  -1.128  52.515  1.00  0.00     0.034 C 
ENDBRANCH  24  25
ENDBRANCH  17  24
ENDBRANCH   9  11
ENDBRANCH   7   9
TORSDOF 6
ENDMDL
MODEL 4
REMARK VINA RESULT:      -7.3      2.106      6.067
REMARK  6 active torsions:
REMARK  status: ('A' for Active; 'I' for Inactive)
REMARK    1  A    between atoms: C7_7  and  N1_8 
REMARK    2  A    between atoms: N1_8  and  C8_9 
REMARK    3  A    between atoms: C9_10  and  C11_13 
REMARK    4  A    between atoms: C11_13  and  C12_14 
REMARK    5  A    between atoms: C15_17  and  O1_18 
REMARK    6  A    between atoms: O1_18  and  C16_19 
ROOT
HETATM    1  C1  UNL     1      23.447   7.619  47.989  1.00  0.00     0.018 C 
HETATM    2  C2  UNL     1      24.298   6.746  48.310  1.00  0.00    -0.078 C 
HETATM    3  C3  UNL     1      25.267   5.785  48.692  1.00  0.00     0.019 A 
HETATM    4  C4  UNL     1      26.558   5.991  48.273  1.00  0.00     0.021 A 
HETATM    5  C5  UNL     1      27.541   5.141  48.633  1.00  0.00     0.004 A 
HETATM    6  C6  UNL     1      27.145   4.103  49.400  1.00  0.00     0.029 A 
HETATM    7  C7  UNL     1      25.891   3.707  49.934  1.00  0.00     0.029 A 
HETATM    8  C20 UNL     1      25.023   4.718  49.449  1.00  0.00     0.049 A 
ENDROOT
BRANCH   7   9
HETATM    9  N1  UNL     1      25.678   2.626  50.765  1.00  0.00    -0.384 N 
HETATM   10  H5  UNL     1      25.480   1.730  50.255  1.00  0.00     0.160 HD
BRANCH   9  11
HETATM   11  C8  UNL     1      25.659   2.621  52.200  1.00  0.00     0.103 A 
HETATM   12  C9  UNL     1      26.474   1.543  52.773  1.00  0.00     0.022 A 
HETATM   13  N2  UNL     1      25.230   1.279  52.584  1.00  0.00     0.000 N 
HETATM   14  C10 UNL     1      23.959   0.830  52.358  1.00  0.00     0.048 A 
HETATM   15  C11 UNL     1      25.195   0.671  52.470  1.00  0.00     0.028 A 
HETATM   16  C12 UNL     1      24.278   1.847  52.564  1.00  0.00     0.053 A 
HETATM   17  C15 UNL     1      22.668   1.120  52.261  1.00  0.00     0.093 A 
HETATM   18  C14 UNL     1      22.010   2.153  52.364  1.00  0.00     0.129 A 
HETATM   19  C13 UNL     1      23.315   2.827  52.620  1.00  0.00     0.094 A 
HETATM   20  O2  UNL     1      21.075   3.126  52.419  1.00  0.00    -0.344 OA
HETATM   21  O3  UNL     1      23.637   4.216  52.873  1.00  0.00    -0.349 OA
HETATM   22  C19 UNL     1      22.678   4.998  52.115  1.00  0.00     0.202 C 
HETATM   23  C18 UNL     1      21.320   4.451  52.115  1.00  0.00     0.202 C 
BRANCH  17  24
HETATM   24  O1  UNL     1      21.863  -0.019  51.965  1.00  0.00    -0.352 OA
BRANCH  24  25
HETATM   25  C16 UNL     1      21.011  -0.405  52.980  1.00  0.00     0.171 C 
HETATM   26  C17 UNL     1      21.557  -1.040  54.185  1.00  0.00     0.034 C 
ENDBRANCH  24  25
ENDBRANCH  17  24
ENDBRANCH   9  11
ENDBRANCH   7   9
TORSDOF 6
ENDMDL
MODEL 5
REMARK VINA RESULT:      -7.2      2.989      6.164
REMARK  6 active torsions:
REMARK  status: ('A' for Active; 'I' for Inactive)
REMARK    1  A    between atoms: C7_7  and  N1_8 
REMARK    2  A    between atoms: N1_8  and  C8_9 
REMARK    3  A    between atoms: C9_10  and  C11_13 
REMARK    4  A    between atoms: C11_13  and  C12_14 
REMARK    5  A    between atoms: C15_17  and  O1_18 
REMARK    6  A    between atoms: O1_18  and  C16_19 
ROOT
HETATM    1  C1  UNL     1      17.811  -1.858  53.449  1.00  0.00     0.018 C 
HETATM    2  C2  UNL     1      18.412  -1.065  52.675  1.00  0.00    -0.078 C 
HETATM    3  C3  UNL     1      19.074  -0.151  51.818  1.00  0.00     0.019 A 
HETATM    4  C4  UNL     1      18.341   0.394  50.792  1.00  0.00     0.021 A 
HETATM    5  C5  UNL     1      18.892   1.303  49.962  1.00  0.00     0.004 A 
HETATM    6  C6  UNL     1      20.184   1.600  50.217  1.00  0.00     0.029 A 
HETATM    7  C7  UNL     1      21.109   1.163  51.202  1.00  0.00     0.029 A 
HETATM    8  C20 UNL     1      20.339   0.239  51.952  1.00  0.00     0.049 A 
ENDROOT
BRANCH   7   9
HETATM    9  N1  UNL     1      22.399   1.629  51.353  1.00  0.00    -0.384 N 
HETATM   10  H5  UNL     1      23.038   1.376  50.558  1.00  0.00     0.160 HD
BRANCH   9  11
HETATM   11  C8  UNL     1      22.938   2.357  52.465  1.00  0.00     0.103 A 
HETATM   12  C9  UNL     1      22.616   3.788  52.414  1.00  0.00     0.022 A 
HETATM   13  N2  UNL     1      23.732   3.436  51.883  1.00  0.00     0.000 N 
HETATM   14  C10 UNL     1      24.896   3.198  51.208  1.00  0.00     0.048 A 
HETATM   15  C11 UNL     1      23.842   3.837  51.424  1.00  0.00     0.028 A 
HETATM   16  C12 UNL     1      24.480   2.631  52.035  1.00  0.00     0.053 A 
HETATM   17  C15 UNL     1      25.980   2.445  51.072  1.00  0.00     0.093 A 
HETATM   18  C14 UNL     1      26.413   1.452  51.652  1.00  0.00     0.129 A 
HETATM   19  C13 UNL     1      25.185   1.542  52.491  1.00  0.00     0.094 A 
HETATM   20  O2  UNL     1      27.093   0.377  52.108  1.00  0.00    -0.344 OA
HETATM   21  O3  UNL     1      24.709   0.713  53.579  1.00  0.00    -0.349 OA
HETATM   22  C19 UNL     1      25.154  -0.637  53.282  1.00  0.00     0.202 C 
HETATM   23  C18 UNL     1      26.499  -0.715  52.708  1.00  0.00     0.202 C 
BRANCH  17  24
HETATM   24  O1  UNL     1      26.830   2.879  50.013  1.00  0.00    -0.352 OA
BRANCH  24  25
HETATM   25  C16 UNL     1      26.697   4.210  49.673  1.00  0.00     0.171 C 
HETATM   26  C17 UNL     1      27.564   4.787  48.639  1.00  0.00     0.034 C 
ENDBRANCH  24  25
ENDBRANCH  17  24
ENDBRANCH   9  11
ENDBRANCH   7   9
TORSDOF 6
ENDMDL
MODEL 6
REMARK VINA RESULT:      -7.2      2.733      4.555
REMARK  6 active torsions:
REMARK  status: ('A' for Active; 'I' for Inactive)
REMARK    1  A    between atoms: C7_7  and  N1_8 
REMARK    2  A    between atoms: N1_8  and  C8_9 
REMARK    3  A    between atoms: C9_10  and  C11_13 
REMARK    4  A    between atoms: C11_13  and  C12_14 
REMARK    5  A    between atoms: C15_17  and  O1_18 
REMARK    6  A    between atoms: O1_18  and  C16_19 
ROOT
HETATM    1  C1  UNL     1      17.553  -0.891  52.696  1.00  0.00     0.018 C 
HETATM    2  C2  UNL     1      18.759  -0.773  53.047  1.00  0.00    -0.078 C 
HETATM    3  C3  UNL     1      20.120  -0.663  53.421  1.00  0.00     0.019 A 
HETATM    4  C4  UNL     1      20.639  -1.658  54.212  1.00  0.00     0.021 A 
HETATM    5  C5  UNL     1      21.938  -1.642  54.574  1.00  0.00     0.004 A 
HETATM    6  C6  UNL     1      22.646  -0.589  54.114  1.00  0.00     0.029 A 
HETATM    7  C7  UNL     1      22.315   0.528  53.301  1.00  0.00     0.029 A 
HETATM    8  C20 UNL     1      20.939   0.314  53.037  1.00  0.00     0.049 A 
ENDROOT
BRANCH   7   9
HETATM    9  N1  UNL     1      23.199   1.497  52.871  1.00  0.00    -0.384 N 
HETATM   10  H5  UNL     1      23.233   2.345  53.489  1.00  0.00     0.160 HD
BRANCH   9  11
HETATM   11  C8  UNL     1      24.009   1.473  51.688  1.00  0.00     0.103 A 
HETATM   12  C9  UNL     1      25.433   1.691  51.971  1.00  0.00     0.022 A 
HETATM   13  N2  UNL     1      24.741   2.737  51.684  1.00  0.00     0.000 N 
HETATM   14  C10 UNL     1      24.118   3.936  51.485  1.00  0.00     0.048 A 
HETATM   15  C11 UNL     1      25.003   3.208  51.988  1.00  0.00     0.028 A 
HETATM   16  C12 UNL     1      23.843   2.969  51.077  1.00  0.00     0.053 A 
HETATM   17  C15 UNL     1      23.135   4.606  50.896  1.00  0.00     0.093 A 
HETATM   18  C14 UNL     1      22.216   4.293  50.143  1.00  0.00     0.129 A 
HETATM   19  C13 UNL     1      22.748   2.905  50.248  1.00  0.00     0.094 A 
HETATM   20  O2  UNL     1      21.140   4.215  49.331  1.00  0.00    -0.344 OA
HETATM   21  O3  UNL     1      22.290   1.661  49.665  1.00  0.00    -0.349 OA
HETATM   22  C19 UNL     1      20.844   1.763  49.581  1.00  0.00     0.202 C 
HETATM   23  C18 UNL     1      20.355   3.087  49.194  1.00  0.00     0.202 C 
BRANCH  17  24
HETATM   24  O1  UNL     1      23.141   5.995  51.213  1.00  0.00    -0.352 OA
BRANCH  24  25
HETATM   25  C16 UNL     1      24.266   6.678  50.801  1.00  0.00     0.171 C 
HETATM   26  C17 UNL     1      24.169   8.102  50.458  1.00  0.00     0.034 C 
ENDBRANCH  24  25
ENDBRANCH  17  24
ENDBRANCH   9  11
ENDBRANCH   7   9
TORSDOF 6
ENDMDL
MODEL 7
REMARK VINA RESULT:      -7.1      2.177      7.080
REMARK  6 active torsions:
REMARK  status: ('A' for Active; 'I' for Inactive)
REMARK    1  A    between atoms: C7_7  and  N1_8 
REMARK    2  A    between atoms: N1_8  and  C8_9 
REMARK    3  A    between atoms: C9_10  and  C11_13 
REMARK    4  A    between atoms: C11_13  and  C12_14 
REMARK    5  A    between atoms: C15_17  and  O1_18 
REMARK    6  A    between atoms: O1_18  and  C16_19 
ROOT
HETATM    1  C1  UNL     1      19.765   8.751  49.649  1.00  0.00     0.018 C 
HETATM    2  C2  UNL     1      20.710   8.040  50.085  1.00  0.00    -0.078 C 
HETATM    3  C3  UNL     1      21.772   7.258  50.601  1.00  0.00     0.019 A 
HETATM    4  C4  UNL     1      23.023   7.825  50.615  1.00  0.00     0.021 A 
HETATM    5  C5  UNL     1      24.075   7.156  51.129  1.00  0.00     0.004 A 
HETATM    6  C6  UNL     1      23.793   5.920  51.595  1.00  0.00     0.029 A 
HETATM    7  C7  UNL     1      22.599   5.157  51.676  1.00  0.00     0.029 A 
HETATM    8  C20 UNL     1      21.642   6.030  51.099  1.00  0.00     0.049 A 
ENDROOT
BRANCH   7   9
HETATM    9  N1  UNL     1      22.482   3.908  52.251  1.00  0.00    -0.384 N 
HETATM   10  H5  UNL     1      22.399   3.929  53.298  1.00  0.00     0.160 HD
BRANCH   9  11
HETATM   11  C8  UNL     1      22.506   2.637  51.586  1.00  0.00     0.103 A 
HETATM   12  C9  UNL     1      21.777   1.599  52.323  1.00  0.00     0.022 A 
HETATM   13  N2  UNL     1      23.037   1.690  52.563  1.00  0.00     0.000 N 
HETATM   14  C10 UNL     1      24.337   1.731  52.980  1.00  0.00     0.048 A 
HETATM   15  C11 UNL     1      23.118   1.510  53.150  1.00  0.00     0.028 A 
HETATM   16  C12 UNL     1      23.943   2.009  52.008  1.00  0.00     0.053 A 
HETATM   17  C15 UNL     1      25.603   2.000  52.685  1.00  0.00     0.093 A 
HETATM   18  C14 UNL     1      26.180   2.414  51.682  1.00  0.00     0.129 A 
HETATM   19  C13 UNL     1      24.829   2.451  51.054  1.00  0.00     0.094 A 
HETATM   20  O2  UNL     1      27.038   2.854  50.737  1.00  0.00    -0.344 OA
HETATM   21  O3  UNL     1      24.402   2.860  49.732  1.00  0.00    -0.349 OA
HETATM   22  C19 UNL     1      25.297   3.931  49.332  1.00  0.00     0.202 C 
HETATM   23  C18 UNL     1      26.692   3.729  49.726  1.00  0.00     0.202 C 
BRANCH  17  24
HETATM   24  O1  UNL     1      26.491   1.764  53.774  1.00  0.00    -0.352 OA
BRANCH  24  25
HETATM   25  C16 UNL     1      26.708   0.434  54.066  1.00  0.00     0.171 C 
HETATM   26  C17 UNL     1      28.071  -0.109  54.013  1.00  0.00     0.034 C 
ENDBRANCH  24  25
ENDBRANCH  17  24
ENDBRANCH   9  11
ENDBRANCH   7   9
TORSDOF 6
ENDMDL
MODEL 8
REMARK VINA RESULT:      -7.1      3.699      7.107
REMARK  6 active torsions:
REMARK  status: ('A' for Active; 'I' for Inactive)
REMARK    1  A    between atoms: C7_7  and  N1_8 
REMARK    2  A    between atoms: N1_8  and  C8_9 
REMARK    3  A    between atoms: C9_10  and  C11_13 
REMARK    4  A    between atoms: C11_13  and  C12_14 
REMARK    5  A    between atoms: C15_17  and  O1_18 
REMARK    6  A    between atoms: O1_18  and  C16_19 
ROOT
HETATM    1  C1  UNL     1      21.743   3.711  46.418  1.00  0.00     0.018 C 
HETATM    2  C2  UNL     1      22.328   3.369  47.481  1.00  0.00    -0.078 C 
HETATM    3  C3  UNL     1      22.976   3.011  48.689  1.00  0.00     0.019 A 
HETATM    4  C4  UNL     1      24.143   3.666  48.996  1.00  0.00     0.021 A 
HETATM    5  C5  UNL     1      24.793   3.408  50.149  1.00  0.00     0.004 A 
HETATM    6  C6  UNL     1      24.218   2.469  50.931  1.00  0.00     0.029 A 
HETATM    7  C7  UNL     1      23.041   1.684  50.807  1.00  0.00     0.029 A 
HETATM    8  C20 UNL     1      22.523   2.110  49.558  1.00  0.00     0.049 A 
ENDROOT
BRANCH   7   9
HETATM    9  N1  UNL     1      22.564   0.799  51.752  1.00  0.00    -0.384 N 
HETATM   10  H5  UNL     1      22.528  -0.197  51.422  1.00  0.00     0.160 HD
BRANCH   9  11
HETATM   11  C8  UNL     1      22.092   1.105  53.072  1.00  0.00     0.103 A 
HETATM   12  C9  UNL     1      22.416   0.056  54.046  1.00  0.00     0.022 A 
HETATM   13  N2  UNL     1      21.269  -0.034  53.471  1.00  0.00     0.000 N 
HETATM   14  C10 UNL     1      20.068  -0.304  52.879  1.00  0.00     0.048 A 
HETATM   15  C11 UNL     1      21.134  -0.637  53.442  1.00  0.00     0.028 A 
HETATM   16  C12 UNL     1      20.529   0.667  53.034  1.00  0.00     0.053 A 
HETATM   17  C15 UNL     1      18.975   0.168  52.292  1.00  0.00     0.093 A 
HETATM   18  C14 UNL     1      18.574   1.293  52.005  1.00  0.00     0.129 A 
HETATM   19  C13 UNL     1      19.848   1.781  52.604  1.00  0.00     0.094 A 
HETATM   20  O2  UNL     1      17.918   2.396  51.584  1.00  0.00    -0.344 OA
HETATM   21  O3  UNL     1      20.383   3.119  52.749  1.00  0.00    -0.349 OA
HETATM   22  C19 UNL     1      19.917   3.868  51.596  1.00  0.00     0.202 C 
HETATM   23  C18 UNL     1      18.542   3.566  51.197  1.00  0.00     0.202 C 
BRANCH  17  24
HETATM   24  O1  UNL     1      18.067  -0.859  51.900  1.00  0.00    -0.352 OA
BRANCH  24  25
HETATM   25  C16 UNL     1      17.285  -1.360  52.920  1.00  0.00     0.171 C 
HETATM   26  C17 UNL     1      17.582  -2.683  53.482  1.00  0.00     0.034 C 
ENDBRANCH  24  25
ENDBRANCH  17  24
ENDBRANCH   9  11
ENDBRANCH   7   9
TORSDOF 6
ENDMDL
MODEL 9
REMARK VINA RESULT:      -7.1      2.607      6.452
REMARK  6 active torsions:
REMARK  status: ('A' for Active; 'I' for Inactive)
REMARK    1  A    between atoms: C7_7  and  N1_8 
REMARK    2  A    between atoms: N1_8  and  C8_9 
REMARK    3  A    between atoms: C9_10  and  C11_13 
REMARK    4  A    between atoms: C11_13  and  C12_14 
REMARK    5  A    between atoms: C15_17  and  O1_18 
REMARK    6  A    between atoms: O1_18  and  C16_19 
ROOT
HETATM    1  C1  UNL     1      27.846   6.991  48.051  1.00  0.00     0.018 C 
HETATM    2  C2  UNL     1      26.874   6.778  48.825  1.00  0.00    -0.078 C 
HETATM    3  C3  UNL     1      25.762   6.546  49.672  1.00  0.00     0.019 A 
HETATM    4  C4  UNL     1      25.104   7.646  50.164  1.00  0.00     0.021 A 
HETATM    5  C5  UNL     1      24.013   7.503  50.943  1.00  0.00     0.004 A 
HETATM    6  C6  UNL     1      23.654   6.226  51.194  1.00  0.00     0.029 A 
HETATM    7  C7  UNL     1      24.181   4.969  50.797  1.00  0.00     0.029 A 
HETATM    8  C20 UNL     1      25.292   5.344  50.000  1.00  0.00     0.049 A 
ENDROOT
BRANCH   7   9
HETATM    9  N1  UNL     1      23.639   3.738  51.105  1.00  0.00    -0.384 N 
HETATM   10  H5  UNL     1      23.057   3.737  51.979  1.00  0.00     0.160 HD
BRANCH   9  11
HETATM   11  C8  UNL     1      23.822   2.503  50.398  1.00  0.00     0.103 A 
HETATM   12  C9  UNL     1      22.611   2.071  49.690  1.00  0.00     0.022 A 
HETATM   13  N2  UNL     1      22.771   1.612  50.881  1.00  0.00     0.000 N 
HETATM   14  C10 UNL     1      22.764   1.122  52.156  1.00  0.00     0.048 A 
HETATM   15  C11 UNL     1      22.203   1.524  51.112  1.00  0.00     0.028 A 
HETATM   16  C12 UNL     1      23.626   1.370  51.544  1.00  0.00     0.053 A 
HETATM   17  C15 UNL     1      23.467   0.718  53.206  1.00  0.00     0.093 A 
HETATM   18  C14 UNL     1      24.668   0.630  53.452  1.00  0.00     0.129 A 
HETATM   19  C13 UNL     1      24.876   1.172  52.080  1.00  0.00     0.094 A 
HETATM   20  O2  UNL     1      25.902   0.444  53.967  1.00  0.00    -0.344 OA
HETATM   21  O3  UNL     1      26.089   1.487  51.352  1.00  0.00    -0.349 OA
HETATM   22  C19 UNL     1      27.051   1.931  52.344  1.00  0.00     0.202 C 
HETATM   23  C18 UNL     1      27.011   1.182  53.600  1.00  0.00     0.202 C 
BRANCH  17  24
HETATM   24  O1  UNL     1      22.649   0.299  54.296  1.00  0.00    -0.352 OA
BRANCH  24  25
HETATM   25  C16 UNL     1      21.437  -0.251  53.931  1.00  0.00     0.171 C 
HETATM   26  C17 UNL     1      21.165  -1.665  54.215  1.00  0.00     0.034 C 
ENDBRANCH  24  25
ENDBRANCH  17  24
ENDBRANCH   9  11
ENDBRANCH   7   9
TORSDOF 6
ENDMDL
