MODEL 1
REMARK VINA RESULT:      -9.1      0.000      0.000
REMARK  5 active torsions:
REMARK  status: ('A' for Active; 'I' for Inactive)
REMARK    1  A    between atoms: C10_10  and  C11_11 
REMARK    2  A    between atoms: C11_11  and  N1_12 
REMARK    3  A    between atoms: C15_16  and  N2_17 
REMARK    4  A    between atoms: C15_16  and  C16_18 
REMARK    5  A    between atoms: C17_20  and  C18_21 
ROOT
HETATM    1  C1  UNL     1      27.012   8.373  46.866  1.00  0.00     0.048 C 
HETATM    2  C2  UNL     1      26.238   7.401  47.664  1.00  0.00    -0.061 A 
HETATM    3  C3  UNL     1      26.818   6.705  48.700  1.00  0.00     0.007 A 
HETATM    4  C4  UNL     1      26.021   5.819  49.393  1.00  0.00     0.008 A 
HETATM    5  C5  UNL     1      24.697   5.620  49.083  1.00  0.00    -0.048 A 
HETATM    6  C6  UNL     1      24.069   6.283  48.061  1.00  0.00    -0.029 A 
HETATM    7  C7  UNL     1      24.908   7.154  47.403  1.00  0.00     0.018 A 
HETATM    8  C8  UNL     1      22.698   6.203  47.596  1.00  0.00     0.012 C 
HETATM    9  C9  UNL     1      21.610   5.787  48.208  1.00  0.00     0.010 C 
HETATM   10  C10 UNL     1      20.505   5.294  49.022  1.00  0.00    -0.031 C 
HETATM   11  C12 UNL     1      20.490   4.817  50.278  1.00  0.00     0.009 C 
HETATM   12  C13 UNL     1      20.888   4.370  51.629  1.00  0.00    -0.001 C 
HETATM   13  C14 UNL     1      22.074   4.321  52.268  1.00  0.00     0.021 C 
HETATM   14  C15 UNL     1      23.537   4.457  52.537  1.00  0.00     0.223 C 
HETATM   15  C25 UNL     1      24.146   5.229  51.437  1.00  0.00     0.057 C 
HETATM   16  C26 UNL     1      24.126   4.644  50.073  1.00  0.00     0.042 C 
ENDROOT
BRANCH  14  17
HETATM   17  N2  UNL     1      23.801   5.206  53.774  1.00  0.00     0.098 N 
HETATM   18  H16 UNL     1      23.991   6.210  53.507  1.00  0.00     0.314 HD
HETATM   19  H17 UNL     1      22.933   5.250  54.353  1.00  0.00     0.314 HD
ENDBRANCH  14  17
BRANCH  14  20
HETATM   20  C16 UNL     1      24.208   3.139  52.674  1.00  0.00     0.118 A 
HETATM   21  N3  UNL     1      25.289   2.602  52.822  1.00  0.00    -0.242 NA
HETATM   22  C17 UNL     1      25.443   1.297  52.915  1.00  0.00     0.074 A 
HETATM   23  C24 UNL     1      24.281   0.444  52.838  1.00  0.00     0.084 A 
HETATM   24  S1  UNL     1      22.998   1.687  52.628  1.00  0.00    -0.081 SA
BRANCH  22  25
HETATM   25  C18 UNL     1      26.760   0.692  53.089  1.00  0.00    -0.007 A 
HETATM   26  C19 UNL     1      27.023  -0.644  52.880  1.00  0.00     0.014 A 
HETATM   27  C20 UNL     1      28.246  -1.257  53.033  1.00  0.00     0.001 A 
HETATM   28  C21 UNL     1      29.323  -0.469  53.436  1.00  0.00     0.000 A 
HETATM   29  C22 UNL     1      29.127   0.875  53.663  1.00  0.00     0.001 A 
HETATM   30  C23 UNL     1      27.866   1.401  53.483  1.00  0.00     0.014 A 
ENDBRANCH  22  25
ENDBRANCH  14  20
BRANCH  10  31
HETATM   31  C11 UNL     1      19.176   5.342  48.324  1.00  0.00     0.305 C 
BRANCH  31  32
HETATM   32  N1  UNL     1      18.093   5.511  49.266  1.00  0.00     0.082 N 
HETATM   33  H11 UNL     1      17.941   4.606  49.777  1.00  0.00     0.313 HD
HETATM   34  H12 UNL     1      17.227   5.694  48.730  1.00  0.00     0.313 HD
ENDBRANCH  31  32
ENDBRANCH  10  31
TORSDOF 5
ENDMDL
MODEL 2
REMARK VINA RESULT:      -9.0      2.970      7.389
REMARK  5 active torsions:
REMARK  status: ('A' for Active; 'I' for Inactive)
REMARK    1  A    between atoms: C10_10  and  C11_11 
REMARK    2  A    between atoms: C11_11  and  N1_12 
REMARK    3  A    between atoms: C15_16  and  N2_17 
REMARK    4  A    between atoms: C15_16  and  C16_18 
REMARK    5  A    between atoms: C17_20  and  C18_21 
ROOT
HETATM    1  C1  UNL     1      27.835  -1.232  53.086  1.00  0.00     0.048 C 
HETATM    2  C2  UNL     1      26.689  -0.366  52.744  1.00  0.00    -0.061 A 
HETATM    3  C3  UNL     1      26.852   0.763  51.974  1.00  0.00     0.007 A 
HETATM    4  C4  UNL     1      25.727   1.512  51.702  1.00  0.00     0.008 A 
HETATM    5  C5  UNL     1      24.481   1.167  52.168  1.00  0.00    -0.048 A 
HETATM    6  C6  UNL     1      24.261   0.056  52.940  1.00  0.00    -0.029 A 
HETATM    7  C7  UNL     1      25.415  -0.655  53.181  1.00  0.00     0.018 A 
HETATM    8  C8  UNL     1      23.032  -0.458  53.511  1.00  0.00     0.012 C 
HETATM    9  C9  UNL     1      21.779  -0.249  53.174  1.00  0.00     0.010 C 
HETATM   10  C10 UNL     1      20.449   0.086  52.676  1.00  0.00    -0.031 C 
HETATM   11  C12 UNL     1      20.070   0.896  51.672  1.00  0.00     0.009 C 
HETATM   12  C13 UNL     1      20.073   1.840  50.536  1.00  0.00    -0.001 C 
HETATM   13  C14 UNL     1      21.058   2.464  49.861  1.00  0.00     0.021 C 
HETATM   14  C15 UNL     1      22.426   2.897  49.445  1.00  0.00     0.223 C 
HETATM   15  C25 UNL     1      23.417   2.064  50.152  1.00  0.00     0.057 C 
HETATM   16  C26 UNL     1      23.489   2.161  51.632  1.00  0.00     0.042 C 
ENDROOT
BRANCH  14  17
HETATM   17  N2  UNL     1      22.653   2.693  48.007  1.00  0.00     0.098 N 
HETATM   18  H16 UNL     1      21.958   1.973  47.671  1.00  0.00     0.314 HD
HETATM   19  H17 UNL     1      22.404   3.561  47.483  1.00  0.00     0.314 HD
ENDBRANCH  14  17
BRANCH  14  20
HETATM   20  C16 UNL     1      22.669   4.336  49.724  1.00  0.00     0.118 A 
HETATM   21  N3  UNL     1      23.444   5.252  49.532  1.00  0.00    -0.242 NA
HETATM   22  C17 UNL     1      23.251   6.473  49.990  1.00  0.00     0.074 A 
HETATM   23  C24 UNL     1      22.065   6.754  50.763  1.00  0.00     0.084 A 
HETATM   24  S1  UNL     1      21.295   5.129  50.752  1.00  0.00    -0.081 SA
BRANCH  22  25
HETATM   25  C18 UNL     1      24.208   7.545  49.738  1.00  0.00    -0.007 A 
HETATM   26  C19 UNL     1      23.969   8.600  48.885  1.00  0.00     0.014 A 
HETATM   27  C20 UNL     1      24.841   9.631  48.615  1.00  0.00     0.001 A 
HETATM   28  C21 UNL     1      26.079   9.620  49.256  1.00  0.00     0.000 A 
HETATM   29  C22 UNL     1      26.381   8.593  50.121  1.00  0.00     0.001 A 
HETATM   30  C23 UNL     1      25.445   7.603  50.329  1.00  0.00     0.014 A 
ENDBRANCH  22  25
ENDBRANCH  14  20
BRANCH  10  31
HETATM   31  C11 UNL     1      19.338  -0.600  53.417  1.00  0.00     0.305 C 
BRANCH  31  32
HETATM   32  N1  UNL     1      19.830  -1.729  54.174  1.00  0.00     0.082 N 
HETATM   33  H11 UNL     1      19.016  -2.227  54.612  1.00  0.00     0.313 HD
HETATM   34  H12 UNL     1      20.405  -1.366  54.954  1.00  0.00     0.313 HD
ENDBRANCH  31  32
ENDBRANCH  10  31
TORSDOF 5
ENDMDL
MODEL 3
REMARK VINA RESULT:      -8.7      2.283      3.228
REMARK  5 active torsions:
REMARK  status: ('A' for Active; 'I' for Inactive)
REMARK    1  A    between atoms: C10_10  and  C11_11 
REMARK    2  A    between atoms: C11_11  and  N1_12 
REMARK    3  A    between atoms: C15_16  and  N2_17 
REMARK    4  A    between atoms: C15_16  and  C16_18 
REMARK    5  A    between atoms: C17_20  and  C18_21 
ROOT
HETATM    1  C1  UNL     1      30.088   8.154  46.582  1.00  0.00     0.048 C 
HETATM    2  C2  UNL     1      28.797   7.670  47.113  1.00  0.00    -0.061 A 
HETATM    3  C3  UNL     1      28.744   6.729  48.116  1.00  0.00     0.007 A 
HETATM    4  C4  UNL     1      27.497   6.337  48.552  1.00  0.00     0.008 A 
HETATM    5  C5  UNL     1      26.336   6.849  48.023  1.00  0.00    -0.048 A 
HETATM    6  C6  UNL     1      26.329   7.786  47.023  1.00  0.00    -0.029 A 
HETATM    7  C7  UNL     1      27.599   8.142  46.626  1.00  0.00     0.018 A 
HETATM    8  C8  UNL     1      25.217   8.433  46.354  1.00  0.00     0.012 C 
HETATM    9  C9  UNL     1      23.969   8.596  46.733  1.00  0.00     0.010 C 
HETATM   10  C10 UNL     1      22.627   8.692  47.297  1.00  0.00    -0.031 C 
HETATM   11  C12 UNL     1      22.132   8.230  48.458  1.00  0.00     0.009 C 
HETATM   12  C13 UNL     1      21.984   7.581  49.777  1.00  0.00    -0.001 C 
HETATM   13  C14 UNL     1      22.840   6.909  50.571  1.00  0.00     0.021 C 
HETATM   14  C15 UNL     1      24.097   6.273  51.070  1.00  0.00     0.223 C 
HETATM   15  C25 UNL     1      25.209   6.681  50.192  1.00  0.00     0.057 C 
HETATM   16  C26 UNL     1      25.178   6.252  48.771  1.00  0.00     0.042 C 
ENDROOT
BRANCH  14  17
HETATM   17  N2  UNL     1      24.442   6.727  52.425  1.00  0.00     0.098 N 
HETATM   18  H16 UNL     1      23.904   7.616  52.613  1.00  0.00     0.314 HD
HETATM   19  H17 UNL     1      24.077   6.047  53.129  1.00  0.00     0.314 HD
ENDBRANCH  14  17
BRANCH  14  20
HETATM   20  C16 UNL     1      23.997   4.792  51.120  1.00  0.00     0.118 A 
HETATM   21  N3  UNL     1      24.486   3.794  51.613  1.00  0.00    -0.242 NA
HETATM   22  C17 UNL     1      24.043   2.576  51.374  1.00  0.00     0.074 A 
HETATM   23  C24 UNL     1      22.921   2.398  50.483  1.00  0.00     0.084 A 
HETATM   24  S1  UNL     1      22.593   4.113  50.050  1.00  0.00    -0.081 SA
BRANCH  22  25
HETATM   25  C18 UNL     1      24.660   1.404  51.985  1.00  0.00    -0.007 A 
HETATM   26  C19 UNL     1      24.024   0.590  52.897  1.00  0.00     0.014 A 
HETATM   27  C20 UNL     1      24.566  -0.522  53.499  1.00  0.00     0.001 A 
HETATM   28  C21 UNL     1      25.874  -0.870  53.167  1.00  0.00     0.000 A 
HETATM   29  C22 UNL     1      26.567  -0.098  52.261  1.00  0.00     0.001 A 
HETATM   30  C23 UNL     1      25.942   0.999  51.709  1.00  0.00     0.014 A 
ENDBRANCH  22  25
ENDBRANCH  14  20
BRANCH  10  31
HETATM   31  C11 UNL     1      21.659   9.438  46.424  1.00  0.00     0.305 C 
BRANCH  31  32
HETATM   32  N1  UNL     1      20.590  10.021  47.202  1.00  0.00     0.082 N 
HETATM   33  H11 UNL     1      20.689   9.715  48.201  1.00  0.00     0.313 HD
HETATM   34  H12 UNL     1      19.695   9.628  46.862  1.00  0.00     0.313 HD
ENDBRANCH  31  32
ENDBRANCH  10  31
TORSDOF 5
ENDMDL
MODEL 4
REMARK VINA RESULT:      -8.7      3.745      7.892
REMARK  5 active torsions:
REMARK  status: ('A' for Active; 'I' for Inactive)
REMARK    1  A    between atoms: C10_10  and  C11_11 
REMARK    2  A    between atoms: C11_11  and  N1_12 
REMARK    3  A    between atoms: C15_16  and  N2_17 
REMARK    4  A    between atoms: C15_16  and  C16_18 
REMARK    5  A    between atoms: C17_20  and  C18_21 
ROOT
HETATM    1  C1  UNL     1      25.651  -1.099  54.950  1.00  0.00     0.048 C 
HETATM    2  C2  UNL     1      24.592  -0.410  54.184  1.00  0.00    -0.061 A 
HETATM    3  C3  UNL     1      24.897   0.573  53.270  1.00  0.00     0.007 A 
HETATM    4  C4  UNL     1      23.846   1.161  52.599  1.00  0.00     0.008 A 
HETATM    5  C5  UNL     1      22.538   0.799  52.814  1.00  0.00    -0.048 A 
HETATM    6  C6  UNL     1      22.177  -0.170  53.713  1.00  0.00    -0.029 A 
HETATM    7  C7  UNL     1      23.263  -0.725  54.354  1.00  0.00     0.018 A 
HETATM    8  C8  UNL     1      20.866  -0.679  54.066  1.00  0.00     0.012 C 
HETATM    9  C9  UNL     1      19.729  -0.642  53.407  1.00  0.00     0.010 C 
HETATM   10  C10 UNL     1      18.553  -0.517  52.553  1.00  0.00    -0.031 C 
HETATM   11  C12 UNL     1      18.404   0.063  51.350  1.00  0.00     0.009 C 
HETATM   12  C13 UNL     1      18.652   0.785  50.085  1.00  0.00    -0.001 C 
HETATM   13  C14 UNL     1      19.749   1.361  49.555  1.00  0.00     0.021 C 
HETATM   14  C15 UNL     1      21.159   1.830  49.398  1.00  0.00     0.223 C 
HETATM   15  C25 UNL     1      21.975   1.225  50.469  1.00  0.00     0.057 C 
HETATM   16  C26 UNL     1      21.672   1.591  51.875  1.00  0.00     0.042 C 
ENDROOT
BRANCH  14  17
HETATM   17  N2  UNL     1      21.745   1.391  48.124  1.00  0.00     0.098 N 
HETATM   18  H16 UNL     1      22.723   1.047  48.322  1.00  0.00     0.314 HD
HETATM   19  H17 UNL     1      21.238   0.548  47.773  1.00  0.00     0.314 HD
ENDBRANCH  14  17
BRANCH  14  20
HETATM   20  C16 UNL     1      21.268   3.311  49.442  1.00  0.00     0.118 A 
HETATM   21  N3  UNL     1      22.058   4.232  49.508  1.00  0.00    -0.242 NA
HETATM   22  C17 UNL     1      21.695   5.499  49.506  1.00  0.00     0.074 A 
HETATM   23  C24 UNL     1      20.293   5.829  49.422  1.00  0.00     0.084 A 
HETATM   24  S1  UNL     1      19.589   4.175  49.349  1.00  0.00    -0.081 SA
BRANCH  22  25
HETATM   25  C18 UNL     1      22.677   6.576  49.589  1.00  0.00    -0.007 A 
HETATM   26  C19 UNL     1      23.821   6.512  50.355  1.00  0.00     0.014 A 
HETATM   27  C20 UNL     1      24.772   7.501  50.465  1.00  0.00     0.001 A 
HETATM   28  C21 UNL     1      24.574   8.677  49.744  1.00  0.00     0.000 A 
HETATM   29  C22 UNL     1      23.449   8.806  48.960  1.00  0.00     0.001 A 
HETATM   30  C23 UNL     1      22.552   7.761  48.911  1.00  0.00     0.014 A 
ENDBRANCH  22  25
ENDBRANCH  14  20
BRANCH  10  31
HETATM   31  C11 UNL     1      17.320  -1.153  53.129  1.00  0.00     0.305 C 
BRANCH  31  32
HETATM   32  N1  UNL     1      17.654  -2.283  53.966  1.00  0.00     0.082 N 
HETATM   33  H11 UNL     1      17.506  -2.018  54.971  1.00  0.00     0.313 HD
HETATM   34  H12 UNL     1      18.665  -2.475  53.859  1.00  0.00     0.313 HD
ENDBRANCH  31  32
ENDBRANCH  10  31
TORSDOF 5
ENDMDL
MODEL 5
REMARK VINA RESULT:      -8.6      2.837      6.878
REMARK  5 active torsions:
REMARK  status: ('A' for Active; 'I' for Inactive)
REMARK    1  A    between atoms: C10_10  and  C11_11 
REMARK    2  A    between atoms: C11_11  and  N1_12 
REMARK    3  A    between atoms: C15_16  and  N2_17 
REMARK    4  A    between atoms: C15_16  and  C16_18 
REMARK    5  A    between atoms: C17_20  and  C18_21 
ROOT
HETATM    1  C1  UNL     1      16.945   3.450  48.533  1.00  0.00     0.048 C 
HETATM    2  C2  UNL     1      18.330   3.281  49.020  1.00  0.00    -0.061 A 
HETATM    3  C3  UNL     1      19.290   4.240  48.789  1.00  0.00     0.007 A 
HETATM    4  C4  UNL     1      20.555   4.001  49.281  1.00  0.00     0.008 A 
HETATM    5  C5  UNL     1      20.872   2.860  49.978  1.00  0.00    -0.048 A 
HETATM    6  C6  UNL     1      19.957   1.872  50.235  1.00  0.00    -0.029 A 
HETATM    7  C7  UNL     1      18.712   2.161  49.723  1.00  0.00     0.018 A 
HETATM    8  C8  UNL     1      20.109   0.618  50.947  1.00  0.00     0.012 C 
HETATM    9  C9  UNL     1      21.004   0.240  51.833  1.00  0.00     0.010 C 
HETATM   10  C10 UNL     1      22.067  -0.023  52.797  1.00  0.00    -0.031 C 
HETATM   11  C12 UNL     1      23.085   0.752  53.209  1.00  0.00     0.009 C 
HETATM   12  C13 UNL     1      24.029   1.875  53.386  1.00  0.00    -0.001 C 
HETATM   13  C14 UNL     1      24.114   3.101  52.833  1.00  0.00     0.021 C 
HETATM   14  C15 UNL     1      23.798   4.289  51.985  1.00  0.00     0.223 C 
HETATM   15  C25 UNL     1      22.473   4.086  51.368  1.00  0.00     0.057 C 
HETATM   16  C26 UNL     1      22.307   2.960  50.414  1.00  0.00     0.042 C 
ENDROOT
BRANCH  14  17
HETATM   17  N2  UNL     1      23.708   5.523  52.778  1.00  0.00     0.098 N 
HETATM   18  H16 UNL     1      23.838   5.262  53.793  1.00  0.00     0.314 HD
HETATM   19  H17 UNL     1      24.521   6.142  52.561  1.00  0.00     0.314 HD
ENDBRANCH  14  17
BRANCH  14  20
HETATM   20  C16 UNL     1      24.825   4.519  50.936  1.00  0.00     0.118 A 
HETATM   21  N3  UNL     1      25.287   5.357  50.187  1.00  0.00    -0.242 NA
HETATM   22  C17 UNL     1      26.286   5.119  49.360  1.00  0.00     0.074 A 
HETATM   23  C24 UNL     1      26.873   3.801  49.329  1.00  0.00     0.084 A 
HETATM   24  S1  UNL     1      25.864   2.982  50.573  1.00  0.00    -0.081 SA
BRANCH  22  25
HETATM   25  C18 UNL     1      26.810   6.154  48.475  1.00  0.00    -0.007 A 
HETATM   26  C19 UNL     1      26.032   7.132  47.895  1.00  0.00     0.014 A 
HETATM   27  C20 UNL     1      26.482   8.125  47.054  1.00  0.00     0.001 A 
HETATM   28  C21 UNL     1      27.843   8.157  46.755  1.00  0.00     0.000 A 
HETATM   29  C22 UNL     1      28.676   7.207  47.302  1.00  0.00     0.001 A 
HETATM   30  C23 UNL     1      28.135   6.250  48.134  1.00  0.00     0.014 A 
ENDBRANCH  22  25
ENDBRANCH  14  20
BRANCH  10  31
HETATM   31  C11 UNL     1      21.988  -1.386  53.423  1.00  0.00     0.305 C 
BRANCH  31  32
HETATM   32  N1  UNL     1      20.994  -1.427  54.471  1.00  0.00     0.082 N 
HETATM   33  H11 UNL     1      21.361  -2.004  55.267  1.00  0.00     0.313 HD
HETATM   34  H12 UNL     1      20.164  -1.925  54.107  1.00  0.00     0.313 HD
ENDBRANCH  31  32
ENDBRANCH  10  31
TORSDOF 5
ENDMDL
MODEL 6
REMARK VINA RESULT:      -8.5      3.638      8.492
REMARK  5 active torsions:
REMARK  status: ('A' for Active; 'I' for Inactive)
REMARK    1  A    between atoms: C10_10  and  C11_11 
REMARK    2  A    between atoms: C11_11  and  N1_12 
REMARK    3  A    between atoms: C15_16  and  N2_17 
REMARK    4  A    between atoms: C15_16  and  C16_18 
REMARK    5  A    between atoms: C17_20  and  C18_21 
ROOT
HETATM    1  C1  UNL     1      25.904  -0.853  54.751  1.00  0.00     0.048 C 
HETATM    2  C2  UNL     1      24.833  -0.186  53.983  1.00  0.00    -0.061 A 
HETATM    3  C3  UNL     1      25.123   0.763  53.029  1.00  0.00     0.007 A 
HETATM    4  C4  UNL     1      24.062   1.332  52.359  1.00  0.00     0.008 A 
HETATM    5  C5  UNL     1      22.756   0.984  52.613  1.00  0.00    -0.048 A 
HETATM    6  C6  UNL     1      22.410   0.049  53.553  1.00  0.00    -0.029 A 
HETATM    7  C7  UNL     1      23.506  -0.488  54.191  1.00  0.00     0.018 A 
HETATM    8  C8  UNL     1      21.104  -0.440  53.950  1.00  0.00     0.012 C 
HETATM    9  C9  UNL     1      19.954  -0.421  53.314  1.00  0.00     0.010 C 
HETATM   10  C10 UNL     1      18.761  -0.321  52.480  1.00  0.00    -0.031 C 
HETATM   11  C12 UNL     1      18.590   0.218  51.261  1.00  0.00     0.009 C 
HETATM   12  C13 UNL     1      18.815   0.894  49.966  1.00  0.00    -0.001 C 
HETATM   13  C14 UNL     1      19.903   1.446  49.394  1.00  0.00     0.021 C 
HETATM   14  C15 UNL     1      21.311   1.902  49.193  1.00  0.00     0.223 C 
HETATM   15  C25 UNL     1      22.147   1.331  50.267  1.00  0.00     0.057 C 
HETATM   16  C26 UNL     1      21.875   1.747  51.665  1.00  0.00     0.042 C 
ENDROOT
BRANCH  14  17
HETATM   17  N2  UNL     1      21.870   1.416  47.922  1.00  0.00     0.098 N 
HETATM   18  H16 UNL     1      22.850   1.074  48.112  1.00  0.00     0.314 HD
HETATM   19  H17 UNL     1      21.352   0.564  47.612  1.00  0.00     0.314 HD
ENDBRANCH  14  17
BRANCH  14  20
HETATM   20  C16 UNL     1      21.428   3.383  49.182  1.00  0.00     0.118 A 
HETATM   21  N3  UNL     1      20.785   4.414  49.158  1.00  0.00    -0.242 NA
HETATM   22  C17 UNL     1      21.336   5.611  49.174  1.00  0.00     0.074 A 
HETATM   23  C24 UNL     1      22.774   5.723  49.221  1.00  0.00     0.084 A 
HETATM   24  S1  UNL     1      23.220   3.981  49.239  1.00  0.00    -0.081 SA
BRANCH  22  25
HETATM   25  C18 UNL     1      20.528   6.826  49.143  1.00  0.00    -0.007 A 
HETATM   26  C19 UNL     1      19.545   7.068  48.207  1.00  0.00     0.014 A 
HETATM   27  C20 UNL     1      18.761   8.197  48.138  1.00  0.00     0.001 A 
HETATM   28  C21 UNL     1      18.967   9.192  49.092  1.00  0.00     0.000 A 
HETATM   29  C22 UNL     1      19.934   9.012  50.055  1.00  0.00     0.001 A 
HETATM   30  C23 UNL     1      20.671   7.848  50.046  1.00  0.00     0.014 A 
ENDBRANCH  22  25
ENDBRANCH  14  20
BRANCH  10  31
HETATM   31  C11 UNL     1      17.538  -0.930  53.103  1.00  0.00     0.305 C 
BRANCH  31  32
HETATM   32  N1  UNL     1      17.882  -2.045  53.956  1.00  0.00     0.082 N 
HETATM   33  H11 UNL     1      17.765  -1.756  54.958  1.00  0.00     0.313 HD
HETATM   34  H12 UNL     1      18.888  -2.250  53.826  1.00  0.00     0.313 HD
ENDBRANCH  31  32
ENDBRANCH  10  31
TORSDOF 5
ENDMDL
MODEL 7
REMARK VINA RESULT:      -8.5      3.034      7.940
REMARK  5 active torsions:
REMARK  status: ('A' for Active; 'I' for Inactive)
REMARK    1  A    between atoms: C10_10  and  C11_11 
REMARK    2  A    between atoms: C11_11  and  N1_12 
REMARK    3  A    between atoms: C15_16  and  N2_17 
REMARK    4  A    between atoms: C15_16  and  C16_18 
REMARK    5  A    between atoms: C17_20  and  C18_21 
ROOT
HETATM    1  C1  UNL     1      25.641  -0.785  54.516  1.00  0.00     0.048 C 
HETATM    2  C2  UNL     1      25.097   0.138  53.499  1.00  0.00    -0.061 A 
HETATM    3  C3  UNL     1      23.748   0.396  53.416  1.00  0.00     0.007 A 
HETATM    4  C4  UNL     1      23.330   1.272  52.438  1.00  0.00     0.008 A 
HETATM    5  C5  UNL     1      24.204   1.877  51.567  1.00  0.00    -0.048 A 
HETATM    6  C6  UNL     1      25.556   1.656  51.602  1.00  0.00    -0.029 A 
HETATM    7  C7  UNL     1      25.920   0.775  52.597  1.00  0.00     0.018 A 
HETATM    8  C8  UNL     1      26.616   2.200  50.776  1.00  0.00     0.012 C 
HETATM    9  C9  UNL     1      26.653   3.289  50.040  1.00  0.00     0.010 C 
HETATM   10  C10 UNL     1      26.532   4.526  49.275  1.00  0.00    -0.031 C 
HETATM   11  C12 UNL     1      25.498   5.374  49.143  1.00  0.00     0.009 C 
HETATM   12  C13 UNL     1      24.177   6.025  49.256  1.00  0.00    -0.001 C 
HETATM   13  C14 UNL     1      23.049   5.709  49.922  1.00  0.00     0.021 C 
HETATM   14  C15 UNL     1      22.089   4.970  50.796  1.00  0.00     0.223 C 
HETATM   15  C25 UNL     1      22.822   3.899  51.497  1.00  0.00     0.057 C 
HETATM   16  C26 UNL     1      23.418   2.808  50.686  1.00  0.00     0.042 C 
ENDROOT
BRANCH  14  17
HETATM   17  N2  UNL     1      21.514   5.836  51.836  1.00  0.00     0.098 N 
HETATM   18  H16 UNL     1      22.255   5.991  52.571  1.00  0.00     0.314 HD
HETATM   19  H17 UNL     1      21.333   6.787  51.443  1.00  0.00     0.314 HD
ENDBRANCH  14  17
BRANCH  14  20
HETATM   20  C16 UNL     1      20.953   4.399  50.028  1.00  0.00     0.118 A 
HETATM   21  N3  UNL     1      20.086   3.547  50.051  1.00  0.00    -0.242 NA
HETATM   22  C17 UNL     1      19.207   3.382  49.083  1.00  0.00     0.074 A 
HETATM   23  C24 UNL     1      19.261   4.247  47.928  1.00  0.00     0.084 A 
HETATM   24  S1  UNL     1      20.662   5.280  48.380  1.00  0.00    -0.081 SA
BRANCH  22  25
HETATM   25  C18 UNL     1      18.183   2.344  49.148  1.00  0.00    -0.007 A 
HETATM   26  C19 UNL     1      18.315   1.183  49.879  1.00  0.00     0.014 A 
HETATM   27  C20 UNL     1      17.378   0.178  49.969  1.00  0.00     0.001 A 
HETATM   28  C21 UNL     1      16.186   0.335  49.265  1.00  0.00     0.000 A 
HETATM   29  C22 UNL     1      15.991   1.473  48.514  1.00  0.00     0.001 A 
HETATM   30  C23 UNL     1      16.986   2.426  48.484  1.00  0.00     0.014 A 
ENDBRANCH  22  25
ENDBRANCH  14  20
BRANCH  10  31
HETATM   31  C11 UNL     1      27.780   4.894  48.526  1.00  0.00     0.305 C 
BRANCH  31  32
HETATM   32  N1  UNL     1      28.235   6.218  48.880  1.00  0.00     0.082 N 
HETATM   33  H11 UNL     1      28.546   6.716  48.010  1.00  0.00     0.313 HD
HETATM   34  H12 UNL     1      29.074   6.120  49.478  1.00  0.00     0.313 HD
ENDBRANCH  31  32
ENDBRANCH  10  31
TORSDOF 5
ENDMDL
MODEL 8
REMARK VINA RESULT:      -8.4      2.715      8.175
REMARK  5 active torsions:
REMARK  status: ('A' for Active; 'I' for Inactive)
REMARK    1  A    between atoms: C10_10  and  C11_11 
REMARK    2  A    between atoms: C11_11  and  N1_12 
REMARK    3  A    between atoms: C15_16  and  N2_17 
REMARK    4  A    between atoms: C15_16  and  C16_18 
REMARK    5  A    between atoms: C17_20  and  C18_21 
ROOT
HETATM    1  C1  UNL     1      25.276  -0.561  54.333  1.00  0.00     0.048 C 
HETATM    2  C2  UNL     1      24.833   0.379  53.284  1.00  0.00    -0.061 A 
HETATM    3  C3  UNL     1      23.502   0.684  53.114  1.00  0.00     0.007 A 
HETATM    4  C4  UNL     1      23.179   1.573  52.112  1.00  0.00     0.008 A 
HETATM    5  C5  UNL     1      24.128   2.147  51.300  1.00  0.00    -0.048 A 
HETATM    6  C6  UNL     1      25.466   1.878  51.423  1.00  0.00    -0.029 A 
HETATM    7  C7  UNL     1      25.734   0.986  52.438  1.00  0.00     0.018 A 
HETATM    8  C8  UNL     1      26.596   2.384  50.668  1.00  0.00     0.012 C 
HETATM    9  C9  UNL     1      26.719   3.471  49.938  1.00  0.00     0.010 C 
HETATM   10  C10 UNL     1      26.691   4.710  49.168  1.00  0.00    -0.031 C 
HETATM   11  C12 UNL     1      25.698   5.594  48.970  1.00  0.00     0.009 C 
HETATM   12  C13 UNL     1      24.396   6.292  48.998  1.00  0.00    -0.001 C 
HETATM   13  C14 UNL     1      23.218   6.015  49.590  1.00  0.00     0.021 C 
HETATM   14  C15 UNL     1      22.178   5.312  50.399  1.00  0.00     0.223 C 
HETATM   15  C25 UNL     1      22.825   4.216  51.144  1.00  0.00     0.057 C 
HETATM   16  C26 UNL     1      23.434   3.104  50.372  1.00  0.00     0.042 C 
ENDROOT
BRANCH  14  17
HETATM   17  N2  UNL     1      21.567   6.198  51.400  1.00  0.00     0.098 N 
HETATM   18  H16 UNL     1      20.543   5.952  51.465  1.00  0.00     0.314 HD
HETATM   19  H17 UNL     1      21.950   5.978  52.347  1.00  0.00     0.314 HD
ENDBRANCH  14  17
BRANCH  14  20
HETATM   20  C16 UNL     1      21.075   4.780  49.557  1.00  0.00     0.118 A 
HETATM   21  N3  UNL     1      20.746   4.542  48.412  1.00  0.00    -0.242 NA
HETATM   22  C17 UNL     1      19.582   4.016  48.087  1.00  0.00     0.074 A 
HETATM   23  C24 UNL     1      18.637   3.700  49.131  1.00  0.00     0.084 A 
HETATM   24  S1  UNL     1      19.578   4.225  50.571  1.00  0.00    -0.081 SA
BRANCH  22  25
HETATM   25  C18 UNL     1      19.225   3.747  46.697  1.00  0.00    -0.007 A 
HETATM   26  C19 UNL     1      17.986   3.293  46.299  1.00  0.00     0.014 A 
HETATM   27  C20 UNL     1      17.606   3.026  45.003  1.00  0.00     0.001 A 
HETATM   28  C21 UNL     1      18.546   3.227  43.994  1.00  0.00     0.000 A 
HETATM   29  C22 UNL     1      19.804   3.679  44.326  1.00  0.00     0.001 A 
HETATM   30  C23 UNL     1      20.094   3.920  45.651  1.00  0.00     0.014 A 
ENDBRANCH  22  25
ENDBRANCH  14  20
BRANCH  10  31
HETATM   31  C11 UNL     1      27.997   5.033  48.501  1.00  0.00     0.305 C 
BRANCH  31  32
HETATM   32  N1  UNL     1      28.457   6.356  48.859  1.00  0.00     0.082 N 
HETATM   33  H11 UNL     1      29.491   6.321  49.035  1.00  0.00     0.313 HD
HETATM   34  H12 UNL     1      28.016   6.617  49.757  1.00  0.00     0.313 HD
ENDBRANCH  31  32
ENDBRANCH  10  31
TORSDOF 5
ENDMDL
MODEL 9
REMARK VINA RESULT:      -8.3      2.970      5.694
REMARK  5 active torsions:
REMARK  status: ('A' for Active; 'I' for Inactive)
REMARK    1  A    between atoms: C10_10  and  C11_11 
REMARK    2  A    between atoms: C11_11  and  N1_12 
REMARK    3  A    between atoms: C15_16  and  N2_17 
REMARK    4  A    between atoms: C15_16  and  C16_18 
REMARK    5  A    between atoms: C17_20  and  C18_21 
ROOT
HETATM    1  C1  UNL     1      18.914   9.270  49.227  1.00  0.00     0.048 C 
HETATM    2  C2  UNL     1      20.005   8.328  49.550  1.00  0.00    -0.061 A 
HETATM    3  C3  UNL     1      19.748   7.006  49.833  1.00  0.00     0.007 A 
HETATM    4  C4  UNL     1      20.826   6.198  50.122  1.00  0.00     0.008 A 
HETATM    5  C5  UNL     1      22.118   6.667  50.133  1.00  0.00    -0.048 A 
HETATM    6  C6  UNL     1      22.432   7.973  49.860  1.00  0.00    -0.029 A 
HETATM    7  C7  UNL     1      21.320   8.735  49.579  1.00  0.00     0.018 A 
HETATM    8  C8  UNL     1      23.720   8.638  49.823  1.00  0.00     0.012 C 
HETATM    9  C9  UNL     1      24.931   8.149  49.673  1.00  0.00     0.010 C 
HETATM   10  C10 UNL     1      26.200   7.451  49.497  1.00  0.00    -0.031 C 
HETATM   11  C12 UNL     1      26.465   6.140  49.360  1.00  0.00     0.009 C 
HETATM   12  C13 UNL     1      26.335   4.673  49.247  1.00  0.00    -0.001 C 
HETATM   13  C14 UNL     1      25.278   3.838  49.278  1.00  0.00     0.021 C 
HETATM   14  C15 UNL     1      23.869   3.352  49.373  1.00  0.00     0.223 C 
HETATM   15  C25 UNL     1      22.966   4.518  49.319  1.00  0.00     0.057 C 
HETATM   16  C26 UNL     1      23.034   5.512  50.420  1.00  0.00     0.042 C 
ENDROOT
BRANCH  14  17
HETATM   17  N2  UNL     1      23.508   2.489  48.239  1.00  0.00     0.098 N 
HETATM   18  H16 UNL     1      24.186   2.689  47.455  1.00  0.00     0.314 HD
HETATM   19  H17 UNL     1      23.683   1.489  48.487  1.00  0.00     0.314 HD
ENDBRANCH  14  17
BRANCH  14  20
HETATM   20  C16 UNL     1      23.625   2.570  50.611  1.00  0.00     0.118 A 
HETATM   21  N3  UNL     1      22.868   1.774  51.133  1.00  0.00    -0.242 NA
HETATM   22  C17 UNL     1      23.050   1.288  52.345  1.00  0.00     0.074 A 
HETATM   23  C24 UNL     1      24.201   1.712  53.107  1.00  0.00     0.084 A 
HETATM   24  S1  UNL     1      24.956   2.840  51.927  1.00  0.00    -0.081 SA
BRANCH  22  25
HETATM   25  C18 UNL     1      22.116   0.336  52.935  1.00  0.00    -0.007 A 
HETATM   26  C19 UNL     1      20.747   0.416  52.793  1.00  0.00     0.014 A 
HETATM   27  C20 UNL     1      19.830  -0.456  53.332  1.00  0.00     0.001 A 
HETATM   28  C21 UNL     1      20.312  -1.521  54.091  1.00  0.00     0.000 A 
HETATM   29  C22 UNL     1      21.670  -1.659  54.272  1.00  0.00     0.001 A 
HETATM   30  C23 UNL     1      22.513  -0.736  53.694  1.00  0.00     0.014 A 
ENDBRANCH  22  25
ENDBRANCH  14  20
BRANCH  10  31
HETATM   31  C11 UNL     1      27.390   8.366  49.461  1.00  0.00     0.305 C 
BRANCH  31  32
HETATM   32  N1  UNL     1      27.527   9.101  50.698  1.00  0.00     0.082 N 
HETATM   33  H11 UNL     1      27.351  10.118  50.511  1.00  0.00     0.313 HD
HETATM   34  H12 UNL     1      28.511   9.025  51.008  1.00  0.00     0.313 HD
ENDBRANCH  31  32
ENDBRANCH  10  31
TORSDOF 5
ENDMDL
