MODEL 1
REMARK VINA RESULT:      -8.1      0.000      0.000
REMARK  1 active torsions:
REMARK  status: ('A' for Active; 'I' for Inactive)
REMARK    1  A    between atoms: C2_2  and  C3_4 
ROOT
HETATM    1  C3  UNL     1      22.194   0.916  51.510  1.00  0.00    -0.036 C 
HETATM    2  C4  UNL     1      22.165   1.612  50.326  1.00  0.00     0.053 C 
HETATM    3  C5  UNL     1      22.981   2.466  49.513  1.00  0.00     0.000 C 
HETATM    4  C6  UNL     1      23.961   3.236  48.998  1.00  0.00     0.086 C 
HETATM    5  N1  UNL     1      25.298   3.684  49.395  1.00  0.00    -0.350 N 
HETATM    6  C7  UNL     1      24.822   3.988  50.751  1.00  0.00     0.141 A 
HETATM    7  N2  UNL     1      23.994   5.011  51.047  1.00  0.00    -0.224 NA
HETATM    8  C8  UNL     1      23.380   5.047  52.271  1.00  0.00     0.236 A 
HETATM    9  N3  UNL     1      23.665   4.024  53.085  1.00  0.00    -0.241 NA
HETATM   10  C9  UNL     1      24.494   3.052  52.727  1.00  0.00     0.073 A 
HETATM   11  C10 UNL     1      24.624   2.061  53.666  1.00  0.00     0.045 A 
HETATM   12  C11 UNL     1      25.458   1.509  52.736  1.00  0.00     0.002 A 
HETATM   13  C12 UNL     1      26.298   0.948  51.807  1.00  0.00     0.078 A 
HETATM   14  C13 UNL     1      26.019   2.001  51.031  1.00  0.00     0.055 A 
HETATM   15  C14 UNL     1      25.169   2.922  51.539  1.00  0.00     0.041 A 
HETATM   16  O1  UNL     1      27.043  -0.253  51.936  1.00  0.00    -0.350 OA
HETATM   17  C15 UNL     1      27.476  -0.558  53.313  1.00  0.00     0.178 C 
HETATM   18  C16 UNL     1      26.247  -0.231  54.197  1.00  0.00     0.059 C 
HETATM   19  C17 UNL     1      25.148   0.125  53.262  1.00  0.00     0.145 C 
HETATM   20  N4  UNL     1      23.808  -0.074  53.620  1.00  0.00    -0.291 NA
HETATM   21  C18 UNL     1      22.935   0.353  52.697  1.00  0.00     0.116 C 
HETATM   22  H8  UNL     1      26.106   3.686  48.777  1.00  0.00     0.166 HD
ENDROOT
BRANCH   1  23
HETATM   23  C2  UNL     1      20.817   0.310  51.522  1.00  0.00     0.109 C 
HETATM   24  C1  UNL     1      20.255   0.399  52.933  1.00  0.00     0.031 C 
HETATM   25 CL1  UNL     1      19.790   1.411  50.522  1.00  0.00    -0.121 Cl
ENDBRANCH   1  23
TORSDOF 1
ENDMDL
MODEL 2
REMARK VINA RESULT:      -7.9      2.262      3.466
REMARK  1 active torsions:
REMARK  status: ('A' for Active; 'I' for Inactive)
REMARK    1  A    between atoms: C2_2  and  C3_4 
ROOT
HETATM    1  C3  UNL     1      21.774   1.971  49.281  1.00  0.00    -0.036 C 
HETATM    2  C4  UNL     1      22.967   2.593  49.004  1.00  0.00     0.053 C 
HETATM    3  C5  UNL     1      24.170   3.036  49.647  1.00  0.00     0.000 C 
HETATM    4  C6  UNL     1      25.149   3.345  50.522  1.00  0.00     0.086 C 
HETATM    5  N1  UNL     1      25.372   3.241  51.966  1.00  0.00    -0.350 N 
HETATM    6  C7  UNL     1      24.019   3.741  52.239  1.00  0.00     0.141 A 
HETATM    7  N2  UNL     1      23.628   5.014  52.024  1.00  0.00    -0.224 NA
HETATM    8  C8  UNL     1      22.293   5.320  52.032  1.00  0.00     0.236 A 
HETATM    9  N3  UNL     1      21.472   4.288  52.256  1.00  0.00    -0.241 NA
HETATM   10  C9  UNL     1      21.928   3.059  52.463  1.00  0.00     0.073 A 
HETATM   11  C10 UNL     1      20.940   2.121  52.619  1.00  0.00     0.045 A 
HETATM   12  C11 UNL     1      21.995   1.262  52.739  1.00  0.00     0.002 A 
HETATM   13  C12 UNL     1      23.050   0.393  52.859  1.00  0.00     0.078 A 
HETATM   14  C13 UNL     1      23.846   1.451  52.668  1.00  0.00     0.055 A 
HETATM   15  C14 UNL     1      23.236   2.644  52.488  1.00  0.00     0.041 A 
HETATM   16  O1  UNL     1      22.990  -1.001  53.120  1.00  0.00    -0.350 OA
HETATM   17  C15 UNL     1      21.845  -1.417  53.953  1.00  0.00     0.178 C 
HETATM   18  C16 UNL     1      20.642  -0.611  53.405  1.00  0.00     0.059 C 
HETATM   19  C17 UNL     1      21.145   0.125  52.217  1.00  0.00     0.145 C 
HETATM   20  N4  UNL     1      20.280   0.479  51.172  1.00  0.00    -0.291 NA
HETATM   21  C18 UNL     1      20.869   1.193  50.202  1.00  0.00     0.116 C 
HETATM   22  H8  UNL     1      26.237   2.909  52.386  1.00  0.00     0.166 HD
ENDROOT
BRANCH   1  23
HETATM   23  C2  UNL     1      21.134   1.957  47.920  1.00  0.00     0.109 C 
HETATM   24  C1  UNL     1      19.809   2.701  47.993  1.00  0.00     0.031 C 
HETATM   25 CL1  UNL     1      22.200   2.970  46.868  1.00  0.00    -0.121 Cl
ENDBRANCH   1  23
TORSDOF 1
ENDMDL
MODEL 3
REMARK VINA RESULT:      -7.5      3.061      4.955
REMARK  1 active torsions:
REMARK  status: ('A' for Active; 'I' for Inactive)
REMARK    1  A    between atoms: C2_2  and  C3_4 
ROOT
HETATM    1  C3  UNL     1      22.162   3.764  52.163  1.00  0.00    -0.036 C 
HETATM    2  C4  UNL     1      20.870   4.150  51.901  1.00  0.00     0.053 C 
HETATM    3  C5  UNL     1      19.557   3.602  51.717  1.00  0.00     0.000 C 
HETATM    4  C6  UNL     1      18.481   2.801  51.581  1.00  0.00     0.086 C 
HETATM    5  N1  UNL     1      18.203   1.363  51.589  1.00  0.00    -0.350 N 
HETATM    6  C7  UNL     1      19.367   1.106  50.733  1.00  0.00     0.141 A 
HETATM    7  N2  UNL     1      19.438   1.454  49.431  1.00  0.00    -0.224 NA
HETATM    8  C8  UNL     1      20.650   1.438  48.794  1.00  0.00     0.236 A 
HETATM    9  N3  UNL     1      21.689   1.069  49.551  1.00  0.00    -0.241 NA
HETATM   10  C9  UNL     1      21.545   0.736  50.827  1.00  0.00     0.073 A 
HETATM   11  C10 UNL     1      22.726   0.440  51.459  1.00  0.00     0.045 A 
HETATM   12  C11 UNL     1      21.916   0.256  52.542  1.00  0.00     0.002 A 
HETATM   13  C12 UNL     1      21.108   0.070  53.636  1.00  0.00     0.078 A 
HETATM   14  C13 UNL     1      20.085   0.408  52.844  1.00  0.00     0.055 A 
HETATM   15  C14 UNL     1      20.385   0.706  51.559  1.00  0.00     0.041 A 
HETATM   16  O1  UNL     1      21.501  -0.353  54.933  1.00  0.00    -0.350 OA
HETATM   17  C15 UNL     1      22.660  -1.265  54.952  1.00  0.00     0.178 C 
HETATM   18  C16 UNL     1      23.653  -0.666  53.925  1.00  0.00     0.059 C 
HETATM   19  C17 UNL     1      23.055   0.615  53.470  1.00  0.00     0.145 C 
HETATM   20  N4  UNL     1      23.865   1.664  53.017  1.00  0.00    -0.291 NA
HETATM   21  C18 UNL     1      23.175   2.729  52.583  1.00  0.00     0.116 C 
HETATM   22  H8  UNL     1      17.426   0.935  52.087  1.00  0.00     0.166 HD
ENDROOT
BRANCH   1  23
HETATM   23  C2  UNL     1      22.867   5.093  52.154  1.00  0.00     0.109 C 
HETATM   24  C1  UNL     1      24.146   4.963  51.340  1.00  0.00     0.031 C 
HETATM   25 CL1  UNL     1      21.801   6.205  51.207  1.00  0.00    -0.121 Cl
ENDBRANCH   1  23
TORSDOF 1
ENDMDL
MODEL 4
REMARK VINA RESULT:      -7.4      3.250      5.461
REMARK  1 active torsions:
REMARK  status: ('A' for Active; 'I' for Inactive)
REMARK    1  A    between atoms: C2_2  and  C3_4 
ROOT
HETATM    1  C3  UNL     1      25.827   5.758  49.158  1.00  0.00    -0.036 C 
HETATM    2  C4  UNL     1      25.140   6.934  49.340  1.00  0.00     0.053 C 
HETATM    3  C5  UNL     1      23.958   7.450  49.969  1.00  0.00     0.000 C 
HETATM    4  C6  UNL     1      22.799   7.619  50.636  1.00  0.00     0.086 C 
HETATM    5  N1  UNL     1      21.828   6.774  51.337  1.00  0.00    -0.350 N 
HETATM    6  C7  UNL     1      21.861   5.789  50.249  1.00  0.00     0.141 A 
HETATM    7  N2  UNL     1      21.339   6.001  49.023  1.00  0.00    -0.224 NA
HETATM    8  C8  UNL     1      21.663   5.155  47.996  1.00  0.00     0.236 A 
HETATM    9  N3  UNL     1      22.502   4.163  48.317  1.00  0.00    -0.241 NA
HETATM   10  C9  UNL     1      22.975   4.013  49.547  1.00  0.00     0.073 A 
HETATM   11  C10 UNL     1      23.864   2.976  49.676  1.00  0.00     0.045 A 
HETATM   12  C11 UNL     1      23.921   3.397  50.974  1.00  0.00     0.002 A 
HETATM   13  C12 UNL     1      23.984   3.814  52.280  1.00  0.00     0.078 A 
HETATM   14  C13 UNL     1      23.117   4.773  51.936  1.00  0.00     0.055 A 
HETATM   15  C14 UNL     1      22.710   4.790  50.647  1.00  0.00     0.041 A 
HETATM   16  O1  UNL     1      24.730   3.227  53.335  1.00  0.00    -0.350 OA
HETATM   17  C15 UNL     1      24.901   1.766  53.222  1.00  0.00     0.178 C 
HETATM   18  C16 UNL     1      25.218   1.518  51.727  1.00  0.00     0.059 C 
HETATM   19  C17 UNL     1      25.329   2.859  51.099  1.00  0.00     0.145 C 
HETATM   20  N4  UNL     1      26.129   3.059  49.967  1.00  0.00    -0.291 NA
HETATM   21  C18 UNL     1      26.077   4.308  49.482  1.00  0.00     0.116 C 
HETATM   22  H8  UNL     1      21.424   7.001  52.242  1.00  0.00     0.166 HD
ENDROOT
BRANCH   1  23
HETATM   23  C2  UNL     1      26.984   6.229  48.319  1.00  0.00     0.109 C 
HETATM   24  C1  UNL     1      27.523   7.523  48.911  1.00  0.00     0.031 C 
HETATM   25 CL1  UNL     1      28.292   5.005  48.560  1.00  0.00    -0.121 Cl
ENDBRANCH   1  23
TORSDOF 1
ENDMDL
MODEL 5
REMARK VINA RESULT:      -7.3      9.493     11.788
REMARK  1 active torsions:
REMARK  status: ('A' for Active; 'I' for Inactive)
REMARK    1  A    between atoms: C2_2  and  C3_4 
ROOT
HETATM    1  C3  UNL     1      32.964   6.494  44.825  1.00  0.00    -0.036 C 
HETATM    2  C4  UNL     1      33.943   5.555  45.037  1.00  0.00     0.053 C 
HETATM    3  C5  UNL     1      34.480   4.715  46.069  1.00  0.00     0.000 C 
HETATM    4  C6  UNL     1      34.760   4.080  47.225  1.00  0.00     0.086 C 
HETATM    5  N1  UNL     1      34.280   4.104  48.609  1.00  0.00    -0.350 N 
HETATM    6  C7  UNL     1      34.279   5.572  48.612  1.00  0.00     0.141 A 
HETATM    7  N2  UNL     1      35.397   6.327  48.602  1.00  0.00    -0.224 NA
HETATM    8  C8  UNL     1      35.306   7.663  48.317  1.00  0.00     0.236 A 
HETATM    9  N3  UNL     1      34.071   8.109  48.060  1.00  0.00    -0.241 NA
HETATM   10  C9  UNL     1      33.014   7.308  48.091  1.00  0.00     0.073 A 
HETATM   11  C10 UNL     1      31.840   7.928  47.747  1.00  0.00     0.045 A 
HETATM   12  C11 UNL     1      31.311   6.685  47.946  1.00  0.00     0.002 A 
HETATM   13  C12 UNL     1      30.772   5.438  48.143  1.00  0.00     0.078 A 
HETATM   14  C13 UNL     1      32.014   5.030  48.429  1.00  0.00     0.055 A 
HETATM   15  C14 UNL     1      32.988   5.966  48.374  1.00  0.00     0.041 A 
HETATM   16  O1  UNL     1      29.407   5.066  48.044  1.00  0.00    -0.350 OA
HETATM   17  C15 UNL     1      28.456   6.133  48.411  1.00  0.00     0.178 C 
HETATM   18  C16 UNL     1      29.028   7.416  47.760  1.00  0.00     0.059 C 
HETATM   19  C17 UNL     1      30.203   6.985  46.960  1.00  0.00     0.145 C 
HETATM   20  N4  UNL     1      30.610   7.710  45.833  1.00  0.00    -0.291 NA
HETATM   21  C18 UNL     1      31.721   7.231  45.255  1.00  0.00     0.116 C 
HETATM   22  H8  UNL     1      34.086   3.271  49.160  1.00  0.00     0.166 HD
ENDROOT
BRANCH   1  23
HETATM   23  C2  UNL     1      33.195   6.828  43.376  1.00  0.00     0.109 C 
HETATM   24  C1  UNL     1      34.590   7.416  43.227  1.00  0.00     0.031 C 
HETATM   25 CL1  UNL     1      33.243   5.242  42.510  1.00  0.00    -0.121 Cl
ENDBRANCH   1  23
TORSDOF 1
ENDMDL
MODEL 6
REMARK VINA RESULT:      -7.3      3.068      4.908
REMARK  1 active torsions:
REMARK  status: ('A' for Active; 'I' for Inactive)
REMARK    1  A    between atoms: C2_2  and  C3_4 
ROOT
HETATM    1  C3  UNL     1      22.905   1.672  52.247  1.00  0.00    -0.036 C 
HETATM    2  C4  UNL     1      22.291   0.774  51.407  1.00  0.00     0.053 C 
HETATM    3  C5  UNL     1      21.520   0.724  50.199  1.00  0.00     0.000 C 
HETATM    4  C6  UNL     1      20.818   1.004  49.082  1.00  0.00     0.086 C 
HETATM    5  N1  UNL     1      20.385   2.200  48.355  1.00  0.00    -0.350 N 
HETATM    6  C7  UNL     1      19.975   2.845  49.609  1.00  0.00     0.141 A 
HETATM    7  N2  UNL     1      18.909   2.461  50.341  1.00  0.00    -0.224 NA
HETATM    8  C8  UNL     1      18.771   2.923  51.623  1.00  0.00     0.236 A 
HETATM    9  N3  UNL     1      19.744   3.738  52.045  1.00  0.00    -0.241 NA
HETATM   10  C9  UNL     1      20.763   4.077  51.267  1.00  0.00     0.073 A 
HETATM   11  C10 UNL     1      21.692   4.874  51.887  1.00  0.00     0.045 A 
HETATM   12  C11 UNL     1      22.331   4.791  50.683  1.00  0.00     0.002 A 
HETATM   13  C12 UNL     1      22.981   4.712  49.476  1.00  0.00     0.078 A 
HETATM   14  C13 UNL     1      21.974   3.929  49.072  1.00  0.00     0.055 A 
HETATM   15  C14 UNL     1      20.995   3.685  49.973  1.00  0.00     0.041 A 
HETATM   16  O1  UNL     1      24.192   5.353  49.108  1.00  0.00    -0.350 OA
HETATM   17  C15 UNL     1      24.416   6.657  49.761  1.00  0.00     0.178 C 
HETATM   18  C16 UNL     1      23.991   6.441  51.234  1.00  0.00     0.059 C 
HETATM   19  C17 UNL     1      23.666   4.998  51.364  1.00  0.00     0.145 C 
HETATM   20  N4  UNL     1      23.798   4.339  52.593  1.00  0.00    -0.291 NA
HETATM   21  C18 UNL     1      23.408   3.057  52.564  1.00  0.00     0.116 C 
HETATM   22  H8  UNL     1      20.451   2.309  47.346  1.00  0.00     0.166 HD
ENDROOT
BRANCH   1  23
HETATM   23  C2  UNL     1      23.466   0.748  53.294  1.00  0.00     0.109 C 
HETATM   24  C1  UNL     1      22.622  -0.517  53.333  1.00  0.00     0.031 C 
HETATM   25 CL1  UNL     1      25.084   0.232  52.675  1.00  0.00    -0.121 Cl
ENDBRANCH   1  23
TORSDOF 1
ENDMDL
MODEL 7
REMARK VINA RESULT:      -7.2      7.723     10.074
REMARK  1 active torsions:
REMARK  status: ('A' for Active; 'I' for Inactive)
REMARK    1  A    between atoms: C2_2  and  C3_4 
ROOT
HETATM    1  C3  UNL     1      30.051   9.936  48.768  1.00  0.00    -0.036 C 
HETATM    2  C4  UNL     1      28.875   9.936  49.478  1.00  0.00     0.053 C 
HETATM    3  C5  UNL     1      27.735   9.108  49.749  1.00  0.00     0.000 C 
HETATM    4  C6  UNL     1      26.811   8.126  49.792  1.00  0.00     0.086 C 
HETATM    5  N1  UNL     1      26.605   6.816  49.170  1.00  0.00    -0.350 N 
HETATM    6  C7  UNL     1      26.985   7.350  47.856  1.00  0.00     0.141 A 
HETATM    7  N2  UNL     1      26.228   8.211  47.145  1.00  0.00    -0.224 NA
HETATM    8  C8  UNL     1      26.781   8.873  46.081  1.00  0.00     0.236 A 
HETATM    9  N3  UNL     1      28.067   8.596  45.841  1.00  0.00    -0.241 NA
HETATM   10  C9  UNL     1      28.750   7.732  46.581  1.00  0.00     0.073 A 
HETATM   11  C10 UNL     1      30.069   7.617  46.223  1.00  0.00     0.045 A 
HETATM   12  C11 UNL     1      30.110   6.736  47.265  1.00  0.00     0.002 A 
HETATM   13  C12 UNL     1      30.159   5.849  48.311  1.00  0.00     0.078 A 
HETATM   14  C13 UNL     1      28.863   6.121  48.504  1.00  0.00     0.055 A 
HETATM   15  C14 UNL     1      28.297   7.010  47.657  1.00  0.00     0.041 A 
HETATM   16  O1  UNL     1      31.275   5.083  48.737  1.00  0.00    -0.350 OA
HETATM   17  C15 UNL     1      32.198   4.696  47.654  1.00  0.00     0.178 C 
HETATM   18  C16 UNL     1      32.334   5.965  46.776  1.00  0.00     0.059 C 
HETATM   19  C17 UNL     1      31.577   7.034  47.476  1.00  0.00     0.145 C 
HETATM   20  N4  UNL     1      31.924   8.382  47.316  1.00  0.00    -0.291 NA
HETATM   21  C18 UNL     1      31.110   9.229  47.961  1.00  0.00     0.116 C 
HETATM   22  H8  UNL     1      26.308   5.986  49.677  1.00  0.00     0.166 HD
ENDROOT
BRANCH   1  23
HETATM   23  C2  UNL     1      30.591  11.299  49.108  1.00  0.00     0.109 C 
HETATM   24  C1  UNL     1      31.512  11.753  47.985  1.00  0.00     0.031 C 
HETATM   25 CL1  UNL     1      29.171  12.416  49.051  1.00  0.00    -0.121 Cl
ENDBRANCH   1  23
TORSDOF 1
ENDMDL
MODEL 8
REMARK VINA RESULT:      -7.1      7.886      9.549
REMARK  1 active torsions:
REMARK  status: ('A' for Active; 'I' for Inactive)
REMARK    1  A    between atoms: C2_2  and  C3_4 
ROOT
HETATM    1  C3  UNL     1      28.288   6.836  47.828  1.00  0.00    -0.036 C 
HETATM    2  C4  UNL     1      27.893   7.898  47.052  1.00  0.00     0.053 C 
HETATM    3  C5  UNL     1      28.435   8.957  46.250  1.00  0.00     0.000 C 
HETATM    4  C6  UNL     1      29.232   9.829  45.599  1.00  0.00     0.086 C 
HETATM    5  N1  UNL     1      30.669  10.074  45.458  1.00  0.00    -0.350 N 
HETATM    6  C7  UNL     1      30.867   9.905  46.903  1.00  0.00     0.141 A 
HETATM    7  N2  UNL     1      30.438  10.785  47.831  1.00  0.00    -0.224 NA
HETATM    8  C8  UNL     1      30.409  10.415  49.149  1.00  0.00     0.236 A 
HETATM    9  N3  UNL     1      30.818   9.166  49.401  1.00  0.00    -0.241 NA
HETATM   10  C9  UNL     1      31.231   8.354  48.437  1.00  0.00     0.073 A 
HETATM   11  C10 UNL     1      31.559   7.096  48.875  1.00  0.00     0.045 A 
HETATM   12  C11 UNL     1      31.814   6.876  47.552  1.00  0.00     0.002 A 
HETATM   13  C12 UNL     1      32.072   6.645  46.224  1.00  0.00     0.078 A 
HETATM   14  C13 UNL     1      31.690   7.910  46.008  1.00  0.00     0.055 A 
HETATM   15  C14 UNL     1      31.312   8.623  47.094  1.00  0.00     0.041 A 
HETATM   16  O1  UNL     1      32.572   5.454  45.639  1.00  0.00    -0.350 OA
HETATM   17  C15 UNL     1      33.477   4.680  46.509  1.00  0.00     0.178 C 
HETATM   18  C16 UNL     1      32.811   4.717  47.907  1.00  0.00     0.059 C 
HETATM   19  C17 UNL     1      31.507   5.405  47.725  1.00  0.00     0.145 C 
HETATM   20  N4  UNL     1      30.427   5.134  48.576  1.00  0.00    -0.291 NA
HETATM   21  C18 UNL     1      29.341   5.878  48.323  1.00  0.00     0.116 C 
HETATM   22  H8  UNL     1      31.131  10.265  44.572  1.00  0.00     0.166 HD
ENDROOT
BRANCH   1  23
HETATM   23  C2  UNL     1      26.957   6.303  48.284  1.00  0.00     0.109 C 
HETATM   24  C1  UNL     1      27.161   4.912  48.867  1.00  0.00     0.031 C 
HETATM   25 CL1  UNL     1      26.465   7.344  49.678  1.00  0.00    -0.121 Cl
ENDBRANCH   1  23
TORSDOF 1
ENDMDL
MODEL 9
REMARK VINA RESULT:      -7.1      9.805     12.042
REMARK  1 active torsions:
REMARK  status: ('A' for Active; 'I' for Inactive)
REMARK    1  A    between atoms: C2_2  and  C3_4 
ROOT
HETATM    1  C3  UNL     1      33.530   7.573  45.390  1.00  0.00    -0.036 C 
HETATM    2  C4  UNL     1      33.556   6.298  44.879  1.00  0.00     0.053 C 
HETATM    3  C5  UNL     1      33.119   4.965  45.180  1.00  0.00     0.000 C 
HETATM    4  C6  UNL     1      32.601   3.854  45.741  1.00  0.00     0.086 C 
HETATM    5  N1  UNL     1      31.916   3.496  46.986  1.00  0.00    -0.350 N 
HETATM    6  C7  UNL     1      32.876   4.283  47.771  1.00  0.00     0.141 A 
HETATM    7  N2  UNL     1      34.166   3.934  47.954  1.00  0.00    -0.224 NA
HETATM    8  C8  UNL     1      35.050   4.855  48.449  1.00  0.00     0.236 A 
HETATM    9  N3  UNL     1      34.532   6.061  48.709  1.00  0.00    -0.241 NA
HETATM   10  C9  UNL     1      33.249   6.333  48.508  1.00  0.00     0.073 A 
HETATM   11  C10 UNL     1      32.911   7.635  48.777  1.00  0.00     0.045 A 
HETATM   12  C11 UNL     1      31.670   7.228  48.378  1.00  0.00     0.002 A 
HETATM   13  C12 UNL     1      30.420   6.826  47.978  1.00  0.00     0.078 A 
HETATM   14  C13 UNL     1      30.960   5.621  47.761  1.00  0.00     0.055 A 
HETATM   15  C14 UNL     1      32.279   5.489  48.030  1.00  0.00     0.041 A 
HETATM   16  O1  UNL     1      29.233   7.602  47.957  1.00  0.00    -0.350 OA
HETATM   17  C15 UNL     1      29.161   8.635  49.008  1.00  0.00     0.178 C 
HETATM   18  C16 UNL     1      30.576   9.261  49.047  1.00  0.00     0.059 C 
HETATM   19  C17 UNL     1      31.337   8.635  47.936  1.00  0.00     0.145 C 
HETATM   20  N4  UNL     1      32.393   9.314  47.316  1.00  0.00    -0.291 NA
HETATM   21  C18 UNL     1      33.019   8.594  46.374  1.00  0.00     0.116 C 
HETATM   22  H8  UNL     1      31.090   2.905  47.032  1.00  0.00     0.166 HD
ENDROOT
BRANCH   1  23
HETATM   23  C2  UNL     1      34.290   8.323  44.330  1.00  0.00     0.109 C 
HETATM   24  C1  UNL     1      33.310   9.175  43.537  1.00  0.00     0.031 C 
HETATM   25 CL1  UNL     1      35.341   9.495  45.218  1.00  0.00    -0.121 Cl
ENDBRANCH   1  23
TORSDOF 1
ENDMDL
