MODEL 1
REMARK VINA RESULT:      -7.3      0.000      0.000
REMARK  5 active torsions:
REMARK  status: ('A' for Active; 'I' for Inactive)
REMARK    1  A    between atoms: C1_2  and  C2_3 
REMARK       I    between atoms: C1_2  and  N1_11 
REMARK    2  A    between atoms: C2_3  and  C3_4 
REMARK    3  A    between atoms: N1_11  and  O2_12 
REMARK    4  A    between atoms: O2_12  and  N2_13 
REMARK    5  A    between atoms: N2_13  and  C9_14 
ROOT
HETATM    1  O1  UNL     1      26.276  -1.197  53.705  1.00  0.00    -0.271 OA
HETATM    2  C1  UNL     1      25.644  -0.699  54.696  1.00  0.00     0.247 C 
HETATM    3  N1  UNL     1      26.264   0.502  55.198  1.00  0.00    -0.209 N 
HETATM    4  H7  UNL     1      25.783   0.961  56.023  1.00  0.00     0.200 HD
ENDROOT
BRANCH   3   5
HETATM    5  O2  UNL     1      27.404   1.059  54.676  1.00  0.00    -0.154 OA
BRANCH   5   6
HETATM    6  N2  UNL     1      27.076   2.301  54.193  1.00  0.00    -0.242 N 
HETATM    7  H8  UNL     1      27.446   3.120  54.726  1.00  0.00     0.197 HD
BRANCH   6   8
HETATM    8  C9  UNL     1      26.270   2.525  53.016  1.00  0.00     0.056 A 
HETATM    9  C10 UNL     1      26.826   2.235  51.786  1.00  0.00     0.033 A 
HETATM   10  C11 UNL     1      26.051   2.449  50.660  1.00  0.00     0.021 A 
HETATM   11  C12 UNL     1      24.760   2.937  50.769  1.00  0.00     0.011 A 
HETATM   12 BR2  UNL     1      23.631   3.260  49.285  1.00  0.00    -0.051 Br
HETATM   13  C13 UNL     1      24.235   3.217  52.026  1.00  0.00     0.021 A 
HETATM   14  C14 UNL     1      24.988   3.014  53.181  1.00  0.00     0.033 A 
ENDBRANCH   6   8
ENDBRANCH   5   6
ENDBRANCH   3   5
BRANCH   2  15
HETATM   15  C2  UNL     1      24.413  -1.199  55.345  1.00  0.00     0.143 C 
BRANCH  15  16
HETATM   16  C3  UNL     1      23.258  -0.827  54.493  1.00  0.00    -0.049 A 
HETATM   17  C4  UNL     1      22.014  -1.348  54.842  1.00  0.00     0.009 A 
HETATM   18  C5  UNL     1      20.851  -1.090  54.143  1.00  0.00     0.019 A 
HETATM   19  C6  UNL     1      20.887  -0.279  53.041  1.00  0.00     0.011 A 
HETATM   20 BR1  UNL     1      19.286   0.081  52.074  1.00  0.00    -0.051 Br
HETATM   21  C7  UNL     1      22.108   0.248  52.679  1.00  0.00     0.019 A 
HETATM   22  C8  UNL     1      23.270  -0.016  53.382  1.00  0.00     0.009 A 
ENDBRANCH  15  16
ENDBRANCH   2  15
TORSDOF 5
ENDMDL
MODEL 2
REMARK VINA RESULT:      -7.2      1.142      4.852
REMARK  5 active torsions:
REMARK  status: ('A' for Active; 'I' for Inactive)
REMARK    1  A    between atoms: C1_2  and  C2_3 
REMARK       I    between atoms: C1_2  and  N1_11 
REMARK    2  A    between atoms: C2_3  and  C3_4 
REMARK    3  A    between atoms: N1_11  and  O2_12 
REMARK    4  A    between atoms: O2_12  and  N2_13 
REMARK    5  A    between atoms: N2_13  and  C9_14 
ROOT
HETATM    1  O1  UNL     1      27.898  -0.268  53.716  1.00  0.00    -0.271 OA
HETATM    2  C1  UNL     1      27.375   0.849  54.044  1.00  0.00     0.247 C 
HETATM    3  N1  UNL     1      26.449   0.722  55.143  1.00  0.00    -0.209 N 
HETATM    4  H7  UNL     1      25.982   1.619  55.460  1.00  0.00     0.200 HD
ENDROOT
BRANCH   3   5
HETATM    5  O2  UNL     1      26.156  -0.460  55.774  1.00  0.00    -0.154 OA
BRANCH   5   6
HETATM    6  N2  UNL     1      25.470  -1.246  54.883  1.00  0.00    -0.242 N 
HETATM    7  H8  UNL     1      25.984  -2.070  54.496  1.00  0.00     0.197 HD
BRANCH   6   8
HETATM    8  C9  UNL     1      24.110  -1.000  54.466  1.00  0.00     0.056 A 
HETATM    9  C10 UNL     1      23.901  -0.521  53.188  1.00  0.00     0.033 A 
HETATM   10  C11 UNL     1      22.597  -0.288  52.790  1.00  0.00     0.021 A 
HETATM   11  C12 UNL     1      21.538  -0.529  53.650  1.00  0.00     0.011 A 
HETATM   12 BR2  UNL     1      19.725  -0.239  53.191  1.00  0.00    -0.051 Br
HETATM   13  C13 UNL     1      21.789  -1.013  54.930  1.00  0.00     0.021 A 
HETATM   14  C14 UNL     1      23.090  -1.258  55.363  1.00  0.00     0.033 A 
ENDBRANCH   6   8
ENDBRANCH   5   6
ENDBRANCH   3   5
BRANCH   2  15
HETATM   15  C2  UNL     1      27.608   2.182  53.449  1.00  0.00     0.143 C 
BRANCH  15  16
HETATM   16  C3  UNL     1      26.494   2.473  52.516  1.00  0.00    -0.049 A 
HETATM   17  C4  UNL     1      26.792   2.503  51.155  1.00  0.00     0.009 A 
HETATM   18  C5  UNL     1      25.858   2.761  50.171  1.00  0.00     0.019 A 
HETATM   19  C6  UNL     1      24.556   3.004  50.517  1.00  0.00     0.011 A 
HETATM   20 BR1  UNL     1      23.263   3.359  49.163  1.00  0.00    -0.051 Br
HETATM   21  C7  UNL     1      24.239   2.978  51.858  1.00  0.00     0.019 A 
HETATM   22  C8  UNL     1      25.179   2.720  52.840  1.00  0.00     0.009 A 
ENDBRANCH  15  16
ENDBRANCH   2  15
TORSDOF 5
ENDMDL
MODEL 3
REMARK VINA RESULT:      -7.2      3.987      5.291
REMARK  5 active torsions:
REMARK  status: ('A' for Active; 'I' for Inactive)
REMARK    1  A    between atoms: C1_2  and  C2_3 
REMARK       I    between atoms: C1_2  and  N1_11 
REMARK    2  A    between atoms: C2_3  and  C3_4 
REMARK    3  A    between atoms: N1_11  and  O2_12 
REMARK    4  A    between atoms: O2_12  and  N2_13 
REMARK    5  A    between atoms: N2_13  and  C9_14 
ROOT
HETATM    1  O1  UNL     1      23.061   1.405  51.037  1.00  0.00    -0.271 OA
HETATM    2  C1  UNL     1      23.617   1.518  52.181  1.00  0.00     0.247 C 
HETATM    3  N1  UNL     1      24.168   2.833  52.398  1.00  0.00    -0.209 N 
HETATM    4  H7  UNL     1      24.645   2.985  53.332  1.00  0.00     0.200 HD
ENDROOT
BRANCH   3   5
HETATM    5  O2  UNL     1      24.108   3.856  51.487  1.00  0.00    -0.154 OA
BRANCH   5   6
HETATM    6  N2  UNL     1      24.923   3.524  50.434  1.00  0.00    -0.242 N 
HETATM    7  H8  UNL     1      24.911   2.522  50.134  1.00  0.00     0.197 HD
BRANCH   6   8
HETATM    8  C9  UNL     1      25.772   4.462  49.739  1.00  0.00     0.056 A 
HETATM    9  C10 UNL     1      25.340   5.769  49.632  1.00  0.00     0.033 A 
HETATM   10  C11 UNL     1      26.155   6.667  48.968  1.00  0.00     0.021 A 
HETATM   11  C12 UNL     1      27.365   6.262  48.428  1.00  0.00     0.011 A 
HETATM   12 BR2  UNL     1      28.542   7.421  47.503  1.00  0.00    -0.051 Br
HETATM   13  C13 UNL     1      27.766   4.937  48.556  1.00  0.00     0.021 A 
HETATM   14  C14 UNL     1      26.969   4.006  49.220  1.00  0.00     0.033 A 
ENDBRANCH   6   8
ENDBRANCH   5   6
ENDBRANCH   3   5
BRANCH   2  15
HETATM   15  C2  UNL     1      23.745   0.498  53.243  1.00  0.00     0.143 C 
BRANCH  15  16
HETATM   16  C3  UNL     1      25.187   0.230  53.455  1.00  0.00    -0.049 A 
HETATM   17  C4  UNL     1      25.884  -0.377  52.414  1.00  0.00     0.009 A 
HETATM   18  C5  UNL     1      27.230  -0.687  52.468  1.00  0.00     0.019 A 
HETATM   19  C6  UNL     1      27.949  -0.393  53.595  1.00  0.00     0.011 A 
HETATM   20 BR1  UNL     1      29.804  -0.818  53.676  1.00  0.00    -0.051 Br
HETATM   21  C7  UNL     1      27.278   0.209  54.638  1.00  0.00     0.019 A 
HETATM   22  C8  UNL     1      25.930   0.516  54.579  1.00  0.00     0.009 A 
ENDBRANCH  15  16
ENDBRANCH   2  15
TORSDOF 5
ENDMDL
MODEL 4
REMARK VINA RESULT:      -7.1      4.012      5.204
REMARK  5 active torsions:
REMARK  status: ('A' for Active; 'I' for Inactive)
REMARK    1  A    between atoms: C1_2  and  C2_3 
REMARK       I    between atoms: C1_2  and  N1_11 
REMARK    2  A    between atoms: C2_3  and  C3_4 
REMARK    3  A    between atoms: N1_11  and  O2_12 
REMARK    4  A    between atoms: O2_12  and  N2_13 
REMARK    5  A    between atoms: N2_13  and  C9_14 
ROOT
HETATM    1  O1  UNL     1      23.152   2.740  52.931  1.00  0.00    -0.271 OA
HETATM    2  C1  UNL     1      23.643   1.635  52.524  1.00  0.00     0.247 C 
HETATM    3  N1  UNL     1      24.077   1.697  51.150  1.00  0.00    -0.209 N 
HETATM    4  H7  UNL     1      24.493   0.806  50.756  1.00  0.00     0.200 HD
ENDROOT
BRANCH   3   5
HETATM    5  O2  UNL     1      23.981   2.814  50.360  1.00  0.00    -0.154 OA
BRANCH   5   6
HETATM    6  N2  UNL     1      24.851   3.751  50.858  1.00  0.00    -0.242 N 
HETATM    7  H8  UNL     1      24.873   3.859  51.898  1.00  0.00     0.197 HD
BRANCH   6   8
HETATM    8  C9  UNL     1      25.715   4.570  50.042  1.00  0.00     0.056 A 
HETATM    9  C10 UNL     1      26.799   3.966  49.437  1.00  0.00     0.033 A 
HETATM   10  C11 UNL     1      27.624   4.752  48.654  1.00  0.00     0.021 A 
HETATM   11  C12 UNL     1      27.366   6.102  48.484  1.00  0.00     0.011 A 
HETATM   12 BR2  UNL     1      28.440   7.252  47.433  1.00  0.00    -0.051 Br
HETATM   13  C13 UNL     1      26.264   6.675  49.110  1.00  0.00     0.021 A 
HETATM   14  C14 UNL     1      25.413   5.912  49.906  1.00  0.00     0.033 A 
ENDBRANCH   6   8
ENDBRANCH   5   6
ENDBRANCH   3   5
BRANCH   2  15
HETATM   15  C2  UNL     1      23.802   0.370  53.273  1.00  0.00     0.143 C 
BRANCH  15  16
HETATM   16  C3  UNL     1      25.243   0.026  53.299  1.00  0.00    -0.049 A 
HETATM   17  C4  UNL     1      26.076   0.821  54.083  1.00  0.00     0.009 A 
HETATM   18  C5  UNL     1      27.437   0.621  54.203  1.00  0.00     0.019 A 
HETATM   19  C6  UNL     1      28.034  -0.410  53.529  1.00  0.00     0.011 A 
HETATM   20 BR1  UNL     1      29.911  -0.691  53.692  1.00  0.00    -0.051 Br
HETATM   21  C7  UNL     1      27.228  -1.210  52.748  1.00  0.00     0.019 A 
HETATM   22  C8  UNL     1      25.865  -1.004  52.629  1.00  0.00     0.009 A 
ENDBRANCH  15  16
ENDBRANCH   2  15
TORSDOF 5
ENDMDL
MODEL 5
REMARK VINA RESULT:      -7.1      3.980      6.675
REMARK  5 active torsions:
REMARK  status: ('A' for Active; 'I' for Inactive)
REMARK    1  A    between atoms: C1_2  and  C2_3 
REMARK       I    between atoms: C1_2  and  N1_11 
REMARK    2  A    between atoms: C2_3  and  C3_4 
REMARK    3  A    between atoms: N1_11  and  O2_12 
REMARK    4  A    between atoms: O2_12  and  N2_13 
REMARK    5  A    between atoms: N2_13  and  C9_14 
ROOT
HETATM    1  O1  UNL     1      24.488   3.489  52.212  1.00  0.00    -0.271 OA
HETATM    2  C1  UNL     1      23.980   2.688  51.357  1.00  0.00     0.247 C 
HETATM    3  N1  UNL     1      23.374   1.535  51.974  1.00  0.00    -0.209 N 
HETATM    4  H7  UNL     1      22.936   0.833  51.312  1.00  0.00     0.200 HD
ENDROOT
BRANCH   3   5
HETATM    5  O2  UNL     1      23.338   1.312  53.327  1.00  0.00    -0.154 OA
BRANCH   5   6
HETATM    6  N2  UNL     1      23.943   0.102  53.564  1.00  0.00    -0.242 N 
HETATM    7  H8  UNL     1      23.308  -0.708  53.747  1.00  0.00     0.197 HD
BRANCH   6   8
HETATM    8  C9  UNL     1      25.372  -0.101  53.570  1.00  0.00     0.056 A 
HETATM    9  C10 UNL     1      25.896  -1.033  52.696  1.00  0.00     0.033 A 
HETATM   10  C11 UNL     1      27.266  -1.226  52.702  1.00  0.00     0.021 A 
HETATM   11  C12 UNL     1      28.080  -0.503  53.558  1.00  0.00     0.011 A 
HETATM   12 BR2  UNL     1      29.961  -0.701  53.634  1.00  0.00    -0.051 Br
HETATM   13  C13 UNL     1      27.515   0.427  54.423  1.00  0.00     0.021 A 
HETATM   14  C14 UNL     1      26.139   0.645  54.443  1.00  0.00     0.033 A 
ENDBRANCH   6   8
ENDBRANCH   5   6
ENDBRANCH   3   5
BRANCH   2  15
HETATM   15  C2  UNL     1      23.952   2.816  49.885  1.00  0.00     0.143 C 
BRANCH  15  16
HETATM   16  C3  UNL     1      25.041   3.735  49.478  1.00  0.00    -0.049 A 
HETATM   17  C4  UNL     1      24.681   5.030  49.114  1.00  0.00     0.009 A 
HETATM   18  C5  UNL     1      25.585   5.995  48.713  1.00  0.00     0.019 A 
HETATM   19  C6  UNL     1      26.920   5.694  48.662  1.00  0.00     0.011 A 
HETATM   20 BR1  UNL     1      28.171   7.021  48.111  1.00  0.00    -0.051 Br
HETATM   21  C7  UNL     1      27.298   4.419  49.020  1.00  0.00     0.019 A 
HETATM   22  C8  UNL     1      26.388   3.456  49.419  1.00  0.00     0.009 A 
ENDBRANCH  15  16
ENDBRANCH   2  15
TORSDOF 5
ENDMDL
MODEL 6
REMARK VINA RESULT:      -7.0      4.120      7.009
REMARK  5 active torsions:
REMARK  status: ('A' for Active; 'I' for Inactive)
REMARK    1  A    between atoms: C1_2  and  C2_3 
REMARK       I    between atoms: C1_2  and  N1_11 
REMARK    2  A    between atoms: C2_3  and  C3_4 
REMARK    3  A    between atoms: N1_11  and  O2_12 
REMARK    4  A    between atoms: O2_12  and  N2_13 
REMARK    5  A    between atoms: N2_13  and  C9_14 
ROOT
HETATM    1  O1  UNL     1      23.873   4.616  51.985  1.00  0.00    -0.271 OA
HETATM    2  C1  UNL     1      23.825   3.721  51.076  1.00  0.00     0.247 C 
HETATM    3  N1  UNL     1      23.742   2.388  51.621  1.00  0.00    -0.209 N 
HETATM    4  H7  UNL     1      23.700   1.601  50.913  1.00  0.00     0.200 HD
ENDROOT
BRANCH   3   5
HETATM    5  O2  UNL     1      23.716   2.102  52.963  1.00  0.00    -0.154 OA
BRANCH   5   6
HETATM    6  N2  UNL     1      24.921   2.489  53.493  1.00  0.00    -0.242 N 
HETATM    7  H8  UNL     1      24.961   3.448  53.906  1.00  0.00     0.197 HD
BRANCH   6   8
HETATM    8  C9  UNL     1      26.102   1.660  53.509  1.00  0.00     0.056 A 
HETATM    9  C10 UNL     1      27.333   2.286  53.479  1.00  0.00     0.033 A 
HETATM   10  C11 UNL     1      28.464   1.490  53.497  1.00  0.00     0.021 A 
HETATM   11  C12 UNL     1      28.359   0.109  53.544  1.00  0.00     0.011 A 
HETATM   12 BR2  UNL     1      29.851  -1.056  53.571  1.00  0.00    -0.051 Br
HETATM   13  C13 UNL     1      27.103  -0.484  53.574  1.00  0.00     0.021 A 
HETATM   14  C14 UNL     1      25.943   0.288  53.557  1.00  0.00     0.033 A 
ENDBRANCH   6   8
ENDBRANCH   5   6
ENDBRANCH   3   5
BRANCH   2  15
HETATM   15  C2  UNL     1      23.844   3.899  49.609  1.00  0.00     0.143 C 
BRANCH  15  16
HETATM   16  C3  UNL     1      25.140   4.511  49.234  1.00  0.00    -0.049 A 
HETATM   17  C4  UNL     1      25.124   5.840  48.820  1.00  0.00     0.009 A 
HETATM   18  C5  UNL     1      26.253   6.540  48.440  1.00  0.00     0.019 A 
HETATM   19  C6  UNL     1      27.474   5.922  48.462  1.00  0.00     0.011 A 
HETATM   20 BR1  UNL     1      29.034   6.882  47.940  1.00  0.00    -0.051 Br
HETATM   21  C7  UNL     1      27.513   4.606  48.869  1.00  0.00     0.019 A 
HETATM   22  C8  UNL     1      26.379   3.909  49.247  1.00  0.00     0.009 A 
ENDBRANCH  15  16
ENDBRANCH   2  15
TORSDOF 5
ENDMDL
MODEL 7
REMARK VINA RESULT:      -6.7      3.782      6.866
REMARK  5 active torsions:
REMARK  status: ('A' for Active; 'I' for Inactive)
REMARK    1  A    between atoms: C1_2  and  C2_3 
REMARK       I    between atoms: C1_2  and  N1_11 
REMARK    2  A    between atoms: C2_3  and  C3_4 
REMARK    3  A    between atoms: N1_11  and  O2_12 
REMARK    4  A    between atoms: O2_12  and  N2_13 
REMARK    5  A    between atoms: N2_13  and  C9_14 
ROOT
HETATM    1  O1  UNL     1      22.279   0.363  51.818  1.00  0.00    -0.271 OA
HETATM    2  C1  UNL     1      22.899   0.607  52.907  1.00  0.00     0.247 C 
HETATM    3  N1  UNL     1      22.473  -0.250  53.987  1.00  0.00    -0.209 N 
HETATM    4  H7  UNL     1      22.953  -0.092  54.919  1.00  0.00     0.200 HD
ENDROOT
BRANCH   3   5
HETATM    5  O2  UNL     1      21.513  -1.222  53.869  1.00  0.00    -0.154 OA
BRANCH   5   6
HETATM    6  N2  UNL     1      20.301  -0.645  54.158  1.00  0.00    -0.242 N 
HETATM    7  H8  UNL     1      20.243  -0.108  55.052  1.00  0.00     0.197 HD
BRANCH   6   8
HETATM    8  C9  UNL     1      19.137  -0.738  53.309  1.00  0.00     0.056 A 
HETATM    9  C10 UNL     1      18.186  -1.691  53.617  1.00  0.00     0.033 A 
HETATM   10  C11 UNL     1      17.071  -1.777  52.803  1.00  0.00     0.021 A 
HETATM   11  C12 UNL     1      16.918  -0.932  51.717  1.00  0.00     0.011 A 
HETATM   12 BR2  UNL     1      15.427  -0.980  50.552  1.00  0.00    -0.051 Br
HETATM   13  C13 UNL     1      17.897   0.015  51.439  1.00  0.00     0.021 A 
HETATM   14  C14 UNL     1      19.033   0.129  52.238  1.00  0.00     0.033 A 
ENDBRANCH   6   8
ENDBRANCH   5   6
ENDBRANCH   3   5
BRANCH   2  15
HETATM   15  C2  UNL     1      23.947   1.618  53.161  1.00  0.00     0.143 C 
BRANCH  15  16
HETATM   16  C3  UNL     1      25.261   0.934  53.157  1.00  0.00    -0.049 A 
HETATM   17  C4  UNL     1      26.083   1.122  54.265  1.00  0.00     0.009 A 
HETATM   18  C5  UNL     1      27.333   0.549  54.400  1.00  0.00     0.019 A 
HETATM   19  C6  UNL     1      27.821  -0.256  53.407  1.00  0.00     0.011 A 
HETATM   20 BR1  UNL     1      29.544  -1.050  53.588  1.00  0.00    -0.051 Br
HETATM   21  C7  UNL     1      27.024  -0.457  52.301  1.00  0.00     0.019 A 
HETATM   22  C8  UNL     1      25.773   0.121  52.171  1.00  0.00     0.009 A 
ENDBRANCH  15  16
ENDBRANCH   2  15
TORSDOF 5
ENDMDL
MODEL 8
REMARK VINA RESULT:      -6.7      3.111      5.076
REMARK  5 active torsions:
REMARK  status: ('A' for Active; 'I' for Inactive)
REMARK    1  A    between atoms: C1_2  and  C2_3 
REMARK       I    between atoms: C1_2  and  N1_11 
REMARK    2  A    between atoms: C2_3  and  C3_4 
REMARK    3  A    between atoms: N1_11  and  O2_12 
REMARK    4  A    between atoms: O2_12  and  N2_13 
REMARK    5  A    between atoms: N2_13  and  C9_14 
ROOT
HETATM    1  O1  UNL     1      25.474   5.487  50.113  1.00  0.00    -0.271 OA
HETATM    2  C1  UNL     1      24.979   4.510  49.457  1.00  0.00     0.247 C 
HETATM    3  N1  UNL     1      25.834   3.349  49.468  1.00  0.00    -0.209 N 
HETATM    4  H7  UNL     1      25.474   2.505  48.938  1.00  0.00     0.200 HD
ENDROOT
BRANCH   3   5
HETATM    5  O2  UNL     1      27.046   3.288  50.109  1.00  0.00    -0.154 OA
BRANCH   5   6
HETATM    6  N2  UNL     1      26.798   3.184  51.455  1.00  0.00    -0.242 N 
HETATM    7  H8  UNL     1      27.324   3.840  52.076  1.00  0.00     0.197 HD
BRANCH   6   8
HETATM    8  C9  UNL     1      25.873   2.243  52.038  1.00  0.00     0.056 A 
HETATM    9  C10 UNL     1      24.719   2.740  52.612  1.00  0.00     0.033 A 
HETATM   10  C11 UNL     1      23.833   1.837  53.168  1.00  0.00     0.021 A 
HETATM   11  C12 UNL     1      24.098   0.477  53.148  1.00  0.00     0.011 A 
HETATM   12 BR2  UNL     1      22.943  -0.829  53.885  1.00  0.00    -0.051 Br
HETATM   13  C13 UNL     1      25.270   0.014  52.560  1.00  0.00     0.021 A 
HETATM   14  C14 UNL     1      26.185   0.898  51.991  1.00  0.00     0.033 A 
ENDBRANCH   6   8
ENDBRANCH   5   6
ENDBRANCH   3   5
BRANCH   2  15
HETATM   15  C2  UNL     1      23.693   4.451  48.731  1.00  0.00     0.143 C 
BRANCH  15  16
HETATM   16  C3  UNL     1      22.751   3.625  49.524  1.00  0.00    -0.049 A 
HETATM   17  C4  UNL     1      22.713   2.260  49.252  1.00  0.00     0.009 A 
HETATM   18  C5  UNL     1      21.886   1.369  49.909  1.00  0.00     0.019 A 
HETATM   19  C6  UNL     1      21.045   1.821  50.890  1.00  0.00     0.011 A 
HETATM   20 BR1  UNL     1      19.903   0.597  51.800  1.00  0.00    -0.051 Br
HETATM   21  C7  UNL     1      21.067   3.169  51.176  1.00  0.00     0.019 A 
HETATM   22  C8  UNL     1      21.897   4.057  50.514  1.00  0.00     0.009 A 
ENDBRANCH  15  16
ENDBRANCH   2  15
TORSDOF 5
ENDMDL
MODEL 9
REMARK VINA RESULT:      -6.7      4.035      7.818
REMARK  5 active torsions:
REMARK  status: ('A' for Active; 'I' for Inactive)
REMARK    1  A    between atoms: C1_2  and  C2_3 
REMARK       I    between atoms: C1_2  and  N1_11 
REMARK    2  A    between atoms: C2_3  and  C3_4 
REMARK    3  A    between atoms: N1_11  and  O2_12 
REMARK    4  A    between atoms: O2_12  and  N2_13 
REMARK    5  A    between atoms: N2_13  and  C9_14 
ROOT
HETATM    1  O1  UNL     1      26.929   2.312  49.295  1.00  0.00    -0.271 OA
HETATM    2  C1  UNL     1      26.532   3.382  49.868  1.00  0.00     0.247 C 
HETATM    3  N1  UNL     1      26.762   3.363  51.291  1.00  0.00    -0.209 N 
HETATM    4  H7  UNL     1      26.451   4.226  51.822  1.00  0.00     0.200 HD
ENDROOT
BRANCH   3   5
HETATM    5  O2  UNL     1      27.343   2.319  51.966  1.00  0.00    -0.154 OA
BRANCH   5   6
HETATM    6  N2  UNL     1      26.636   1.183  51.660  1.00  0.00    -0.242 N 
HETATM    7  H8  UNL     1      27.021   0.588  50.892  1.00  0.00     0.197 HD
BRANCH   6   8
HETATM    8  C9  UNL     1      25.422   0.779  52.330  1.00  0.00     0.056 A 
HETATM    9  C10 UNL     1      24.230   1.323  51.894  1.00  0.00     0.033 A 
HETATM   10  C11 UNL     1      23.069   0.933  52.535  1.00  0.00     0.021 A 
HETATM   11  C12 UNL     1      23.106   0.026  53.581  1.00  0.00     0.011 A 
HETATM   12 BR2  UNL     1      21.569  -0.563  54.516  1.00  0.00    -0.051 Br
HETATM   13  C13 UNL     1      24.326  -0.500  53.992  1.00  0.00     0.021 A 
HETATM   14  C14 UNL     1      25.515  -0.129  53.368  1.00  0.00     0.033 A 
ENDBRANCH   6   8
ENDBRANCH   5   6
ENDBRANCH   3   5
BRANCH   2  15
HETATM   15  C2  UNL     1      25.898   4.569  49.257  1.00  0.00     0.143 C 
BRANCH  15  16
HETATM   16  C3  UNL     1      26.971   5.465  48.763  1.00  0.00    -0.049 A 
HETATM   17  C4  UNL     1      26.671   6.820  48.653  1.00  0.00     0.009 A 
HETATM   18  C5  UNL     1      27.569   7.771  48.208  1.00  0.00     0.019 A 
HETATM   19  C6  UNL     1      28.835   7.394  47.849  1.00  0.00     0.011 A 
HETATM   20 BR1  UNL     1      30.077   8.701  47.236  1.00  0.00    -0.051 Br
HETATM   21  C7  UNL     1      29.153   6.057  47.951  1.00  0.00     0.019 A 
HETATM   22  C8  UNL     1      28.249   5.108  48.396  1.00  0.00     0.009 A 
ENDBRANCH  15  16
ENDBRANCH   2  15
TORSDOF 5
ENDMDL
