MODEL 1
REMARK VINA RESULT:      -8.2      0.000      0.000
REMARK  9 active torsions:
REMARK  status: ('A' for Active; 'I' for Inactive)
REMARK    1  A    between atoms: C2_2  and  C3_3 
REMARK       I    between atoms: C3_3  and  N1_5 
REMARK    2  A    between atoms: N1_5  and  C4_6 
REMARK    3  A    between atoms: C7_9  and  C8_10 
REMARK    4  A    between atoms: C8_10  and  C9_11 
REMARK    5  A    between atoms: C10_12  and  O2_13 
REMARK    6  A    between atoms: C12_17  and  C13_18 
REMARK    7  A    between atoms: C13_18  and  C14_19 
REMARK    8  A    between atoms: C13_18  and  C15_21 
REMARK    9  A    between atoms: C14_19  and  O3_20 
ROOT
HETATM    1  C9  UNL     1      21.830   2.183  51.470  1.00  0.00     0.024 A 
HETATM    2  C10 UNL     1      20.796   2.371  52.364  1.00  0.00     0.172 A 
HETATM    3  N2  UNL     1      20.012   3.469  52.180  1.00  0.00    -0.217 NA
HETATM    4  C11 UNL     1      20.280   4.298  51.157  1.00  0.00     0.236 A 
HETATM    5  N3  UNL     1      21.293   4.090  50.303  1.00  0.00    -0.245 NA
HETATM    6  C12 UNL     1      22.128   3.011  50.418  1.00  0.00     0.057 A 
ENDROOT
BRANCH   1   7
HETATM    7  C8  UNL     1      22.642   0.985  51.686  1.00  0.00     0.079 C 
BRANCH   7   8
HETATM    8  C7  UNL     1      23.867   1.347  52.475  1.00  0.00    -0.070 A 
HETATM    9  C6  UNL     1      24.217   2.623  53.137  1.00  0.00     0.064 A 
HETATM   10  C5  UNL     1      25.549   2.337  53.754  1.00  0.00     0.007 A 
HETATM   11  C4  UNL     1      25.954   1.102  53.516  1.00  0.00     0.031 A 
HETATM   12  C22 UNL     1      24.890   0.509  52.720  1.00  0.00     0.032 A 
BRANCH  11  13
HETATM   13  N1  UNL     1      27.142   0.430  53.913  1.00  0.00    -0.324 N 
HETATM   14  C3  UNL     1      28.413   0.907  53.507  1.00  0.00     0.244 C 
HETATM   15  O1  UNL     1      28.686   1.908  52.796  1.00  0.00    -0.268 OA
HETATM   16  H4  UNL     1      27.192  -0.438  54.514  1.00  0.00     0.169 HD
BRANCH  14  17
HETATM   17  C2  UNL     1      29.686   0.273  53.872  1.00  0.00     0.064 C 
HETATM   18  C1  UNL     1      29.657  -1.000  53.459  1.00  0.00     0.017 C 
ENDBRANCH  14  17
ENDBRANCH  11  13
ENDBRANCH   7   8
ENDBRANCH   1   7
BRANCH   2  19
HETATM   19  O2  UNL     1      20.556   1.487  53.406  1.00  0.00    -0.344 OA
HETATM   20  H10 UNL     1      20.620   1.752  54.373  1.00  0.00     0.219 HD
ENDBRANCH   2  19
BRANCH   6  21
HETATM   21  C13 UNL     1      23.168   2.891  49.417  1.00  0.00     0.095 C 
BRANCH  21  22
HETATM   22  C14 UNL     1      22.614   2.430  48.063  1.00  0.00     0.179 C 
BRANCH  22  23
HETATM   23  O3  UNL     1      21.506   1.636  48.314  1.00  0.00    -0.400 OA
HETATM   24  H15 UNL     1      21.644   1.141  49.160  1.00  0.00     0.209 HD
ENDBRANCH  22  23
ENDBRANCH  21  22
BRANCH  21  25
HETATM   25  C15 UNL     1      24.111   3.966  49.190  1.00  0.00    -0.040 A 
HETATM   26  C16 UNL     1      23.681   5.191  48.643  1.00  0.00     0.008 A 
HETATM   27  C17 UNL     1      24.410   6.321  48.389  1.00  0.00     0.001 A 
HETATM   28  C18 UNL     1      25.744   6.282  48.698  1.00  0.00     0.001 A 
HETATM   29  C19 UNL     1      26.253   5.140  49.232  1.00  0.00     0.007 A 
HETATM   30  C20 UNL     1      25.460   4.010  49.472  1.00  0.00    -0.055 A 
HETATM   31  C21 UNL     1      26.095   2.814  50.033  1.00  0.00     0.049 C 
ENDBRANCH  21  25
ENDBRANCH   6  21
TORSDOF 9
ENDMDL
MODEL 2
REMARK VINA RESULT:      -8.1      1.667      2.771
REMARK  9 active torsions:
REMARK  status: ('A' for Active; 'I' for Inactive)
REMARK    1  A    between atoms: C2_2  and  C3_3 
REMARK       I    between atoms: C3_3  and  N1_5 
REMARK    2  A    between atoms: N1_5  and  C4_6 
REMARK    3  A    between atoms: C7_9  and  C8_10 
REMARK    4  A    between atoms: C8_10  and  C9_11 
REMARK    5  A    between atoms: C10_12  and  O2_13 
REMARK    6  A    between atoms: C12_17  and  C13_18 
REMARK    7  A    between atoms: C13_18  and  C14_19 
REMARK    8  A    between atoms: C13_18  and  C15_21 
REMARK    9  A    between atoms: C14_19  and  O3_20 
ROOT
HETATM    1  C9  UNL     1      23.012   2.802  50.917  1.00  0.00     0.024 A 
HETATM    2  C10 UNL     1      21.825   2.273  50.453  1.00  0.00     0.172 A 
HETATM    3  N2  UNL     1      21.684   2.163  49.103  1.00  0.00    -0.217 NA
HETATM    4  C11 UNL     1      22.688   2.567  48.307  1.00  0.00     0.236 A 
HETATM    5  N3  UNL     1      23.832   3.078  48.787  1.00  0.00    -0.245 NA
HETATM    6  C12 UNL     1      24.053   3.224  50.130  1.00  0.00     0.057 A 
ENDROOT
BRANCH   1   7
HETATM    7  C8  UNL     1      23.138   2.891  52.373  1.00  0.00     0.079 C 
BRANCH   7   8
HETATM    8  C7  UNL     1      23.762   1.630  52.897  1.00  0.00    -0.070 A 
HETATM    9  C6  UNL     1      23.241   0.245  52.884  1.00  0.00     0.064 A 
HETATM   10  C5  UNL     1      24.330  -0.540  53.543  1.00  0.00     0.007 A 
HETATM   11  C4  UNL     1      25.346   0.223  53.904  1.00  0.00     0.031 A 
HETATM   12  C22 UNL     1      24.967   1.566  53.491  1.00  0.00     0.032 A 
BRANCH  11  13
HETATM   13  N1  UNL     1      26.567  -0.113  54.549  1.00  0.00    -0.324 N 
HETATM   14  C3  UNL     1      27.801  -0.010  53.861  1.00  0.00     0.244 C 
HETATM   15  O1  UNL     1      28.013   0.360  52.678  1.00  0.00    -0.268 OA
HETATM   16  H4  UNL     1      26.669  -0.452  55.545  1.00  0.00     0.169 HD
BRANCH  14  17
HETATM   17  C2  UNL     1      29.104  -0.337  54.454  1.00  0.00     0.064 C 
HETATM   18  C1  UNL     1      29.865  -0.908  53.512  1.00  0.00     0.017 C 
ENDBRANCH  14  17
ENDBRANCH  11  13
ENDBRANCH   7   8
ENDBRANCH   1   7
BRANCH   2  19
HETATM   19  O2  UNL     1      20.815   1.868  51.313  1.00  0.00    -0.344 OA
HETATM   20  H10 UNL     1      20.805   0.968  51.760  1.00  0.00     0.219 HD
ENDBRANCH   2  19
BRANCH   6  21
HETATM   21  C13 UNL     1      25.339   3.767  50.516  1.00  0.00     0.095 C 
BRANCH  21  22
HETATM   22  C14 UNL     1      26.449   2.709  50.470  1.00  0.00     0.179 C 
BRANCH  22  23
HETATM   23  O3  UNL     1      27.313   2.965  51.523  1.00  0.00    -0.400 OA
HETATM   24  H15 UNL     1      26.879   2.701  52.374  1.00  0.00     0.209 HD
ENDBRANCH  22  23
ENDBRANCH  21  22
BRANCH  21  25
HETATM   25  C15 UNL     1      25.839   4.990  49.925  1.00  0.00    -0.040 A 
HETATM   26  C16 UNL     1      26.878   4.951  48.974  1.00  0.00     0.008 A 
HETATM   27  C17 UNL     1      27.455   5.986  48.289  1.00  0.00     0.001 A 
HETATM   28  C18 UNL     1      26.975   7.244  48.546  1.00  0.00     0.001 A 
HETATM   29  C19 UNL     1      25.969   7.383  49.451  1.00  0.00     0.007 A 
HETATM   30  C20 UNL     1      25.415   6.286  50.124  1.00  0.00    -0.055 A 
HETATM   31  C21 UNL     1      24.345   6.529  51.097  1.00  0.00     0.049 C 
ENDBRANCH  21  25
ENDBRANCH   6  21
TORSDOF 9
ENDMDL
MODEL 3
REMARK VINA RESULT:      -7.8      2.197      4.336
REMARK  9 active torsions:
REMARK  status: ('A' for Active; 'I' for Inactive)
REMARK    1  A    between atoms: C2_2  and  C3_3 
REMARK       I    between atoms: C3_3  and  N1_5 
REMARK    2  A    between atoms: N1_5  and  C4_6 
REMARK    3  A    between atoms: C7_9  and  C8_10 
REMARK    4  A    between atoms: C8_10  and  C9_11 
REMARK    5  A    between atoms: C10_12  and  O2_13 
REMARK    6  A    between atoms: C12_17  and  C13_18 
REMARK    7  A    between atoms: C13_18  and  C14_19 
REMARK    8  A    between atoms: C13_18  and  C15_21 
REMARK    9  A    between atoms: C14_19  and  O3_20 
ROOT
HETATM    1  C9  UNL     1      22.365   4.827  51.952  1.00  0.00     0.024 A 
HETATM    2  C10 UNL     1      22.948   5.908  51.323  1.00  0.00     0.172 A 
HETATM    3  N2  UNL     1      22.287   6.430  50.253  1.00  0.00    -0.217 NA
HETATM    4  C11 UNL     1      21.124   5.875  49.870  1.00  0.00     0.236 A 
HETATM    5  N3  UNL     1      20.581   4.823  50.501  1.00  0.00    -0.245 NA
HETATM    6  C12 UNL     1      21.181   4.240  51.585  1.00  0.00     0.057 A 
ENDROOT
BRANCH   1   7
HETATM    7  C8  UNL     1      23.092   4.301  53.109  1.00  0.00     0.079 C 
BRANCH   7   8
HETATM    8  C7  UNL     1      24.134   3.325  52.643  1.00  0.00    -0.070 A 
HETATM    9  C6  UNL     1      24.647   3.076  51.278  1.00  0.00     0.064 A 
HETATM   10  C5  UNL     1      25.665   2.000  51.483  1.00  0.00     0.007 A 
HETATM   11  C4  UNL     1      25.765   1.643  52.751  1.00  0.00     0.031 A 
HETATM   12  C22 UNL     1      24.802   2.482  53.450  1.00  0.00     0.032 A 
BRANCH  11  13
HETATM   13  N1  UNL     1      26.597   0.673  53.372  1.00  0.00    -0.324 N 
HETATM   14  C3  UNL     1      27.799   1.057  54.015  1.00  0.00     0.244 C 
HETATM   15  O1  UNL     1      28.293   2.208  54.139  1.00  0.00    -0.268 OA
HETATM   16  H4  UNL     1      26.413  -0.367  53.413  1.00  0.00     0.169 HD
BRANCH  14  17
HETATM   17  C2  UNL     1      28.714   0.120  54.680  1.00  0.00     0.064 C 
HETATM   18  C1  UNL     1      29.536  -0.393  53.757  1.00  0.00     0.017 C 
ENDBRANCH  14  17
ENDBRANCH  11  13
ENDBRANCH   7   8
ENDBRANCH   1   7
BRANCH   2  19
HETATM   19  O2  UNL     1      24.151   6.447  51.754  1.00  0.00    -0.344 OA
HETATM   20  H10 UNL     1      24.210   7.152  52.468  1.00  0.00     0.219 HD
ENDBRANCH   2  19
BRANCH   6  21
HETATM   21  C13 UNL     1      20.479   3.126  52.188  1.00  0.00     0.095 C 
BRANCH  21  22
HETATM   22  C14 UNL     1      19.102   2.900  51.550  1.00  0.00     0.179 C 
BRANCH  22  23
HETATM   23  O3  UNL     1      18.228   3.820  52.107  1.00  0.00    -0.400 OA
HETATM   24  H15 UNL     1      18.258   3.743  53.094  1.00  0.00     0.209 HD
ENDBRANCH  22  23
ENDBRANCH  21  22
BRANCH  21  25
HETATM   25  C15 UNL     1      21.126   1.843  52.361  1.00  0.00    -0.040 A 
HETATM   26  C16 UNL     1      21.228   1.261  53.641  1.00  0.00     0.008 A 
HETATM   27  C17 UNL     1      21.770   0.056  53.996  1.00  0.00     0.001 A 
HETATM   28  C18 UNL     1      22.293  -0.710  52.987  1.00  0.00     0.001 A 
HETATM   29  C19 UNL     1      22.240  -0.233  51.715  1.00  0.00     0.007 A 
HETATM   30  C20 UNL     1      21.673   1.011  51.408  1.00  0.00    -0.055 A 
HETATM   31  C21 UNL     1      21.674   1.457  50.011  1.00  0.00     0.049 C 
ENDBRANCH  21  25
ENDBRANCH   6  21
TORSDOF 9
ENDMDL
MODEL 4
REMARK VINA RESULT:      -7.5      2.394      4.205
REMARK  9 active torsions:
REMARK  status: ('A' for Active; 'I' for Inactive)
REMARK    1  A    between atoms: C2_2  and  C3_3 
REMARK       I    between atoms: C3_3  and  N1_5 
REMARK    2  A    between atoms: N1_5  and  C4_6 
REMARK    3  A    between atoms: C7_9  and  C8_10 
REMARK    4  A    between atoms: C8_10  and  C9_11 
REMARK    5  A    between atoms: C10_12  and  O2_13 
REMARK    6  A    between atoms: C12_17  and  C13_18 
REMARK    7  A    between atoms: C13_18  and  C14_19 
REMARK    8  A    between atoms: C13_18  and  C15_21 
REMARK    9  A    between atoms: C14_19  and  O3_20 
ROOT
HETATM    1  C9  UNL     1      22.569   5.737  51.422  1.00  0.00     0.024 A 
HETATM    2  C10 UNL     1      23.476   6.756  51.219  1.00  0.00     0.172 A 
HETATM    3  N2  UNL     1      23.262   7.570  50.148  1.00  0.00    -0.217 NA
HETATM    4  C11 UNL     1      22.198   7.342  49.359  1.00  0.00     0.236 A 
HETATM    5  N3  UNL     1      21.332   6.342  49.581  1.00  0.00    -0.245 NA
HETATM    6  C12 UNL     1      21.476   5.480  50.635  1.00  0.00     0.057 A 
ENDROOT
BRANCH   1   7
HETATM    7  C8  UNL     1      22.819   4.892  52.591  1.00  0.00     0.079 C 
BRANCH   7   8
HETATM    8  C7  UNL     1      23.785   3.803  52.223  1.00  0.00    -0.070 A 
HETATM    9  C6  UNL     1      24.350   3.453  50.901  1.00  0.00     0.064 A 
HETATM   10  C5  UNL     1      25.244   2.293  51.204  1.00  0.00     0.007 A 
HETATM   11  C4  UNL     1      25.234   1.978  52.487  1.00  0.00     0.031 A 
HETATM   12  C22 UNL     1      24.320   2.932  53.097  1.00  0.00     0.032 A 
BRANCH  11  13
HETATM   13  N1  UNL     1      25.930   0.957  53.190  1.00  0.00    -0.324 N 
HETATM   14  C3  UNL     1      27.110   1.254  53.915  1.00  0.00     0.244 C 
HETATM   15  O1  UNL     1      27.692   2.361  54.051  1.00  0.00    -0.268 OA
HETATM   16  H4  UNL     1      25.653  -0.062  53.238  1.00  0.00     0.169 HD
BRANCH  14  17
HETATM   17  C2  UNL     1      27.887   0.260  54.666  1.00  0.00     0.064 C 
HETATM   18  C1  UNL     1      28.793  -0.279  53.842  1.00  0.00     0.017 C 
ENDBRANCH  14  17
ENDBRANCH  11  13
ENDBRANCH   7   8
ENDBRANCH   1   7
BRANCH   2  19
HETATM   19  O2  UNL     1      24.561   6.953  52.061  1.00  0.00    -0.344 OA
HETATM   20  H10 UNL     1      25.509   6.776  51.782  1.00  0.00     0.219 HD
ENDBRANCH   2  19
BRANCH   6  21
HETATM   21  C13 UNL     1      20.459   4.458  50.775  1.00  0.00     0.095 C 
BRANCH  21  22
HETATM   22  C14 UNL     1      19.135   4.869  50.116  1.00  0.00     0.179 C 
BRANCH  22  23
HETATM   23  O3  UNL     1      18.107   4.370  50.900  1.00  0.00    -0.400 OA
HETATM   24  H15 UNL     1      17.570   3.731  50.366  1.00  0.00     0.209 HD
ENDBRANCH  22  23
ENDBRANCH  21  22
BRANCH  21  25
HETATM   25  C15 UNL     1      20.737   3.079  50.437  1.00  0.00    -0.040 A 
HETATM   26  C16 UNL     1      21.095   2.723  49.121  1.00  0.00     0.008 A 
HETATM   27  C17 UNL     1      21.422   1.492  48.622  1.00  0.00     0.001 A 
HETATM   28  C18 UNL     1      21.404   0.441  49.502  1.00  0.00     0.001 A 
HETATM   29  C19 UNL     1      21.070   0.686  50.798  1.00  0.00     0.007 A 
HETATM   30  C20 UNL     1      20.743   1.970  51.255  1.00  0.00    -0.055 A 
HETATM   31  C21 UNL     1      20.377   2.140  52.664  1.00  0.00     0.049 C 
ENDBRANCH  21  25
ENDBRANCH   6  21
TORSDOF 9
ENDMDL
MODEL 5
REMARK VINA RESULT:      -7.5      2.706      5.937
REMARK  9 active torsions:
REMARK  status: ('A' for Active; 'I' for Inactive)
REMARK    1  A    between atoms: C2_2  and  C3_3 
REMARK       I    between atoms: C3_3  and  N1_5 
REMARK    2  A    between atoms: N1_5  and  C4_6 
REMARK    3  A    between atoms: C7_9  and  C8_10 
REMARK    4  A    between atoms: C8_10  and  C9_11 
REMARK    5  A    between atoms: C10_12  and  O2_13 
REMARK    6  A    between atoms: C12_17  and  C13_18 
REMARK    7  A    between atoms: C13_18  and  C14_19 
REMARK    8  A    between atoms: C13_18  and  C15_21 
REMARK    9  A    between atoms: C14_19  and  O3_20 
ROOT
HETATM    1  C9  UNL     1      22.640   3.229  50.020  1.00  0.00     0.024 A 
HETATM    2  C10 UNL     1      21.413   3.331  49.397  1.00  0.00     0.172 A 
HETATM    3  N2  UNL     1      20.313   3.361  50.199  1.00  0.00    -0.217 NA
HETATM    4  C11 UNL     1      20.475   3.292  51.532  1.00  0.00     0.236 A 
HETATM    5  N3  UNL     1      21.682   3.194  52.110  1.00  0.00    -0.245 NA
HETATM    6  C12 UNL     1      22.837   3.157  51.376  1.00  0.00     0.057 A 
ENDROOT
BRANCH   1   7
HETATM    7  C8  UNL     1      23.802   3.217  49.130  1.00  0.00     0.079 C 
BRANCH   7   8
HETATM    8  C7  UNL     1      24.367   4.604  49.028  1.00  0.00    -0.070 A 
HETATM    9  C6  UNL     1      23.723   5.851  48.561  1.00  0.00     0.064 A 
HETATM   10  C5  UNL     1      24.803   6.874  48.710  1.00  0.00     0.007 A 
HETATM   11  C4  UNL     1      25.921   6.354  49.184  1.00  0.00     0.031 A 
HETATM   12  C22 UNL     1      25.623   4.942  49.372  1.00  0.00     0.032 A 
BRANCH  11  13
HETATM   13  N1  UNL     1      27.172   6.965  49.473  1.00  0.00    -0.324 N 
HETATM   14  C3  UNL     1      27.987   7.471  48.431  1.00  0.00     0.244 C 
HETATM   15  O1  UNL     1      27.770   7.470  47.192  1.00  0.00    -0.268 OA
HETATM   16  H4  UNL     1      27.591   7.094  50.434  1.00  0.00     0.169 HD
BRANCH  14  17
HETATM   17  C2  UNL     1      29.289   8.115  48.643  1.00  0.00     0.064 C 
HETATM   18  C1  UNL     1      29.097   9.230  49.359  1.00  0.00     0.017 C 
ENDBRANCH  14  17
ENDBRANCH  11  13
ENDBRANCH   7   8
ENDBRANCH   1   7
BRANCH   2  19
HETATM   19  O2  UNL     1      21.294   3.399  48.017  1.00  0.00    -0.344 OA
HETATM   20  H10 UNL     1      20.422   3.265  47.536  1.00  0.00     0.219 HD
ENDBRANCH   2  19
BRANCH   6  21
HETATM   21  C13 UNL     1      24.074   3.073  52.125  1.00  0.00     0.095 C 
BRANCH  21  22
HETATM   22  C14 UNL     1      24.028   3.913  53.408  1.00  0.00     0.179 C 
BRANCH  22  23
HETATM   23  O3  UNL     1      23.767   5.223  53.041  1.00  0.00    -0.400 OA
HETATM   24  H15 UNL     1      23.707   5.280  52.053  1.00  0.00     0.209 HD
ENDBRANCH  22  23
ENDBRANCH  21  22
BRANCH  21  25
HETATM   25  C15 UNL     1      24.675   1.793  52.429  1.00  0.00    -0.040 A 
HETATM   26  C16 UNL     1      23.977   0.840  53.199  1.00  0.00     0.008 A 
HETATM   27  C17 UNL     1      24.363  -0.423  53.559  1.00  0.00     0.001 A 
HETATM   28  C18 UNL     1      25.594  -0.843  53.127  1.00  0.00     0.001 A 
HETATM   29  C19 UNL     1      26.343   0.009  52.376  1.00  0.00     0.007 A 
HETATM   30  C20 UNL     1      25.898   1.293  52.036  1.00  0.00    -0.055 A 
HETATM   31  C21 UNL     1      26.778   2.151  51.238  1.00  0.00     0.049 C 
ENDBRANCH  21  25
ENDBRANCH   6  21
TORSDOF 9
ENDMDL
MODEL 6
REMARK VINA RESULT:      -7.5      2.726      5.933
REMARK  9 active torsions:
REMARK  status: ('A' for Active; 'I' for Inactive)
REMARK    1  A    between atoms: C2_2  and  C3_3 
REMARK       I    between atoms: C3_3  and  N1_5 
REMARK    2  A    between atoms: N1_5  and  C4_6 
REMARK    3  A    between atoms: C7_9  and  C8_10 
REMARK    4  A    between atoms: C8_10  and  C9_11 
REMARK    5  A    between atoms: C10_12  and  O2_13 
REMARK    6  A    between atoms: C12_17  and  C13_18 
REMARK    7  A    between atoms: C13_18  and  C14_19 
REMARK    8  A    between atoms: C13_18  and  C15_21 
REMARK    9  A    between atoms: C14_19  and  O3_20 
ROOT
HETATM    1  C9  UNL     1      22.600   3.618  49.814  1.00  0.00     0.024 A 
HETATM    2  C10 UNL     1      21.652   4.030  48.900  1.00  0.00     0.172 A 
HETATM    3  N2  UNL     1      20.640   4.811  49.368  1.00  0.00    -0.217 NA
HETATM    4  C11 UNL     1      20.617   5.136  50.672  1.00  0.00     0.236 A 
HETATM    5  N3  UNL     1      21.553   4.722  51.538  1.00  0.00    -0.245 NA
HETATM    6  C12 UNL     1      22.602   3.933  51.149  1.00  0.00     0.057 A 
ENDROOT
BRANCH   1   7
HETATM    7  C8  UNL     1      23.682   2.794  49.275  1.00  0.00     0.079 C 
BRANCH   7   8
HETATM    8  C7  UNL     1      24.950   3.598  49.236  1.00  0.00    -0.070 A 
HETATM    9  C6  UNL     1      26.354   3.148  49.352  1.00  0.00     0.064 A 
HETATM   10  C5  UNL     1      27.135   4.418  49.226  1.00  0.00     0.007 A 
HETATM   11  C4  UNL     1      26.354   5.469  49.062  1.00  0.00     0.031 A 
HETATM   12  C22 UNL     1      25.001   4.932  49.072  1.00  0.00     0.032 A 
BRANCH  11  13
HETATM   13  N1  UNL     1      26.680   6.844  48.903  1.00  0.00    -0.324 N 
HETATM   14  C3  UNL     1      26.207   7.810  49.825  1.00  0.00     0.244 C 
HETATM   15  O1  UNL     1      25.488   7.640  50.843  1.00  0.00    -0.268 OA
HETATM   16  H4  UNL     1      27.271   7.256  48.130  1.00  0.00     0.169 HD
BRANCH  14  17
HETATM   17  C2  UNL     1      26.497   9.247  49.733  1.00  0.00     0.064 C 
HETATM   18  C1  UNL     1      27.808   9.426  49.937  1.00  0.00     0.017 C 
ENDBRANCH  14  17
ENDBRANCH  11  13
ENDBRANCH   7   8
ENDBRANCH   1   7
BRANCH   2  19
HETATM   19  O2  UNL     1      21.717   3.669  47.562  1.00  0.00    -0.344 OA
HETATM   20  H10 UNL     1      21.231   2.874  47.186  1.00  0.00     0.219 HD
ENDBRANCH   2  19
BRANCH   6  21
HETATM   21  C13 UNL     1      23.556   3.576  52.179  1.00  0.00     0.095 C 
BRANCH  21  22
HETATM   22  C14 UNL     1      23.546   4.573  53.345  1.00  0.00     0.179 C 
BRANCH  22  23
HETATM   23  O3  UNL     1      24.008   5.786  52.860  1.00  0.00    -0.400 OA
HETATM   24  H15 UNL     1      24.994   5.747  52.768  1.00  0.00     0.209 HD
ENDBRANCH  22  23
ENDBRANCH  21  22
BRANCH  21  25
HETATM   25  C15 UNL     1      23.602   2.233  52.718  1.00  0.00    -0.040 A 
HETATM   26  C16 UNL     1      22.411   1.518  52.959  1.00  0.00     0.008 A 
HETATM   27  C17 UNL     1      22.255   0.243  53.429  1.00  0.00     0.001 A 
HETATM   28  C18 UNL     1      23.398  -0.458  53.714  1.00  0.00     0.001 A 
HETATM   29  C19 UNL     1      24.599   0.149  53.513  1.00  0.00     0.007 A 
HETATM   30  C20 UNL     1      24.700   1.460  53.028  1.00  0.00    -0.055 A 
HETATM   31  C21 UNL     1      26.034   2.043  52.858  1.00  0.00     0.049 C 
ENDBRANCH  21  25
ENDBRANCH   6  21
TORSDOF 9
ENDMDL
MODEL 7
REMARK VINA RESULT:      -7.4      2.444      6.600
REMARK  9 active torsions:
REMARK  status: ('A' for Active; 'I' for Inactive)
REMARK    1  A    between atoms: C2_2  and  C3_3 
REMARK       I    between atoms: C3_3  and  N1_5 
REMARK    2  A    between atoms: N1_5  and  C4_6 
REMARK    3  A    between atoms: C7_9  and  C8_10 
REMARK    4  A    between atoms: C8_10  and  C9_11 
REMARK    5  A    between atoms: C10_12  and  O2_13 
REMARK    6  A    between atoms: C12_17  and  C13_18 
REMARK    7  A    between atoms: C13_18  and  C14_19 
REMARK    8  A    between atoms: C13_18  and  C15_21 
REMARK    9  A    between atoms: C14_19  and  O3_20 
ROOT
HETATM    1  C9  UNL     1      23.495  -0.705  53.562  1.00  0.00     0.024 A 
HETATM    2  C10 UNL     1      22.581  -1.271  54.426  1.00  0.00     0.172 A 
HETATM    3  N2  UNL     1      23.007  -1.535  55.692  1.00  0.00    -0.217 NA
HETATM    4  C11 UNL     1      24.273  -1.235  56.029  1.00  0.00     0.236 A 
HETATM    5  N3  UNL     1      25.141  -0.684  55.168  1.00  0.00    -0.245 NA
HETATM    6  C12 UNL     1      24.792  -0.389  53.877  1.00  0.00     0.057 A 
ENDROOT
BRANCH   1   7
HETATM    7  C8  UNL     1      23.000  -0.419  52.215  1.00  0.00     0.079 C 
BRANCH   7   8
HETATM    8  C7  UNL     1      22.285   0.902  52.216  1.00  0.00    -0.070 A 
HETATM    9  C6  UNL     1      21.110   1.336  53.004  1.00  0.00     0.064 A 
HETATM   10  C5  UNL     1      20.897   2.747  52.555  1.00  0.00     0.007 A 
HETATM   11  C4  UNL     1      21.782   3.121  51.649  1.00  0.00     0.031 A 
HETATM   12  C22 UNL     1      22.632   1.956  51.456  1.00  0.00     0.032 A 
BRANCH  11  13
HETATM   13  N1  UNL     1      21.937   4.361  50.970  1.00  0.00    -0.324 N 
HETATM   14  C3  UNL     1      22.876   5.320  51.422  1.00  0.00     0.244 C 
HETATM   15  O1  UNL     1      23.659   5.252  52.404  1.00  0.00    -0.268 OA
HETATM   16  H4  UNL     1      21.400   4.670  50.114  1.00  0.00     0.169 HD
BRANCH  14  17
HETATM   17  C2  UNL     1      23.098   6.622  50.779  1.00  0.00     0.064 C 
HETATM   18  C1  UNL     1      24.325   7.047  51.099  1.00  0.00     0.017 C 
ENDBRANCH  14  17
ENDBRANCH  11  13
ENDBRANCH   7   8
ENDBRANCH   1   7
BRANCH   2  19
HETATM   19  O2  UNL     1      21.283  -1.564  54.033  1.00  0.00    -0.344 OA
HETATM   20  H10 UNL     1      21.063  -2.272  53.355  1.00  0.00     0.219 HD
ENDBRANCH   2  19
BRANCH   6  21
HETATM   21  C13 UNL     1      25.816   0.226  53.058  1.00  0.00     0.095 C 
BRANCH  21  22
HETATM   22  C14 UNL     1      25.750   1.758  53.103  1.00  0.00     0.179 C 
BRANCH  22  23
HETATM   23  O3  UNL     1      25.757   2.136  54.436  1.00  0.00    -0.400 OA
HETATM   24  H15 UNL     1      26.549   1.742  54.883  1.00  0.00     0.209 HD
ENDBRANCH  22  23
ENDBRANCH  21  22
BRANCH  21  25
HETATM   25  C15 UNL     1      27.201  -0.182  53.166  1.00  0.00    -0.040 A 
HETATM   26  C16 UNL     1      28.171   0.710  53.667  1.00  0.00     0.008 A 
HETATM   27  C17 UNL     1      29.508   0.499  53.871  1.00  0.00     0.001 A 
HETATM   28  C18 UNL     1      29.996  -0.741  53.552  1.00  0.00     0.001 A 
HETATM   29  C19 UNL     1      29.134  -1.672  53.061  1.00  0.00     0.007 A 
HETATM   30  C20 UNL     1      27.772  -1.401  52.872  1.00  0.00    -0.055 A 
HETATM   31  C21 UNL     1      26.918  -2.456  52.320  1.00  0.00     0.049 C 
ENDBRANCH  21  25
ENDBRANCH   6  21
TORSDOF 9
ENDMDL
MODEL 8
REMARK VINA RESULT:      -7.4      2.441      5.776
REMARK  9 active torsions:
REMARK  status: ('A' for Active; 'I' for Inactive)
REMARK    1  A    between atoms: C2_2  and  C3_3 
REMARK       I    between atoms: C3_3  and  N1_5 
REMARK    2  A    between atoms: N1_5  and  C4_6 
REMARK    3  A    between atoms: C7_9  and  C8_10 
REMARK    4  A    between atoms: C8_10  and  C9_11 
REMARK    5  A    between atoms: C10_12  and  O2_13 
REMARK    6  A    between atoms: C12_17  and  C13_18 
REMARK    7  A    between atoms: C13_18  and  C14_19 
REMARK    8  A    between atoms: C13_18  and  C15_21 
REMARK    9  A    between atoms: C14_19  and  O3_20 
ROOT
HETATM    1  C9  UNL     1      21.867   2.121  50.224  1.00  0.00     0.024 A 
HETATM    2  C10 UNL     1      20.545   1.871  49.921  1.00  0.00     0.172 A 
HETATM    3  N2  UNL     1      19.675   1.796  50.966  1.00  0.00    -0.217 NA
HETATM    4  C11 UNL     1      20.140   1.966  52.215  1.00  0.00     0.236 A 
HETATM    5  N3  UNL     1      21.433   2.208  52.480  1.00  0.00    -0.245 NA
HETATM    6  C12 UNL     1      22.371   2.298  51.487  1.00  0.00     0.057 A 
ENDROOT
BRANCH   1   7
HETATM    7  C8  UNL     1      22.772   2.212  49.077  1.00  0.00     0.079 C 
BRANCH   7   8
HETATM    8  C7  UNL     1      22.974   3.655  48.714  1.00  0.00    -0.070 A 
HETATM    9  C6  UNL     1      22.030   4.611  48.094  1.00  0.00     0.064 A 
HETATM   10  C5  UNL     1      22.826   5.874  48.004  1.00  0.00     0.007 A 
HETATM   11  C4  UNL     1      24.049   5.727  48.483  1.00  0.00     0.031 A 
HETATM   12  C22 UNL     1      24.114   4.340  48.917  1.00  0.00     0.032 A 
BRANCH  11  13
HETATM   13  N1  UNL     1      25.115   6.661  48.588  1.00  0.00    -0.324 N 
HETATM   14  C3  UNL     1      25.427   7.265  49.831  1.00  0.00     0.244 C 
HETATM   15  O1  UNL     1      24.873   7.098  50.948  1.00  0.00    -0.268 OA
HETATM   16  H4  UNL     1      25.742   6.978  47.799  1.00  0.00     0.169 HD
BRANCH  14  17
HETATM   17  C2  UNL     1      26.510   8.238  50.025  1.00  0.00     0.064 C 
HETATM   18  C1  UNL     1      27.445   8.020  49.092  1.00  0.00     0.017 C 
ENDBRANCH  14  17
ENDBRANCH  11  13
ENDBRANCH   7   8
ENDBRANCH   1   7
BRANCH   2  19
HETATM   19  O2  UNL     1      20.109   1.703  48.615  1.00  0.00    -0.344 OA
HETATM   20  H10 UNL     1      19.353   2.232  48.218  1.00  0.00     0.219 HD
ENDBRANCH   2  19
BRANCH   6  21
HETATM   21  C13 UNL     1      23.727   2.586  51.907  1.00  0.00     0.095 C 
BRANCH  21  22
HETATM   22  C14 UNL     1      23.771   3.597  53.060  1.00  0.00     0.179 C 
BRANCH  22  23
HETATM   23  O3  UNL     1      24.161   4.817  52.531  1.00  0.00    -0.400 OA
HETATM   24  H15 UNL     1      23.801   5.548  53.095  1.00  0.00     0.209 HD
ENDBRANCH  22  23
ENDBRANCH  21  22
BRANCH  21  25
HETATM   25  C15 UNL     1      24.662   1.518  52.190  1.00  0.00    -0.040 A 
HETATM   26  C16 UNL     1      24.281   0.430  53.000  1.00  0.00     0.008 A 
HETATM   27  C17 UNL     1      25.006  -0.676  53.350  1.00  0.00     0.001 A 
HETATM   28  C18 UNL     1      26.283  -0.762  52.859  1.00  0.00     0.001 A 
HETATM   29  C19 UNL     1      26.742   0.242  52.065  1.00  0.00     0.007 A 
HETATM   30  C20 UNL     1      25.954   1.354  51.739  1.00  0.00    -0.055 A 
HETATM   31  C21 UNL     1      26.535   2.400  50.891  1.00  0.00     0.049 C 
ENDBRANCH  21  25
ENDBRANCH   6  21
TORSDOF 9
ENDMDL
MODEL 9
REMARK VINA RESULT:      -7.3      2.834      6.050
REMARK  9 active torsions:
REMARK  status: ('A' for Active; 'I' for Inactive)
REMARK    1  A    between atoms: C2_2  and  C3_3 
REMARK       I    between atoms: C3_3  and  N1_5 
REMARK    2  A    between atoms: N1_5  and  C4_6 
REMARK    3  A    between atoms: C7_9  and  C8_10 
REMARK    4  A    between atoms: C8_10  and  C9_11 
REMARK    5  A    between atoms: C10_12  and  O2_13 
REMARK    6  A    between atoms: C12_17  and  C13_18 
REMARK    7  A    between atoms: C13_18  and  C14_19 
REMARK    8  A    between atoms: C13_18  and  C15_21 
REMARK    9  A    between atoms: C14_19  and  O3_20 
ROOT
HETATM    1  C9  UNL     1      24.728   2.858  51.988  1.00  0.00     0.024 A 
HETATM    2  C10 UNL     1      25.834   2.043  52.109  1.00  0.00     0.172 A 
HETATM    3  N2  UNL     1      26.884   2.298  51.279  1.00  0.00    -0.217 NA
HETATM    4  C11 UNL     1      26.789   3.311  50.402  1.00  0.00     0.236 A 
HETATM    5  N3  UNL     1      25.700   4.088  50.306  1.00  0.00    -0.245 NA
HETATM    6  C12 UNL     1      24.603   3.898  51.103  1.00  0.00     0.057 A 
ENDROOT
BRANCH   1   7
HETATM    7  C8  UNL     1      23.625   2.567  52.906  1.00  0.00     0.079 C 
BRANCH   7   8
HETATM    8  C7  UNL     1      22.579   1.761  52.191  1.00  0.00    -0.070 A 
HETATM    9  C6  UNL     1      22.622   1.145  50.847  1.00  0.00     0.064 A 
HETATM   10  C5  UNL     1      21.286   0.482  50.729  1.00  0.00     0.007 A 
HETATM   11  C4  UNL     1      20.546   0.656  51.809  1.00  0.00     0.031 A 
HETATM   12  C22 UNL     1      21.373   1.455  52.701  1.00  0.00     0.032 A 
BRANCH  11  13
HETATM   13  N1  UNL     1      19.234   0.201  52.110  1.00  0.00    -0.324 N 
HETATM   14  C3  UNL     1      19.027  -0.831  53.059  1.00  0.00     0.244 C 
HETATM   15  O1  UNL     1      19.880  -1.461  53.735  1.00  0.00    -0.268 OA
HETATM   16  H4  UNL     1      18.338   0.563  51.682  1.00  0.00     0.169 HD
BRANCH  14  17
HETATM   17  C2  UNL     1      17.706  -1.358  53.427  1.00  0.00     0.064 C 
HETATM   18  C1  UNL     1      17.832  -2.665  53.688  1.00  0.00     0.017 C 
ENDBRANCH  14  17
ENDBRANCH  11  13
ENDBRANCH   7   8
ENDBRANCH   1   7
BRANCH   2  19
HETATM   19  O2  UNL     1      25.887   1.008  53.031  1.00  0.00    -0.344 OA
HETATM   20  H10 UNL     1      25.087   0.701  53.556  1.00  0.00     0.219 HD
ENDBRANCH   2  19
BRANCH   6  21
HETATM   21  C13 UNL     1      23.502   4.821  50.914  1.00  0.00     0.095 C 
BRANCH  21  22
HETATM   22  C14 UNL     1      23.970   6.282  50.905  1.00  0.00     0.179 C 
BRANCH  22  23
HETATM   23  O3  UNL     1      24.469   6.568  52.166  1.00  0.00    -0.400 OA
HETATM   24  H15 UNL     1      23.953   6.062  52.844  1.00  0.00     0.209 HD
ENDBRANCH  22  23
ENDBRANCH  21  22
BRANCH  21  25
HETATM   25  C15 UNL     1      22.548   4.633  49.842  1.00  0.00    -0.040 A 
HETATM   26  C16 UNL     1      22.985   4.512  48.508  1.00  0.00     0.008 A 
HETATM   27  C17 UNL     1      22.245   4.300  47.377  1.00  0.00     0.001 A 
HETATM   28  C18 UNL     1      20.888   4.188  47.535  1.00  0.00     0.001 A 
HETATM   29  C19 UNL     1      20.370   4.291  48.789  1.00  0.00     0.007 A 
HETATM   30  C20 UNL     1      21.177   4.509  49.914  1.00  0.00    -0.055 A 
HETATM   31  C21 UNL     1      20.533   4.625  51.225  1.00  0.00     0.049 C 
ENDBRANCH  21  25
ENDBRANCH   6  21
TORSDOF 9
ENDMDL
