MODEL 1
REMARK VINA RESULT:      -7.3      0.000      0.000
REMARK  7 active torsions:
REMARK  status: ('A' for Active; 'I' for Inactive)
REMARK       I    between atoms: C1_2  and  N1_3 
REMARK    1  A    between atoms: C1_2  and  C8_11 
REMARK    2  A    between atoms: N1_3  and  C2_4 
REMARK    3  A    between atoms: C8_11  and  C9_12 
REMARK    4  A    between atoms: C8_11  and  O2_20 
REMARK    5  A    between atoms: C9_12  and  N2_13 
REMARK    6  A    between atoms: N2_13  and  C10_14 
REMARK    7  A    between atoms: O2_20  and  O3_21 
ROOT
HETATM    1  C8  UNL     1      27.747   1.206  53.964  1.00  0.00     0.269 C 
ENDROOT
BRANCH   1   2
HETATM    2  C1  UNL     1      26.944   1.916  52.930  1.00  0.00     0.256 C 
HETATM    3  O1  UNL     1      26.463   2.470  53.955  1.00  0.00    -0.270 OA
HETATM    4  N1  UNL     1      26.951   1.799  51.528  1.00  0.00    -0.325 N 
HETATM    5  H1  UNL     1      27.651   1.083  51.196  1.00  0.00     0.169 HD
BRANCH   4   6
HETATM    6  C2  UNL     1      26.018   2.667  50.866  1.00  0.00     0.036 A 
HETATM    7  C3  UNL     1      26.568   3.614  50.028  1.00  0.00     0.029 A 
HETATM    8  C4  UNL     1      25.733   4.498  49.344  1.00  0.00     0.004 A 
HETATM    9  C5  UNL     1      24.368   4.404  49.522  1.00  0.00     0.019 A 
HETATM   10  C6  UNL     1      23.848   3.453  50.362  1.00  0.00     0.013 A 
HETATM   11 BR1  UNL     1      21.939   3.372  50.569  1.00  0.00    -0.051 Br
HETATM   12  C7  UNL     1      24.652   2.568  51.049  1.00  0.00     0.048 A 
ENDBRANCH   4   6
ENDBRANCH   1   2
BRANCH   1  13
HETATM   13  C9  UNL     1      27.367  -0.253  53.957  1.00  0.00     0.164 C 
BRANCH  13  14
HETATM   14  N2  UNL     1      26.272  -0.545  54.830  1.00  0.00    -0.387 N 
HETATM   15  H9  UNL     1      26.561  -0.667  55.842  1.00  0.00     0.159 HD
BRANCH  14  16
HETATM   16  C10 UNL     1      24.890  -0.694  54.567  1.00  0.00     0.028 A 
HETATM   17  C11 UNL     1      24.035  -1.241  55.513  1.00  0.00     0.029 A 
HETATM   18  C12 UNL     1      22.692  -1.408  55.278  1.00  0.00     0.002 A 
HETATM   19  C13 UNL     1      22.147  -1.032  54.079  1.00  0.00     0.000 A 
HETATM   20  C14 UNL     1      22.947  -0.483  53.102  1.00  0.00     0.002 A 
HETATM   21  C15 UNL     1      24.273  -0.341  53.389  1.00  0.00     0.029 A 
ENDBRANCH  14  16
ENDBRANCH  13  14
ENDBRANCH   1  13
BRANCH   1  22
HETATM   22  O2  UNL     1      29.078   1.306  53.536  1.00  0.00    -0.227 OA
BRANCH  22  23
HETATM   23  O3  UNL     1      29.288   2.587  53.299  1.00  0.00    -0.250 OA
HETATM   24  H15 UNL     1      29.275   2.686  52.310  1.00  0.00     0.253 HD
ENDBRANCH  22  23
ENDBRANCH   1  22
TORSDOF 7
ENDMDL
MODEL 2
REMARK VINA RESULT:      -7.2      1.321      1.969
REMARK  7 active torsions:
REMARK  status: ('A' for Active; 'I' for Inactive)
REMARK       I    between atoms: C1_2  and  N1_3 
REMARK    1  A    between atoms: C1_2  and  C8_11 
REMARK    2  A    between atoms: N1_3  and  C2_4 
REMARK    3  A    between atoms: C8_11  and  C9_12 
REMARK    4  A    between atoms: C8_11  and  O2_20 
REMARK    5  A    between atoms: C9_12  and  N2_13 
REMARK    6  A    between atoms: N2_13  and  C10_14 
REMARK    7  A    between atoms: O2_20  and  O3_21 
ROOT
HETATM    1  C8  UNL     1      27.537   0.863  53.933  1.00  0.00     0.269 C 
ENDROOT
BRANCH   1   2
HETATM    2  C1  UNL     1      26.864   1.720  52.918  1.00  0.00     0.256 C 
HETATM    3  O1  UNL     1      26.589   2.395  53.945  1.00  0.00    -0.270 OA
HETATM    4  N1  UNL     1      26.762   1.573  51.522  1.00  0.00    -0.325 N 
HETATM    5  H1  UNL     1      27.253   0.704  51.180  1.00  0.00     0.169 HD
BRANCH   4   6
HETATM    6  C2  UNL     1      26.021   2.622  50.878  1.00  0.00     0.036 A 
HETATM    7  C3  UNL     1      24.648   2.536  50.979  1.00  0.00     0.029 A 
HETATM    8  C4  UNL     1      23.851   3.515  50.382  1.00  0.00     0.004 A 
HETATM    9  C5  UNL     1      24.458   4.551  49.702  1.00  0.00     0.019 A 
HETATM   10  C6  UNL     1      25.826   4.610  49.618  1.00  0.00     0.013 A 
HETATM   11 BR1  UNL     1      26.613   6.077  48.657  1.00  0.00    -0.051 Br
HETATM   12  C7  UNL     1      26.635   3.656  50.199  1.00  0.00     0.048 A 
ENDBRANCH   4   6
ENDBRANCH   1   2
BRANCH   1  13
HETATM   13  C9  UNL     1      26.912  -0.509  53.902  1.00  0.00     0.164 C 
BRANCH  13  14
HETATM   14  N2  UNL     1      25.757  -0.610  54.739  1.00  0.00    -0.387 N 
HETATM   15  H9  UNL     1      25.984  -0.604  55.774  1.00  0.00     0.159 HD
BRANCH  14  16
HETATM   16  C10 UNL     1      24.383  -0.714  54.416  1.00  0.00     0.028 A 
HETATM   17  C11 UNL     1      23.897  -0.265  53.197  1.00  0.00     0.029 A 
HETATM   18  C12 UNL     1      22.566  -0.342  52.864  1.00  0.00     0.002 A 
HETATM   19  C13 UNL     1      21.663  -0.878  53.744  1.00  0.00     0.000 A 
HETATM   20  C14 UNL     1      22.088  -1.342  54.969  1.00  0.00     0.002 A 
HETATM   21  C15 UNL     1      23.420  -1.239  55.247  1.00  0.00     0.029 A 
ENDBRANCH  14  16
ENDBRANCH  13  14
ENDBRANCH   1  13
BRANCH   1  22
HETATM   22  O2  UNL     1      28.864   0.740  53.498  1.00  0.00    -0.227 OA
BRANCH  22  23
HETATM   23  O3  UNL     1      29.251   1.957  53.166  1.00  0.00    -0.250 OA
HETATM   24  H15 UNL     1      29.111   2.028  52.184  1.00  0.00     0.253 HD
ENDBRANCH  22  23
ENDBRANCH   1  22
TORSDOF 7
ENDMDL
MODEL 3
REMARK VINA RESULT:      -7.1      1.455      5.416
REMARK  7 active torsions:
REMARK  status: ('A' for Active; 'I' for Inactive)
REMARK       I    between atoms: C1_2  and  N1_3 
REMARK    1  A    between atoms: C1_2  and  C8_11 
REMARK    2  A    between atoms: N1_3  and  C2_4 
REMARK    3  A    between atoms: C8_11  and  C9_12 
REMARK    4  A    between atoms: C8_11  and  O2_20 
REMARK    5  A    between atoms: C9_12  and  N2_13 
REMARK    6  A    between atoms: N2_13  and  C10_14 
REMARK    7  A    between atoms: O2_20  and  O3_21 
ROOT
HETATM    1  C8  UNL     1      26.775   1.317  53.293  1.00  0.00     0.269 C 
ENDROOT
BRANCH   1   2
HETATM    2  C1  UNL     1      25.354   0.882  53.388  1.00  0.00     0.256 C 
HETATM    3  O1  UNL     1      25.220   2.059  53.817  1.00  0.00    -0.270 OA
HETATM    4  N1  UNL     1      24.751  -0.348  53.066  1.00  0.00    -0.325 N 
HETATM    5  H1  UNL     1      25.452  -1.047  52.703  1.00  0.00     0.169 HD
BRANCH   4   6
HETATM    6  C2  UNL     1      23.334  -0.381  53.299  1.00  0.00     0.036 A 
HETATM    7  C3  UNL     1      22.937  -0.916  54.506  1.00  0.00     0.029 A 
HETATM    8  C4  UNL     1      21.577  -0.987  54.815  1.00  0.00     0.004 A 
HETATM    9  C5  UNL     1      20.657  -0.518  53.900  1.00  0.00     0.019 A 
HETATM   10  C6  UNL     1      21.081   0.008  52.706  1.00  0.00     0.013 A 
HETATM   11 BR1  UNL     1      19.751   0.645  51.473  1.00  0.00    -0.051 Br
HETATM   12  C7  UNL     1      22.418   0.090  52.378  1.00  0.00     0.048 A 
ENDBRANCH   4   6
ENDBRANCH   1   2
BRANCH   1  13
HETATM   13  C9  UNL     1      27.067   1.711  51.866  1.00  0.00     0.164 C 
BRANCH  13  14
HETATM   14  N2  UNL     1      26.616   3.031  51.552  1.00  0.00    -0.387 N 
HETATM   15  H9  UNL     1      27.112   3.789  52.103  1.00  0.00     0.159 HD
BRANCH  14  16
HETATM   16  C10 UNL     1      25.632   3.484  50.642  1.00  0.00     0.028 A 
HETATM   17  C11 UNL     1      25.830   4.627  49.882  1.00  0.00     0.029 A 
HETATM   18  C12 UNL     1      24.886   5.095  49.001  1.00  0.00     0.002 A 
HETATM   19  C13 UNL     1      23.698   4.431  48.842  1.00  0.00     0.000 A 
HETATM   20  C14 UNL     1      23.447   3.289  49.569  1.00  0.00     0.002 A 
HETATM   21  C15 UNL     1      24.418   2.871  50.430  1.00  0.00     0.029 A 
ENDBRANCH  14  16
ENDBRANCH  13  14
ENDBRANCH   1  13
BRANCH   1  22
HETATM   22  O2  UNL     1      26.865   2.471  54.083  1.00  0.00    -0.227 OA
BRANCH  22  23
HETATM   23  O3  UNL     1      28.141   2.811  54.084  1.00  0.00    -0.250 OA
HETATM   24  H15 UNL     1      28.279   3.344  54.912  1.00  0.00     0.253 HD
ENDBRANCH  22  23
ENDBRANCH   1  22
TORSDOF 7
ENDMDL
MODEL 4
REMARK VINA RESULT:      -7.0      2.698      5.494
REMARK  7 active torsions:
REMARK  status: ('A' for Active; 'I' for Inactive)
REMARK       I    between atoms: C1_2  and  N1_3 
REMARK    1  A    between atoms: C1_2  and  C8_11 
REMARK    2  A    between atoms: N1_3  and  C2_4 
REMARK    3  A    between atoms: C8_11  and  C9_12 
REMARK    4  A    between atoms: C8_11  and  O2_20 
REMARK    5  A    between atoms: C9_12  and  N2_13 
REMARK    6  A    between atoms: N2_13  and  C10_14 
REMARK    7  A    between atoms: O2_20  and  O3_21 
ROOT
HETATM    1  C8  UNL     1      24.562   3.487  51.274  1.00  0.00     0.269 C 
ENDROOT
BRANCH   1   2
HETATM    2  C1  UNL     1      23.772   2.421  51.950  1.00  0.00     0.256 C 
HETATM    3  O1  UNL     1      23.786   3.267  52.884  1.00  0.00    -0.270 OA
HETATM    4  N1  UNL     1      23.360   1.157  51.489  1.00  0.00    -0.325 N 
HETATM    5  H1  UNL     1      23.684   0.973  50.502  1.00  0.00     0.169 HD
BRANCH   4   6
HETATM    6  C2  UNL     1      22.602   0.405  52.449  1.00  0.00     0.036 A 
HETATM    7  C3  UNL     1      23.317  -0.103  53.514  1.00  0.00     0.029 A 
HETATM    8  C4  UNL     1      22.657  -0.847  54.495  1.00  0.00     0.004 A 
HETATM    9  C5  UNL     1      21.299  -1.057  54.376  1.00  0.00     0.019 A 
HETATM   10  C6  UNL     1      20.614  -0.540  53.306  1.00  0.00     0.013 A 
HETATM   11 BR1  UNL     1      18.723  -0.867  53.197  1.00  0.00    -0.051 Br
HETATM   12  C7  UNL     1      21.242   0.198  52.325  1.00  0.00     0.048 A 
ENDBRANCH   4   6
ENDBRANCH   1   2
BRANCH   1  13
HETATM   13  C9  UNL     1      25.936   2.949  50.961  1.00  0.00     0.164 C 
BRANCH  13  14
HETATM   14  N2  UNL     1      26.714   2.702  52.136  1.00  0.00    -0.387 N 
HETATM   15  H9  UNL     1      26.817   3.552  52.760  1.00  0.00     0.159 HD
BRANCH  14  16
HETATM   16  C10 UNL     1      27.356   1.527  52.594  1.00  0.00     0.028 A 
HETATM   17  C11 UNL     1      26.818   0.273  52.347  1.00  0.00     0.029 A 
HETATM   18  C12 UNL     1      27.415  -0.882  52.792  1.00  0.00     0.002 A 
HETATM   19  C13 UNL     1      28.583  -0.827  53.505  1.00  0.00     0.000 A 
HETATM   20  C14 UNL     1      29.165   0.391  53.779  1.00  0.00     0.002 A 
HETATM   21  C15 UNL     1      28.528   1.504  53.314  1.00  0.00     0.029 A 
ENDBRANCH  14  16
ENDBRANCH  13  14
ENDBRANCH   1  13
BRANCH   1  22
HETATM   22  O2  UNL     1      23.907   3.722  50.057  1.00  0.00    -0.227 OA
BRANCH  22  23
HETATM   23  O3  UNL     1      22.620   3.785  50.344  1.00  0.00    -0.250 OA
HETATM   24  H15 UNL     1      22.456   4.716  50.650  1.00  0.00     0.253 HD
ENDBRANCH  22  23
ENDBRANCH   1  22
TORSDOF 7
ENDMDL
MODEL 5
REMARK VINA RESULT:      -6.8      1.727      2.060
REMARK  7 active torsions:
REMARK  status: ('A' for Active; 'I' for Inactive)
REMARK       I    between atoms: C1_2  and  N1_3 
REMARK    1  A    between atoms: C1_2  and  C8_11 
REMARK    2  A    between atoms: N1_3  and  C2_4 
REMARK    3  A    between atoms: C8_11  and  C9_12 
REMARK    4  A    between atoms: C8_11  and  O2_20 
REMARK    5  A    between atoms: C9_12  and  N2_13 
REMARK    6  A    between atoms: N2_13  and  C10_14 
REMARK    7  A    between atoms: O2_20  and  O3_21 
ROOT
HETATM    1  C8  UNL     1      26.296   1.310  54.063  1.00  0.00     0.269 C 
ENDROOT
BRANCH   1   2
HETATM    2  C1  UNL     1      25.725   1.993  52.870  1.00  0.00     0.256 C 
HETATM    3  O1  UNL     1      26.366   1.085  52.278  1.00  0.00    -0.270 OA
HETATM    4  N1  UNL     1      24.885   3.118  52.776  1.00  0.00    -0.325 N 
HETATM    5  H1  UNL     1      24.645   3.511  53.725  1.00  0.00     0.169 HD
BRANCH   4   6
HETATM    6  C2  UNL     1      24.543   3.480  51.429  1.00  0.00     0.036 A 
HETATM    7  C3  UNL     1      23.697   2.612  50.770  1.00  0.00     0.029 A 
HETATM    8  C4  UNL     1      23.314   2.888  49.456  1.00  0.00     0.004 A 
HETATM    9  C5  UNL     1      23.792   4.028  48.844  1.00  0.00     0.019 A 
HETATM   10  C6  UNL     1      24.632   4.872  49.523  1.00  0.00     0.013 A 
HETATM   11 BR1  UNL     1      25.266   6.445  48.616  1.00  0.00    -0.051 Br
HETATM   12  C7  UNL     1      25.026   4.623  50.821  1.00  0.00     0.048 A 
ENDBRANCH   4   6
ENDBRANCH   1   2
BRANCH   1  13
HETATM   13  C9  UNL     1      26.184  -0.182  53.868  1.00  0.00     0.164 C 
BRANCH  13  14
HETATM   14  N2  UNL     1      25.051  -0.745  54.535  1.00  0.00    -0.387 N 
HETATM   15  H9  UNL     1      25.298  -1.245  55.436  1.00  0.00     0.159 HD
BRANCH  14  16
HETATM   16  C10 UNL     1      23.678  -0.742  54.194  1.00  0.00     0.028 A 
HETATM   17  C11 UNL     1      22.718  -1.201  55.083  1.00  0.00     0.029 A 
HETATM   18  C12 UNL     1      21.380  -1.221  54.772  1.00  0.00     0.002 A 
HETATM   19  C13 UNL     1      20.946  -0.777  53.551  1.00  0.00     0.000 A 
HETATM   20  C14 UNL     1      21.855  -0.308  52.628  1.00  0.00     0.002 A 
HETATM   21  C15 UNL     1      23.170  -0.313  52.990  1.00  0.00     0.029 A 
ENDBRANCH  14  16
ENDBRANCH  13  14
ENDBRANCH   1  13
BRANCH   1  22
HETATM   22  O2  UNL     1      27.658   1.641  54.067  1.00  0.00    -0.227 OA
BRANCH  22  23
HETATM   23  O3  UNL     1      27.710   2.959  54.054  1.00  0.00    -0.250 OA
HETATM   24  H15 UNL     1      27.187   3.259  54.845  1.00  0.00     0.253 HD
ENDBRANCH  22  23
ENDBRANCH   1  22
TORSDOF 7
ENDMDL
MODEL 6
REMARK VINA RESULT:      -6.7      3.060      4.793
REMARK  7 active torsions:
REMARK  status: ('A' for Active; 'I' for Inactive)
REMARK       I    between atoms: C1_2  and  N1_3 
REMARK    1  A    between atoms: C1_2  and  C8_11 
REMARK    2  A    between atoms: N1_3  and  C2_4 
REMARK    3  A    between atoms: C8_11  and  C9_12 
REMARK    4  A    between atoms: C8_11  and  O2_20 
REMARK    5  A    between atoms: C9_12  and  N2_13 
REMARK    6  A    between atoms: N2_13  and  C10_14 
REMARK    7  A    between atoms: O2_20  and  O3_21 
ROOT
HETATM    1  C8  UNL     1      23.694   3.749  51.464  1.00  0.00     0.269 C 
ENDROOT
BRANCH   1   2
HETATM    2  C1  UNL     1      24.817   2.879  51.910  1.00  0.00     0.256 C 
HETATM    3  O1  UNL     1      24.702   2.448  50.732  1.00  0.00    -0.270 OA
HETATM    4  N1  UNL     1      25.484   2.811  53.147  1.00  0.00    -0.325 N 
HETATM    5  H1  UNL     1      25.096   3.502  53.843  1.00  0.00     0.169 HD
BRANCH   4   6
HETATM    6  C2  UNL     1      26.531   1.829  53.192  1.00  0.00     0.036 A 
HETATM    7  C3  UNL     1      27.772   2.291  53.576  1.00  0.00     0.029 A 
HETATM    8  C4  UNL     1      28.847   1.404  53.647  1.00  0.00     0.004 A 
HETATM    9  C5  UNL     1      28.643   0.077  53.329  1.00  0.00     0.019 A 
HETATM   10  C6  UNL     1      27.397  -0.355  52.949  1.00  0.00     0.013 A 
HETATM   11 BR1  UNL     1      27.176  -2.215  52.518  1.00  0.00    -0.051 Br
HETATM   12  C7  UNL     1      26.320   0.502  52.872  1.00  0.00     0.048 A 
ENDBRANCH   4   6
ENDBRANCH   1   2
BRANCH   1  13
HETATM   13  C9  UNL     1      22.485   3.457  52.317  1.00  0.00     0.164 C 
BRANCH  13  14
HETATM   14  N2  UNL     1      21.870   2.206  51.996  1.00  0.00    -0.387 N 
HETATM   15  H9  UNL     1      21.500   2.160  51.004  1.00  0.00     0.159 HD
BRANCH  14  16
HETATM   16  C10 UNL     1      21.679   1.040  52.774  1.00  0.00     0.028 A 
HETATM   17  C11 UNL     1      20.423   0.467  52.911  1.00  0.00     0.029 A 
HETATM   18  C12 UNL     1      20.208  -0.657  53.670  1.00  0.00     0.002 A 
HETATM   19  C13 UNL     1      21.249  -1.258  54.326  1.00  0.00     0.000 A 
HETATM   20  C14 UNL     1      22.519  -0.735  54.226  1.00  0.00     0.002 A 
HETATM   21  C15 UNL     1      22.674   0.383  53.460  1.00  0.00     0.029 A 
ENDBRANCH  14  16
ENDBRANCH  13  14
ENDBRANCH   1  13
BRANCH   1  22
HETATM   22  O2  UNL     1      24.106   5.061  51.738  1.00  0.00    -0.227 OA
BRANCH  22  23
HETATM   23  O3  UNL     1      23.759   5.295  52.990  1.00  0.00    -0.250 OA
HETATM   24  H15 UNL     1      22.938   5.855  52.943  1.00  0.00     0.253 HD
ENDBRANCH  22  23
ENDBRANCH   1  22
TORSDOF 7
ENDMDL
MODEL 7
REMARK VINA RESULT:      -6.4      3.660      7.168
REMARK  7 active torsions:
REMARK  status: ('A' for Active; 'I' for Inactive)
REMARK       I    between atoms: C1_2  and  N1_3 
REMARK    1  A    between atoms: C1_2  and  C8_11 
REMARK    2  A    between atoms: N1_3  and  C2_4 
REMARK    3  A    between atoms: C8_11  and  C9_12 
REMARK    4  A    between atoms: C8_11  and  O2_20 
REMARK    5  A    between atoms: C9_12  and  N2_13 
REMARK    6  A    between atoms: N2_13  and  C10_14 
REMARK    7  A    between atoms: O2_20  and  O3_21 
ROOT
HETATM    1  C8  UNL     1      21.732   5.224  51.103  1.00  0.00     0.269 C 
ENDROOT
BRANCH   1   2
HETATM    2  C1  UNL     1      22.261   3.937  51.632  1.00  0.00     0.256 C 
HETATM    3  O1  UNL     1      22.455   4.653  52.650  1.00  0.00    -0.270 OA
HETATM    4  N1  UNL     1      22.361   2.672  51.024  1.00  0.00    -0.325 N 
HETATM    5  H1  UNL     1      21.992   2.678  50.036  1.00  0.00     0.169 HD
BRANCH   4   6
HETATM    6  C2  UNL     1      22.936   1.663  51.870  1.00  0.00     0.036 A 
HETATM    7  C3  UNL     1      24.311   1.557  51.829  1.00  0.00     0.029 A 
HETATM    8  C4  UNL     1      24.953   0.602  52.619  1.00  0.00     0.004 A 
HETATM    9  C5  UNL     1      24.194  -0.217  53.429  1.00  0.00     0.019 A 
HETATM   10  C6  UNL     1      22.828  -0.090  53.449  1.00  0.00     0.013 A 
HETATM   11 BR1  UNL     1      21.825  -1.262  54.597  1.00  0.00    -0.051 Br
HETATM   12  C7  UNL     1      22.171   0.845  52.678  1.00  0.00     0.048 A 
ENDBRANCH   4   6
ENDBRANCH   1   2
BRANCH   1  13
HETATM   13  C9  UNL     1      22.641   5.706  50.000  1.00  0.00     0.164 C 
BRANCH  13  14
HETATM   14  N2  UNL     1      23.991   5.886  50.434  1.00  0.00    -0.387 N 
HETATM   15  H9  UNL     1      24.071   6.340  51.389  1.00  0.00     0.159 HD
BRANCH  14  16
HETATM   16  C10 UNL     1      25.218   5.562  49.809  1.00  0.00     0.028 A 
HETATM   17  C11 UNL     1      25.740   4.279  49.876  1.00  0.00     0.029 A 
HETATM   18  C12 UNL     1      26.936   3.941  49.289  1.00  0.00     0.002 A 
HETATM   19  C13 UNL     1      27.661   4.881  48.606  1.00  0.00     0.000 A 
HETATM   20  C14 UNL     1      27.192   6.172  48.505  1.00  0.00     0.002 A 
HETATM   21  C15 UNL     1      26.001   6.451  49.108  1.00  0.00     0.029 A 
ENDBRANCH  14  16
ENDBRANCH  13  14
ENDBRANCH   1  13
BRANCH   1  22
HETATM   22  O2  UNL     1      20.491   4.911  50.530  1.00  0.00    -0.227 OA
BRANCH  22  23
HETATM   23  O3  UNL     1      19.844   4.200  51.434  1.00  0.00    -0.250 OA
HETATM   24  H15 UNL     1      19.548   3.373  50.969  1.00  0.00     0.253 HD
ENDBRANCH  22  23
ENDBRANCH   1  22
TORSDOF 7
ENDMDL
MODEL 8
REMARK VINA RESULT:      -6.4      3.457      5.565
REMARK  7 active torsions:
REMARK  status: ('A' for Active; 'I' for Inactive)
REMARK       I    between atoms: C1_2  and  N1_3 
REMARK    1  A    between atoms: C1_2  and  C8_11 
REMARK    2  A    between atoms: N1_3  and  C2_4 
REMARK    3  A    between atoms: C8_11  and  C9_12 
REMARK    4  A    between atoms: C8_11  and  O2_20 
REMARK    5  A    between atoms: C9_12  and  N2_13 
REMARK    6  A    between atoms: N2_13  and  C10_14 
REMARK    7  A    between atoms: O2_20  and  O3_21 
ROOT
HETATM    1  C8  UNL     1      24.029   4.897  50.678  1.00  0.00     0.269 C 
ENDROOT
BRANCH   1   2
HETATM    2  C1  UNL     1      24.489   3.706  51.444  1.00  0.00     0.256 C 
HETATM    3  O1  UNL     1      24.690   3.270  50.280  1.00  0.00    -0.270 OA
HETATM    4  N1  UNL     1      24.550   3.479  52.832  1.00  0.00    -0.325 N 
HETATM    5  H1  UNL     1      24.204   4.310  53.382  1.00  0.00     0.169 HD
BRANCH   4   6
HETATM    6  C2  UNL     1      25.060   2.185  53.189  1.00  0.00     0.036 A 
HETATM    7  C3  UNL     1      24.191   1.128  53.016  1.00  0.00     0.029 A 
HETATM    8  C4  UNL     1      24.606  -0.165  53.338  1.00  0.00     0.004 A 
HETATM    9  C5  UNL     1      25.883  -0.358  53.825  1.00  0.00     0.019 A 
HETATM   10  C6  UNL     1      26.725   0.713  53.988  1.00  0.00     0.013 A 
HETATM   11 BR1  UNL     1      28.491   0.380  54.671  1.00  0.00    -0.051 Br
HETATM   12  C7  UNL     1      26.339   1.999  53.677  1.00  0.00     0.048 A 
ENDBRANCH   4   6
ENDBRANCH   1   2
BRANCH   1  13
HETATM   13  C9  UNL     1      22.583   5.163  51.017  1.00  0.00     0.164 C 
BRANCH  13  14
HETATM   14  N2  UNL     1      21.704   4.145  50.530  1.00  0.00    -0.387 N 
HETATM   15  H9  UNL     1      21.261   4.382  49.597  1.00  0.00     0.159 HD
BRANCH  14  16
HETATM   16  C10 UNL     1      21.338   2.895  51.081  1.00  0.00     0.028 A 
HETATM   17  C11 UNL     1      21.497   1.720  50.361  1.00  0.00     0.029 A 
HETATM   18  C12 UNL     1      21.137   0.495  50.868  1.00  0.00     0.002 A 
HETATM   19  C13 UNL     1      20.599   0.396  52.124  1.00  0.00     0.000 A 
HETATM   20  C14 UNL     1      20.418   1.530  52.885  1.00  0.00     0.002 A 
HETATM   21  C15 UNL     1      20.793   2.719  52.332  1.00  0.00     0.029 A 
ENDBRANCH  14  16
ENDBRANCH  13  14
ENDBRANCH   1  13
BRANCH   1  22
HETATM   22  O2  UNL     1      24.788   5.970  51.165  1.00  0.00    -0.227 OA
BRANCH  22  23
HETATM   23  O3  UNL     1      24.182   6.373  52.266  1.00  0.00    -0.250 OA
HETATM   24  H15 UNL     1      23.905   5.545  52.742  1.00  0.00     0.253 HD
ENDBRANCH  22  23
ENDBRANCH   1  22
TORSDOF 7
ENDMDL
MODEL 9
REMARK VINA RESULT:      -6.3      3.461      7.577
REMARK  7 active torsions:
REMARK  status: ('A' for Active; 'I' for Inactive)
REMARK       I    between atoms: C1_2  and  N1_3 
REMARK    1  A    between atoms: C1_2  and  C8_11 
REMARK    2  A    between atoms: N1_3  and  C2_4 
REMARK    3  A    between atoms: C8_11  and  C9_12 
REMARK    4  A    between atoms: C8_11  and  O2_20 
REMARK    5  A    between atoms: C9_12  and  N2_13 
REMARK    6  A    between atoms: N2_13  and  C10_14 
REMARK    7  A    between atoms: O2_20  and  O3_21 
ROOT
HETATM    1  C8  UNL     1      23.476   4.842  51.059  1.00  0.00     0.269 C 
ENDROOT
BRANCH   1   2
HETATM    2  C1  UNL     1      24.049   3.638  51.722  1.00  0.00     0.256 C 
HETATM    3  O1  UNL     1      23.981   3.191  50.546  1.00  0.00    -0.270 OA
HETATM    4  N1  UNL     1      24.396   3.414  53.067  1.00  0.00    -0.325 N 
HETATM    5  H1  UNL     1      24.205   4.258  53.670  1.00  0.00     0.169 HD
BRANCH   4   6
HETATM    6  C2  UNL     1      24.927   2.103  53.322  1.00  0.00     0.036 A 
HETATM    7  C3  UNL     1      24.053   1.054  53.129  1.00  0.00     0.029 A 
HETATM    8  C4  UNL     1      24.487  -0.254  53.353  1.00  0.00     0.004 A 
HETATM    9  C5  UNL     1      25.786  -0.468  53.764  1.00  0.00     0.019 A 
HETATM   10  C6  UNL     1      26.633   0.595  53.949  1.00  0.00     0.013 A 
HETATM   11 BR1  UNL     1      28.431   0.233  54.523  1.00  0.00    -0.051 Br
HETATM   12  C7  UNL     1      26.229   1.896  53.734  1.00  0.00     0.048 A 
ENDBRANCH   4   6
ENDBRANCH   1   2
BRANCH   1  13
HETATM   13  C9  UNL     1      23.923   4.861  49.619  1.00  0.00     0.164 C 
BRANCH  13  14
HETATM   14  N2  UNL     1      24.736   5.996  49.306  1.00  0.00    -0.387 N 
HETATM   15  H9  UNL     1      24.242   6.922  49.455  1.00  0.00     0.159 HD
BRANCH  14  16
HETATM   16  C10 UNL     1      26.069   6.083  48.840  1.00  0.00     0.028 A 
HETATM   17  C11 UNL     1      26.552   7.246  48.260  1.00  0.00     0.029 A 
HETATM   18  C12 UNL     1      27.838   7.352  47.788  1.00  0.00     0.002 A 
HETATM   19  C13 UNL     1      28.698   6.290  47.879  1.00  0.00     0.000 A 
HETATM   20  C14 UNL     1      28.274   5.109  48.447  1.00  0.00     0.002 A 
HETATM   21  C15 UNL     1      26.988   5.060  48.898  1.00  0.00     0.029 A 
ENDBRANCH  14  16
ENDBRANCH  13  14
ENDBRANCH   1  13
BRANCH   1  22
HETATM   22  O2  UNL     1      22.087   4.652  51.075  1.00  0.00    -0.227 OA
BRANCH  22  23
HETATM   23  O3  UNL     1      21.779   4.334  52.318  1.00  0.00    -0.250 OA
HETATM   24  H15 UNL     1      22.040   3.381  52.427  1.00  0.00     0.253 HD
ENDBRANCH  22  23
ENDBRANCH   1  22
TORSDOF 7
ENDMDL
