MODEL 1
REMARK VINA RESULT:      -7.3      0.000      0.000
REMARK  4 active torsions:
REMARK  status: ('A' for Active; 'I' for Inactive)
REMARK    1  A    between atoms: C8_9  and  C9_10 
REMARK    2  A    between atoms: C8_9  and  S2_12 
REMARK    3  A    between atoms: S2_12  and  C10_13 
REMARK       I    between atoms: C10_13  and  N2_15 
REMARK    4  A    between atoms: N2_15  and  C11_16 
ROOT
HETATM    1  C1  UNL     1      26.211   4.753  49.134  1.00  0.00     0.049 C 
HETATM    2  C2  UNL     1      25.433   4.101  50.272  1.00  0.00    -0.047 C 
HETATM    3  C3  UNL     1      25.989   2.965  50.854  1.00  0.00     0.094 C 
HETATM    4  N1  UNL     1      24.955   2.765  51.790  1.00  0.00    -0.366 N 
HETATM    5  C4  UNL     1      24.543   3.215  53.111  1.00  0.00     0.136 C 
HETATM    6  C5  UNL     1      23.174   3.466  52.444  1.00  0.00     0.070 C 
HETATM    7  C6  UNL     1      23.317   4.567  51.427  1.00  0.00    -0.016 C 
HETATM    8  C7  UNL     1      24.184   4.963  50.435  1.00  0.00     0.004 C 
HETATM    9  C8  UNL     1      23.618   2.137  51.816  1.00  0.00     0.126 C 
ENDROOT
BRANCH   9  10
HETATM   10  C9  UNL     1      22.978   2.102  50.455  1.00  0.00     0.097 C 
HETATM   11  S1  UNL     1      21.985   1.488  49.621  1.00  0.00    -0.094 SA
ENDBRANCH   9  10
BRANCH   9  12
HETATM   12  S2  UNL     1      23.452   0.674  52.667  1.00  0.00    -0.032 SA
BRANCH  12  13
HETATM   13  C10 UNL     1      24.680  -0.115  53.587  1.00  0.00     0.287 C 
HETATM   14  O1  UNL     1      25.316  -0.699  54.546  1.00  0.00    -0.260 OA
HETATM   15  N2  UNL     1      25.791  -0.191  52.648  1.00  0.00    -0.318 N 
HETATM   16  H11 UNL     1      26.033   0.084  51.639  1.00  0.00     0.169 HD
BRANCH  15  17
HETATM   17  C11 UNL     1      27.088  -0.773  52.921  1.00  0.00     0.035 A 
HETATM   18  C12 UNL     1      28.102   0.062  53.402  1.00  0.00     0.029 A 
HETATM   19  C13 UNL     1      29.349  -0.521  53.659  1.00  0.00     0.002 A 
HETATM   20  C14 UNL     1      29.602  -1.863  53.458  1.00  0.00     0.000 A 
HETATM   21  C15 UNL     1      28.578  -2.647  52.984  1.00  0.00     0.002 A 
HETATM   22  C16 UNL     1      27.313  -2.134  52.708  1.00  0.00     0.029 A 
ENDBRANCH  15  17
ENDBRANCH  12  13
ENDBRANCH   9  12
TORSDOF 4
ENDMDL
MODEL 2
REMARK VINA RESULT:      -6.9      2.030      2.981
REMARK  4 active torsions:
REMARK  status: ('A' for Active; 'I' for Inactive)
REMARK    1  A    between atoms: C8_9  and  C9_10 
REMARK    2  A    between atoms: C8_9  and  S2_12 
REMARK    3  A    between atoms: S2_12  and  C10_13 
REMARK       I    between atoms: C10_13  and  N2_15 
REMARK    4  A    between atoms: N2_15  and  C11_16 
ROOT
HETATM    1  C1  UNL     1      19.367   2.916  49.890  1.00  0.00     0.049 C 
HETATM    2  C2  UNL     1      20.645   2.447  50.579  1.00  0.00    -0.047 C 
HETATM    3  C3  UNL     1      21.195   1.243  50.148  1.00  0.00     0.094 C 
HETATM    4  N1  UNL     1      22.288   1.261  51.036  1.00  0.00    -0.366 N 
HETATM    5  C4  UNL     1      23.631   1.812  51.144  1.00  0.00     0.136 C 
HETATM    6  C5  UNL     1      23.170   2.295  52.535  1.00  0.00     0.070 C 
HETATM    7  C6  UNL     1      22.084   3.325  52.364  1.00  0.00    -0.016 C 
HETATM    8  C7  UNL     1      20.951   3.529  51.612  1.00  0.00     0.004 C 
HETATM    9  C8  UNL     1      22.554   0.891  52.442  1.00  0.00     0.126 C 
ENDROOT
BRANCH   9  10
HETATM   10  C9  UNL     1      21.311   0.940  53.289  1.00  0.00     0.097 C 
HETATM   11  S1  UNL     1      20.569   0.327  54.352  1.00  0.00    -0.094 SA
ENDBRANCH   9  10
BRANCH   9  12
HETATM   12  S2  UNL     1      23.499  -0.494  52.726  1.00  0.00    -0.032 SA
BRANCH  12  13
HETATM   13  C10 UNL     1      24.908  -0.580  53.716  1.00  0.00     0.287 C 
HETATM   14  O1  UNL     1      25.693  -0.640  54.740  1.00  0.00    -0.260 OA
HETATM   15  N2  UNL     1      25.989  -0.610  52.740  1.00  0.00    -0.318 N 
HETATM   16  H11 UNL     1      26.135  -0.594  51.677  1.00  0.00     0.169 HD
BRANCH  15  17
HETATM   17  C11 UNL     1      27.402  -0.683  53.048  1.00  0.00     0.035 A 
HETATM   18  C12 UNL     1      28.073   0.503  53.366  1.00  0.00     0.029 A 
HETATM   19  C13 UNL     1      29.439   0.410  53.659  1.00  0.00     0.002 A 
HETATM   20  C14 UNL     1      30.127  -0.786  53.646  1.00  0.00     0.000 A 
HETATM   21  C15 UNL     1      29.429  -1.926  53.328  1.00  0.00     0.002 A 
HETATM   22  C16 UNL     1      28.070  -1.908  53.026  1.00  0.00     0.029 A 
ENDBRANCH  15  17
ENDBRANCH  12  13
ENDBRANCH   9  12
TORSDOF 4
ENDMDL
MODEL 3
REMARK VINA RESULT:      -6.9      8.014     10.983
REMARK  4 active torsions:
REMARK  status: ('A' for Active; 'I' for Inactive)
REMARK    1  A    between atoms: C8_9  and  C9_10 
REMARK    2  A    between atoms: C8_9  and  S2_12 
REMARK    3  A    between atoms: S2_12  and  C10_13 
REMARK       I    between atoms: C10_13  and  N2_15 
REMARK    4  A    between atoms: N2_15  and  C11_16 
ROOT
HETATM    1  C1  UNL     1      34.749   5.172  43.490  1.00  0.00     0.049 C 
HETATM    2  C2  UNL     1      34.151   4.772  44.836  1.00  0.00    -0.047 C 
HETATM    3  C3  UNL     1      32.950   5.372  45.202  1.00  0.00     0.094 C 
HETATM    4  N1  UNL     1      32.830   4.707  46.438  1.00  0.00    -0.366 N 
HETATM    5  C4  UNL     1      32.345   3.450  46.987  1.00  0.00     0.136 C 
HETATM    6  C5  UNL     1      33.720   3.386  47.685  1.00  0.00     0.070 C 
HETATM    7  C6  UNL     1      34.796   3.238  46.641  1.00  0.00    -0.016 C 
HETATM    8  C7  UNL     1      35.134   3.755  45.413  1.00  0.00     0.004 C 
HETATM    9  C8  UNL     1      33.343   4.869  47.814  1.00  0.00     0.126 C 
ENDROOT
BRANCH   9  10
HETATM   10  C9  UNL     1      34.650   5.615  47.852  1.00  0.00     0.097 C 
HETATM   11  S1  UNL     1      35.401   6.670  48.468  1.00  0.00    -0.094 SA
ENDBRANCH   9  10
BRANCH   9  12
HETATM   12  S2  UNL     1      32.247   5.387  49.007  1.00  0.00    -0.032 SA
BRANCH  12  13
HETATM   13  C10 UNL     1      31.115   6.680  48.859  1.00  0.00     0.287 C 
HETATM   14  O1  UNL     1      30.550   7.838  48.937  1.00  0.00    -0.260 OA
HETATM   15  N2  UNL     1      30.004   6.059  48.149  1.00  0.00    -0.318 N 
HETATM   16  H11 UNL     1      29.724   5.110  47.734  1.00  0.00     0.169 HD
BRANCH  15  17
HETATM   17  C11 UNL     1      28.774   6.719  47.765  1.00  0.00     0.035 A 
HETATM   18  C12 UNL     1      27.597   6.371  48.437  1.00  0.00     0.029 A 
HETATM   19  C13 UNL     1      26.419   7.021  48.049  1.00  0.00     0.002 A 
HETATM   20  C14 UNL     1      26.383   7.971  47.049  1.00  0.00     0.000 A 
HETATM   21  C15 UNL     1      27.562   8.283  46.416  1.00  0.00     0.002 A 
HETATM   22  C16 UNL     1      28.770   7.677  46.750  1.00  0.00     0.029 A 
ENDBRANCH  15  17
ENDBRANCH  12  13
ENDBRANCH   9  12
TORSDOF 4
ENDMDL
MODEL 4
REMARK VINA RESULT:      -6.9      2.542      4.050
REMARK  4 active torsions:
REMARK  status: ('A' for Active; 'I' for Inactive)
REMARK    1  A    between atoms: C8_9  and  C9_10 
REMARK    2  A    between atoms: C8_9  and  S2_12 
REMARK    3  A    between atoms: S2_12  and  C10_13 
REMARK       I    between atoms: C10_13  and  N2_15 
REMARK    4  A    between atoms: N2_15  and  C11_16 
ROOT
HETATM    1  C1  UNL     1      18.124   2.212  50.939  1.00  0.00     0.049 C 
HETATM    2  C2  UNL     1      19.609   2.076  51.262  1.00  0.00    -0.047 C 
HETATM    3  C3  UNL     1      20.235   3.170  51.852  1.00  0.00     0.094 C 
HETATM    4  N1  UNL     1      21.507   2.573  51.943  1.00  0.00    -0.366 N 
HETATM    5  C4  UNL     1      22.267   1.693  52.819  1.00  0.00     0.136 C 
HETATM    6  C5  UNL     1      22.571   0.904  51.528  1.00  0.00     0.070 C 
HETATM    7  C6  UNL     1      21.292   0.308  51.002  1.00  0.00    -0.016 C 
HETATM    8  C7  UNL     1      19.980   0.668  50.802  1.00  0.00     0.004 C 
HETATM    9  C8  UNL     1      22.676   2.365  51.065  1.00  0.00     0.126 C 
ENDROOT
BRANCH   9  10
HETATM   10  C9  UNL     1      22.300   2.352  49.608  1.00  0.00     0.097 C 
HETATM   11  S1  UNL     1      22.694   2.698  48.273  1.00  0.00    -0.094 SA
ENDBRANCH   9  10
BRANCH   9  12
HETATM   12  S2  UNL     1      24.074   3.280  51.383  1.00  0.00    -0.032 SA
BRANCH  12  13
HETATM   13  C10 UNL     1      25.703   2.724  51.275  1.00  0.00     0.287 C 
HETATM   14  O1  UNL     1      26.896   2.482  50.846  1.00  0.00    -0.260 OA
HETATM   15  N2  UNL     1      25.902   2.053  52.553  1.00  0.00    -0.318 N 
HETATM   16  H11 UNL     1      25.366   1.831  53.456  1.00  0.00     0.169 HD
BRANCH  15  17
HETATM   17  C11 UNL     1      27.121   1.400  52.982  1.00  0.00     0.035 A 
HETATM   18  C12 UNL     1      27.230   0.017  52.804  1.00  0.00     0.029 A 
HETATM   19  C13 UNL     1      28.417  -0.595  53.227  1.00  0.00     0.002 A 
HETATM   20  C14 UNL     1      29.458   0.108  53.798  1.00  0.00     0.000 A 
HETATM   21  C15 UNL     1      29.309   1.465  53.954  1.00  0.00     0.002 A 
HETATM   22  C16 UNL     1      28.157   2.139  53.557  1.00  0.00     0.029 A 
ENDBRANCH  15  17
ENDBRANCH  12  13
ENDBRANCH   9  12
TORSDOF 4
ENDMDL
MODEL 5
REMARK VINA RESULT:      -6.7      1.892      2.866
REMARK  4 active torsions:
REMARK  status: ('A' for Active; 'I' for Inactive)
REMARK    1  A    between atoms: C8_9  and  C9_10 
REMARK    2  A    between atoms: C8_9  and  S2_12 
REMARK    3  A    between atoms: S2_12  and  C10_13 
REMARK       I    between atoms: C10_13  and  N2_15 
REMARK    4  A    between atoms: N2_15  and  C11_16 
ROOT
HETATM    1  C1  UNL     1      20.602   2.631  48.250  1.00  0.00     0.049 C 
HETATM    2  C2  UNL     1      21.455   3.049  49.443  1.00  0.00    -0.047 C 
HETATM    3  C3  UNL     1      22.775   2.606  49.468  1.00  0.00     0.094 C 
HETATM    4  N1  UNL     1      23.109   3.225  50.689  1.00  0.00    -0.366 N 
HETATM    5  C4  UNL     1      23.552   4.512  51.204  1.00  0.00     0.136 C 
HETATM    6  C5  UNL     1      22.392   4.350  52.209  1.00  0.00     0.070 C 
HETATM    7  C6  UNL     1      21.085   4.394  51.463  1.00  0.00    -0.016 C 
HETATM    8  C7  UNL     1      20.524   3.890  50.313  1.00  0.00     0.004 C 
HETATM    9  C8  UNL     1      22.972   2.930  52.130  1.00  0.00     0.126 C 
ENDROOT
BRANCH   9  10
HETATM   10  C9  UNL     1      21.818   2.008  52.417  1.00  0.00     0.097 C 
HETATM   11  S1  UNL     1      21.391   0.648  52.576  1.00  0.00    -0.094 SA
ENDBRANCH   9  10
BRANCH   9  12
HETATM   12  S2  UNL     1      24.382   2.518  52.986  1.00  0.00    -0.032 SA
BRANCH  12  13
HETATM   13  C10 UNL     1      25.808   1.809  52.322  1.00  0.00     0.287 C 
HETATM   14  O1  UNL     1      26.752   1.473  51.509  1.00  0.00    -0.260 OA
HETATM   15  N2  UNL     1      26.350   1.056  53.445  1.00  0.00    -0.318 N 
HETATM   16  H11 UNL     1      26.127   0.842  54.473  1.00  0.00     0.169 HD
BRANCH  15  17
HETATM   17  C11 UNL     1      27.561   0.265  53.424  1.00  0.00     0.035 A 
HETATM   18  C12 UNL     1      27.465  -1.086  53.071  1.00  0.00     0.029 A 
HETATM   19  C13 UNL     1      28.648  -1.834  53.058  1.00  0.00     0.002 A 
HETATM   20  C14 UNL     1      29.878  -1.293  53.373  1.00  0.00     0.000 A 
HETATM   21  C15 UNL     1      29.927   0.037  53.714  1.00  0.00     0.002 A 
HETATM   22  C16 UNL     1      28.791   0.841  53.748  1.00  0.00     0.029 A 
ENDBRANCH  15  17
ENDBRANCH  12  13
ENDBRANCH   9  12
TORSDOF 4
ENDMDL
MODEL 6
REMARK VINA RESULT:      -6.6      1.936      2.601
REMARK  4 active torsions:
REMARK  status: ('A' for Active; 'I' for Inactive)
REMARK    1  A    between atoms: C8_9  and  C9_10 
REMARK    2  A    between atoms: C8_9  and  S2_12 
REMARK    3  A    between atoms: S2_12  and  C10_13 
REMARK       I    between atoms: C10_13  and  N2_15 
REMARK    4  A    between atoms: N2_15  and  C11_16 
ROOT
HETATM    1  C1  UNL     1      20.265   5.996  49.003  1.00  0.00     0.049 C 
HETATM    2  C2  UNL     1      21.343   5.184  49.712  1.00  0.00    -0.047 C 
HETATM    3  C3  UNL     1      21.763   4.008  49.097  1.00  0.00     0.094 C 
HETATM    4  N1  UNL     1      22.705   3.660  50.084  1.00  0.00    -0.366 N 
HETATM    5  C4  UNL     1      24.085   3.932  50.457  1.00  0.00     0.136 C 
HETATM    6  C5  UNL     1      23.504   4.211  51.859  1.00  0.00     0.070 C 
HETATM    7  C6  UNL     1      22.623   5.431  51.793  1.00  0.00    -0.016 C 
HETATM    8  C7  UNL     1      21.656   5.974  50.981  1.00  0.00     0.004 C 
HETATM    9  C8  UNL     1      22.704   2.984  51.398  1.00  0.00     0.126 C 
ENDROOT
BRANCH   9  10
HETATM   10  C9  UNL     1      21.373   3.088  52.093  1.00  0.00     0.097 C 
HETATM   11  S1  UNL     1      20.080   2.497  52.285  1.00  0.00    -0.094 SA
ENDBRANCH   9  10
BRANCH   9  12
HETATM   12  S2  UNL     1      23.378   1.425  51.482  1.00  0.00    -0.032 SA
BRANCH  12  13
HETATM   13  C10 UNL     1      24.452   0.842  52.700  1.00  0.00     0.287 C 
HETATM   14  O1  UNL     1      24.924   0.400  53.817  1.00  0.00    -0.260 OA
HETATM   15  N2  UNL     1      25.739   0.828  52.017  1.00  0.00    -0.318 N 
HETATM   16  H11 UNL     1      26.161   1.058  51.058  1.00  0.00     0.169 HD
BRANCH  15  17
HETATM   17  C11 UNL     1      26.998   0.414  52.599  1.00  0.00     0.035 A 
HETATM   18  C12 UNL     1      27.853   1.402  53.100  1.00  0.00     0.029 A 
HETATM   19  C13 UNL     1      29.066   0.980  53.658  1.00  0.00     0.002 A 
HETATM   20  C14 UNL     1      29.435  -0.348  53.729  1.00  0.00     0.000 A 
HETATM   21  C15 UNL     1      28.565  -1.284  53.226  1.00  0.00     0.002 A 
HETATM   22  C16 UNL     1      27.342  -0.937  52.657  1.00  0.00     0.029 A 
ENDBRANCH  15  17
ENDBRANCH  12  13
ENDBRANCH   9  12
TORSDOF 4
ENDMDL
MODEL 7
REMARK VINA RESULT:      -6.5      9.031     11.855
REMARK  4 active torsions:
REMARK  status: ('A' for Active; 'I' for Inactive)
REMARK    1  A    between atoms: C8_9  and  C9_10 
REMARK    2  A    between atoms: C8_9  and  S2_12 
REMARK    3  A    between atoms: S2_12  and  C10_13 
REMARK       I    between atoms: C10_13  and  N2_15 
REMARK    4  A    between atoms: N2_15  and  C11_16 
ROOT
HETATM    1  C1  UNL     1      34.850   5.116  43.548  1.00  0.00     0.049 C 
HETATM    2  C2  UNL     1      34.147   4.773  44.858  1.00  0.00    -0.047 C 
HETATM    3  C3  UNL     1      32.962   5.447  45.139  1.00  0.00     0.094 C 
HETATM    4  N1  UNL     1      32.726   4.810  46.373  1.00  0.00    -0.366 N 
HETATM    5  C4  UNL     1      32.135   3.591  46.906  1.00  0.00     0.136 C 
HETATM    6  C5  UNL     1      33.457   3.461  47.691  1.00  0.00     0.070 C 
HETATM    7  C6  UNL     1      34.586   3.234  46.720  1.00  0.00    -0.016 C 
HETATM    8  C7  UNL     1      35.030   3.711  45.509  1.00  0.00     0.004 C 
HETATM    9  C8  UNL     1      33.159   4.965  47.777  1.00  0.00     0.126 C 
ENDROOT
BRANCH   9  10
HETATM   10  C9  UNL     1      34.502   5.635  47.889  1.00  0.00     0.097 C 
HETATM   11  S1  UNL     1      35.279   6.644  48.550  1.00  0.00    -0.094 SA
ENDBRANCH   9  10
BRANCH   9  12
HETATM   12  S2  UNL     1      32.022   5.564  48.890  1.00  0.00    -0.032 SA
BRANCH  12  13
HETATM   13  C10 UNL     1      30.934   6.876  48.630  1.00  0.00     0.287 C 
HETATM   14  O1  UNL     1      29.859   7.567  48.445  1.00  0.00    -0.260 OA
HETATM   15  N2  UNL     1      31.822   8.030  48.579  1.00  0.00    -0.318 N 
HETATM   16  H11 UNL     1      32.866   8.265  48.652  1.00  0.00     0.169 HD
BRANCH  15  17
HETATM   17  C11 UNL     1      31.411   9.403  48.377  1.00  0.00     0.035 A 
HETATM   18  C12 UNL     1      31.598   9.973  47.113  1.00  0.00     0.029 A 
HETATM   19  C13 UNL     1      31.194  11.302  46.940  1.00  0.00     0.002 A 
HETATM   20  C14 UNL     1      30.630  12.050  47.953  1.00  0.00     0.000 A 
HETATM   21  C15 UNL     1      30.465  11.452  49.179  1.00  0.00     0.002 A 
HETATM   22  C16 UNL     1      30.843  10.134  49.422  1.00  0.00     0.029 A 
ENDBRANCH  15  17
ENDBRANCH  12  13
ENDBRANCH   9  12
TORSDOF 4
ENDMDL
MODEL 8
REMARK VINA RESULT:      -6.5      1.948      2.311
REMARK  4 active torsions:
REMARK  status: ('A' for Active; 'I' for Inactive)
REMARK    1  A    between atoms: C8_9  and  C9_10 
REMARK    2  A    between atoms: C8_9  and  S2_12 
REMARK    3  A    between atoms: S2_12  and  C10_13 
REMARK       I    between atoms: C10_13  and  N2_15 
REMARK    4  A    between atoms: N2_15  and  C11_16 
ROOT
HETATM    1  C1  UNL     1      24.587   6.298  48.566  1.00  0.00     0.049 C 
HETATM    2  C2  UNL     1      23.981   5.580  49.767  1.00  0.00    -0.047 C 
HETATM    3  C3  UNL     1      24.800   4.692  50.458  1.00  0.00     0.094 C 
HETATM    4  N1  UNL     1      23.834   4.322  51.414  1.00  0.00    -0.366 N 
HETATM    5  C4  UNL     1      23.290   4.776  52.685  1.00  0.00     0.136 C 
HETATM    6  C5  UNL     1      21.918   4.595  52.002  1.00  0.00     0.070 C 
HETATM    7  C6  UNL     1      21.792   5.589  50.878  1.00  0.00    -0.016 C 
HETATM    8  C7  UNL     1      22.547   6.098  49.848  1.00  0.00     0.004 C 
HETATM    9  C8  UNL     1      22.707   3.372  51.509  1.00  0.00     0.126 C 
ENDROOT
BRANCH   9  10
HETATM   10  C9  UNL     1      22.127   3.037  50.161  1.00  0.00     0.097 C 
HETATM   11  S1  UNL     1      21.917   2.017  49.176  1.00  0.00    -0.094 SA
ENDBRANCH   9  10
BRANCH   9  12
HETATM   12  S2  UNL     1      22.909   2.008  52.504  1.00  0.00    -0.032 SA
BRANCH  12  13
HETATM   13  C10 UNL     1      24.317   1.018  52.603  1.00  0.00     0.287 C 
HETATM   14  O1  UNL     1      25.146   0.038  52.466  1.00  0.00    -0.260 OA
HETATM   15  N2  UNL     1      25.235   1.836  53.384  1.00  0.00    -0.318 N 
HETATM   16  H11 UNL     1      25.272   2.793  53.868  1.00  0.00     0.169 HD
BRANCH  15  17
HETATM   17  C11 UNL     1      26.583   1.466  53.761  1.00  0.00     0.035 A 
HETATM   18  C12 UNL     1      26.752   0.445  54.702  1.00  0.00     0.029 A 
HETATM   19  C13 UNL     1      28.064   0.103  55.052  1.00  0.00     0.002 A 
HETATM   20  C14 UNL     1      29.169   0.728  54.511  1.00  0.00     0.000 A 
HETATM   21  C15 UNL     1      28.958   1.725  53.591  1.00  0.00     0.002 A 
HETATM   22  C16 UNL     1      27.681   2.116  53.195  1.00  0.00     0.029 A 
ENDBRANCH  15  17
ENDBRANCH  12  13
ENDBRANCH   9  12
TORSDOF 4
ENDMDL
MODEL 9
REMARK VINA RESULT:      -6.4      2.700      3.720
REMARK  4 active torsions:
REMARK  status: ('A' for Active; 'I' for Inactive)
REMARK    1  A    between atoms: C8_9  and  C9_10 
REMARK    2  A    between atoms: C8_9  and  S2_12 
REMARK    3  A    between atoms: S2_12  and  C10_13 
REMARK       I    between atoms: C10_13  and  N2_15 
REMARK    4  A    between atoms: N2_15  and  C11_16 
ROOT
HETATM    1  C1  UNL     1      19.927   6.284  48.856  1.00  0.00     0.049 C 
HETATM    2  C2  UNL     1      20.912   5.175  49.216  1.00  0.00    -0.047 C 
HETATM    3  C3  UNL     1      20.986   4.800  50.554  1.00  0.00     0.094 C 
HETATM    4  N1  UNL     1      21.970   3.809  50.369  1.00  0.00    -0.366 N 
HETATM    5  C4  UNL     1      22.087   2.408  49.991  1.00  0.00     0.136 C 
HETATM    6  C5  UNL     1      23.159   2.911  49.001  1.00  0.00     0.070 C 
HETATM    7  C6  UNL     1      22.501   3.784  47.965  1.00  0.00    -0.016 C 
HETATM    8  C7  UNL     1      21.566   4.789  47.891  1.00  0.00     0.004 C 
HETATM    9  C8  UNL     1      23.442   3.745  50.259  1.00  0.00     0.126 C 
ENDROOT
BRANCH   9  10
HETATM   10  C9  UNL     1      24.033   5.037  49.760  1.00  0.00     0.097 C 
HETATM   11  S1  UNL     1      25.001   6.070  49.989  1.00  0.00    -0.094 SA
ENDBRANCH   9  10
BRANCH   9  12
HETATM   12  S2  UNL     1      24.301   3.082  51.568  1.00  0.00    -0.032 SA
BRANCH  12  13
HETATM   13  C10 UNL     1      25.946   2.564  51.549  1.00  0.00     0.287 C 
HETATM   14  O1  UNL     1      27.191   2.425  51.235  1.00  0.00    -0.260 OA
HETATM   15  N2  UNL     1      26.002   1.620  52.658  1.00  0.00    -0.318 N 
HETATM   16  H11 UNL     1      25.362   1.198  53.409  1.00  0.00     0.169 HD
BRANCH  15  17
HETATM   17  C11 UNL     1      27.175   0.886  53.082  1.00  0.00     0.035 A 
HETATM   18  C12 UNL     1      27.289  -0.458  52.707  1.00  0.00     0.029 A 
HETATM   19  C13 UNL     1      28.431  -1.149  53.129  1.00  0.00     0.002 A 
HETATM   20  C14 UNL     1      29.424  -0.561  53.885  1.00  0.00     0.000 A 
HETATM   21  C15 UNL     1      29.272   0.759  54.232  1.00  0.00     0.002 A 
HETATM   22  C16 UNL     1      28.162   1.508  53.847  1.00  0.00     0.029 A 
ENDBRANCH  15  17
ENDBRANCH  12  13
ENDBRANCH   9  12
TORSDOF 4
ENDMDL
