MODEL 1
REMARK VINA RESULT:      -7.3      0.000      0.000
REMARK  6 active torsions:
REMARK  status: ('A' for Active; 'I' for Inactive)
REMARK    1  A    between atoms: C2_2  and  C3_3 
REMARK       I    between atoms: C3_3  and  N1_5 
REMARK    2  A    between atoms: N1_5  and  C4_6 
REMARK    3  A    between atoms: C9_13  and  N4_14 
REMARK    4  A    between atoms: N4_14  and  C10_15 
REMARK    5  A    between atoms: C10_15  and  C11_16 
REMARK    6  A    between atoms: C11_16  and  C12_17 
ROOT
HETATM    1  C4  UNL     1      25.153  -0.616  54.257  1.00  0.00     0.036 A 
HETATM    2  C5  UNL     1      24.551  -1.240  55.320  1.00  0.00     0.032 A 
HETATM    3  C6  UNL     1      23.168  -1.329  55.457  1.00  0.00     0.035 A 
HETATM    4  C7  UNL     1      22.466  -0.736  54.429  1.00  0.00     0.072 A 
HETATM    5  N2  UNL     1      21.106  -0.781  54.475  1.00  0.00    -0.241 NA
HETATM    6  C8  UNL     1      20.350  -0.235  53.517  1.00  0.00     0.236 A 
HETATM    7  N3  UNL     1      20.868   0.407  52.421  1.00  0.00    -0.224 NA
HETATM    8  C9  UNL     1      22.232   0.481  52.323  1.00  0.00     0.141 A 
HETATM    9  C14 UNL     1      22.978  -0.088  53.319  1.00  0.00     0.041 A 
HETATM   10  C15 UNL     1      24.372  -0.035  53.246  1.00  0.00     0.047 A 
ENDROOT
BRANCH   8  11
HETATM   11  N4  UNL     1      22.859   1.113  51.214  1.00  0.00    -0.350 N 
HETATM   12  H8  UNL     1      23.006   0.416  50.458  1.00  0.00     0.166 HD
BRANCH  11  13
HETATM   13  C10 UNL     1      23.303   2.397  50.944  1.00  0.00     0.091 C 
BRANCH  13  14
HETATM   14  C11 UNL     1      23.780   3.576  50.687  1.00  0.00     0.032 C 
BRANCH  14  15
HETATM   15  C12 UNL     1      25.225   3.359  50.456  1.00  0.00    -0.010 C 
HETATM   16  C13 UNL     1      25.844   4.048  49.499  1.00  0.00     0.051 C 
HETATM   17 BR1  UNL     1      26.522   2.243  51.270  1.00  0.00    -0.056 Br
ENDBRANCH  14  15
ENDBRANCH  13  14
ENDBRANCH  11  13
ENDBRANCH   8  11
BRANCH   1  18
HETATM   18  N1  UNL     1      26.564  -0.643  54.321  1.00  0.00    -0.324 N 
HETATM   19  C3  UNL     1      27.575   0.310  54.568  1.00  0.00     0.241 C 
HETATM   20  O1  UNL     1      27.089   1.438  54.784  1.00  0.00    -0.269 OA
HETATM   21  H4  UNL     1      26.714  -1.674  54.117  1.00  0.00     0.169 HD
BRANCH  19  22
HETATM   22  C2  UNL     1      28.913  -0.227  54.517  1.00  0.00     0.048 C 
HETATM   23  C1  UNL     1      29.474  -0.914  53.504  1.00  0.00     0.037 C 
ENDBRANCH  19  22
ENDBRANCH   1  18
TORSDOF 6
ENDMDL
MODEL 2
REMARK VINA RESULT:      -7.2      1.803      2.376
REMARK  6 active torsions:
REMARK  status: ('A' for Active; 'I' for Inactive)
REMARK    1  A    between atoms: C2_2  and  C3_3 
REMARK       I    between atoms: C3_3  and  N1_5 
REMARK    2  A    between atoms: N1_5  and  C4_6 
REMARK    3  A    between atoms: C9_13  and  N4_14 
REMARK    4  A    between atoms: N4_14  and  C10_15 
REMARK    5  A    between atoms: C10_15  and  C11_16 
REMARK    6  A    between atoms: C11_16  and  C12_17 
ROOT
HETATM    1  C4  UNL     1      25.636   0.457  53.037  1.00  0.00     0.036 A 
HETATM    2  C5  UNL     1      24.742  -0.516  53.400  1.00  0.00     0.032 A 
HETATM    3  C6  UNL     1      23.363  -0.319  53.378  1.00  0.00     0.035 A 
HETATM    4  C7  UNL     1      22.986   0.939  52.957  1.00  0.00     0.072 A 
HETATM    5  N2  UNL     1      21.655   1.219  52.898  1.00  0.00    -0.241 NA
HETATM    6  C8  UNL     1      21.204   2.413  52.496  1.00  0.00     0.236 A 
HETATM    7  N3  UNL     1      22.027   3.441  52.115  1.00  0.00    -0.224 NA
HETATM    8  C9  UNL     1      23.377   3.214  52.156  1.00  0.00     0.141 A 
HETATM    9  C14 UNL     1      23.807   1.983  52.570  1.00  0.00     0.041 A 
HETATM   10  C15 UNL     1      25.178   1.716  52.618  1.00  0.00     0.047 A 
ENDROOT
BRANCH   8  11
HETATM   11  N4  UNL     1      24.307   4.216  51.765  1.00  0.00    -0.350 N 
HETATM   12  H8  UNL     1      24.754   4.620  52.611  1.00  0.00     0.166 HD
BRANCH  11  13
HETATM   13  C10 UNL     1      24.716   4.751  50.555  1.00  0.00     0.091 C 
BRANCH  13  14
HETATM   14  C11 UNL     1      25.142   5.288  49.454  1.00  0.00     0.032 C 
BRANCH  14  15
HETATM   15  C12 UNL     1      26.457   4.656  49.206  1.00  0.00    -0.010 C 
HETATM   16  C13 UNL     1      26.628   3.368  49.501  1.00  0.00     0.051 C 
HETATM   17 BR1  UNL     1      28.097   5.292  48.504  1.00  0.00    -0.056 Br
ENDBRANCH  14  15
ENDBRANCH  13  14
ENDBRANCH  11  13
ENDBRANCH   8  11
BRANCH   1  18
HETATM   18  N1  UNL     1      26.983   0.043  53.135  1.00  0.00    -0.324 N 
HETATM   19  C3  UNL     1      27.985   0.115  54.126  1.00  0.00     0.241 C 
HETATM   20  O1  UNL     1      27.562   0.680  55.155  1.00  0.00    -0.269 OA
HETATM   21  H4  UNL     1      27.086  -0.396  52.173  1.00  0.00     0.169 HD
BRANCH  19  22
HETATM   22  C2  UNL     1      29.244  -0.469  53.732  1.00  0.00     0.048 C 
HETATM   23  C1  UNL     1      29.466  -1.741  53.351  1.00  0.00     0.037 C 
ENDBRANCH  19  22
ENDBRANCH   1  18
TORSDOF 6
ENDMDL
MODEL 3
REMARK VINA RESULT:      -6.7      2.446      5.354
REMARK  6 active torsions:
REMARK  status: ('A' for Active; 'I' for Inactive)
REMARK    1  A    between atoms: C2_2  and  C3_3 
REMARK       I    between atoms: C3_3  and  N1_5 
REMARK    2  A    between atoms: N1_5  and  C4_6 
REMARK    3  A    between atoms: C9_13  and  N4_14 
REMARK    4  A    between atoms: N4_14  and  C10_15 
REMARK    5  A    between atoms: C10_15  and  C11_16 
REMARK    6  A    between atoms: C11_16  and  C12_17 
ROOT
HETATM    1  C4  UNL     1      23.637   0.512  53.403  1.00  0.00     0.036 A 
HETATM    2  C5  UNL     1      23.896  -0.570  54.204  1.00  0.00     0.032 A 
HETATM    3  C6  UNL     1      25.185  -0.932  54.588  1.00  0.00     0.035 A 
HETATM    4  C7  UNL     1      26.168  -0.103  54.090  1.00  0.00     0.072 A 
HETATM    5  N2  UNL     1      27.461  -0.377  54.420  1.00  0.00    -0.241 NA
HETATM    6  C8  UNL     1      28.474   0.379  53.984  1.00  0.00     0.236 A 
HETATM    7  N3  UNL     1      28.306   1.477  53.181  1.00  0.00    -0.224 NA
HETATM    8  C9  UNL     1      27.025   1.800  52.818  1.00  0.00     0.141 A 
HETATM    9  C14 UNL     1      26.010   1.008  53.281  1.00  0.00     0.041 A 
HETATM   10  C15 UNL     1      24.691   1.312  52.934  1.00  0.00     0.047 A 
ENDROOT
BRANCH   8  11
HETATM   11  N4  UNL     1      26.752   2.931  52.000  1.00  0.00    -0.350 N 
HETATM   12  H8  UNL     1      26.617   3.766  52.602  1.00  0.00     0.166 HD
BRANCH  11  13
HETATM   13  C10 UNL     1      26.623   3.143  50.638  1.00  0.00     0.091 C 
BRANCH  13  14
HETATM   14  C11 UNL     1      26.467   3.289  49.359  1.00  0.00     0.032 C 
BRANCH  14  15
HETATM   15  C12 UNL     1      26.819   4.702  49.092  1.00  0.00    -0.010 C 
HETATM   16  C13 UNL     1      28.005   4.990  48.560  1.00  0.00     0.051 C 
HETATM   17 BR1  UNL     1      25.904   6.342  49.342  1.00  0.00    -0.056 Br
ENDBRANCH  14  15
ENDBRANCH  13  14
ENDBRANCH  11  13
ENDBRANCH   8  11
BRANCH   1  18
HETATM   18  N1  UNL     1      22.261   0.694  53.139  1.00  0.00    -0.324 N 
HETATM   19  C3  UNL     1      21.475   0.850  51.978  1.00  0.00     0.241 C 
HETATM   20  O1  UNL     1      22.177   0.813  50.948  1.00  0.00    -0.269 OA
HETATM   21  H4  UNL     1      21.904   0.683  54.139  1.00  0.00     0.169 HD
BRANCH  19  22
HETATM   22  C2  UNL     1      20.065   1.015  52.240  1.00  0.00     0.048 C 
HETATM   23  C1  UNL     1      19.086   0.121  52.006  1.00  0.00     0.037 C 
ENDBRANCH  19  22
ENDBRANCH   1  18
TORSDOF 6
ENDMDL
MODEL 4
REMARK VINA RESULT:      -6.5      2.373      5.309
REMARK  6 active torsions:
REMARK  status: ('A' for Active; 'I' for Inactive)
REMARK    1  A    between atoms: C2_2  and  C3_3 
REMARK       I    between atoms: C3_3  and  N1_5 
REMARK    2  A    between atoms: N1_5  and  C4_6 
REMARK    3  A    between atoms: C9_13  and  N4_14 
REMARK    4  A    between atoms: N4_14  and  C10_15 
REMARK    5  A    between atoms: C10_15  and  C11_16 
REMARK    6  A    between atoms: C11_16  and  C12_17 
ROOT
HETATM    1  C4  UNL     1      24.602   3.490  50.987  1.00  0.00     0.036 A 
HETATM    2  C5  UNL     1      23.315   3.955  50.903  1.00  0.00     0.032 A 
HETATM    3  C6  UNL     1      22.242   3.317  51.520  1.00  0.00     0.035 A 
HETATM    4  C7  UNL     1      22.594   2.181  52.219  1.00  0.00     0.072 A 
HETATM    5  N2  UNL     1      21.609   1.495  52.860  1.00  0.00    -0.241 NA
HETATM    6  C8  UNL     1      21.866   0.387  53.564  1.00  0.00     0.236 A 
HETATM    7  N3  UNL     1      23.121  -0.147  53.701  1.00  0.00    -0.224 NA
HETATM    8  C9  UNL     1      24.152   0.504  53.075  1.00  0.00     0.141 A 
HETATM    9  C14 UNL     1      23.857   1.635  52.364  1.00  0.00     0.041 A 
HETATM   10  C15 UNL     1      24.886   2.326  51.719  1.00  0.00     0.047 A 
ENDROOT
BRANCH   8  11
HETATM   11  N4  UNL     1      25.490   0.034  53.173  1.00  0.00    -0.350 N 
HETATM   12  H8  UNL     1      25.738  -0.482  52.306  1.00  0.00     0.166 HD
BRANCH  11  13
HETATM   13  C10 UNL     1      26.483   0.105  54.136  1.00  0.00     0.091 C 
BRANCH  13  14
HETATM   14  C11 UNL     1      27.374   0.139  55.078  1.00  0.00     0.032 C 
BRANCH  14  15
HETATM   15  C12 UNL     1      28.671   0.220  54.370  1.00  0.00    -0.010 C 
HETATM   16  C13 UNL     1      29.282   1.399  54.258  1.00  0.00     0.051 C 
HETATM   17 BR1  UNL     1      29.772  -1.064  53.516  1.00  0.00    -0.056 Br
ENDBRANCH  14  15
ENDBRANCH  13  14
ENDBRANCH  11  13
ENDBRANCH   8  11
BRANCH   1  18
HETATM   18  N1  UNL     1      25.531   4.291  50.287  1.00  0.00    -0.324 N 
HETATM   19  C3  UNL     1      26.662   4.043  49.481  1.00  0.00     0.241 C 
HETATM   20  O1  UNL     1      26.876   2.820  49.367  1.00  0.00    -0.269 OA
HETATM   21  H4  UNL     1      25.136   5.246  50.532  1.00  0.00     0.169 HD
BRANCH  19  22
HETATM   22  C2  UNL     1      27.301   5.237  48.981  1.00  0.00     0.048 C 
HETATM   23  C1  UNL     1      28.484   5.319  48.343  1.00  0.00     0.037 C 
ENDBRANCH  19  22
ENDBRANCH   1  18
TORSDOF 6
ENDMDL
MODEL 5
REMARK VINA RESULT:      -6.4      1.959      4.589
REMARK  6 active torsions:
REMARK  status: ('A' for Active; 'I' for Inactive)
REMARK    1  A    between atoms: C2_2  and  C3_3 
REMARK       I    between atoms: C3_3  and  N1_5 
REMARK    2  A    between atoms: N1_5  and  C4_6 
REMARK    3  A    between atoms: C9_13  and  N4_14 
REMARK    4  A    between atoms: N4_14  and  C10_15 
REMARK    5  A    between atoms: C10_15  and  C11_16 
REMARK    6  A    between atoms: C11_16  and  C12_17 
ROOT
HETATM    1  C4  UNL     1      23.456   1.663  51.584  1.00  0.00     0.036 A 
HETATM    2  C5  UNL     1      22.120   1.830  51.327  1.00  0.00     0.032 A 
HETATM    3  C6  UNL     1      21.129   1.116  51.998  1.00  0.00     0.035 A 
HETATM    4  C7  UNL     1      21.617   0.234  52.938  1.00  0.00     0.072 A 
HETATM    5  N2  UNL     1      20.719  -0.503  53.649  1.00  0.00    -0.241 NA
HETATM    6  C8  UNL     1      21.108  -1.378  54.583  1.00  0.00     0.236 A 
HETATM    7  N3  UNL     1      22.421  -1.607  54.903  1.00  0.00    -0.224 NA
HETATM    8  C9  UNL     1      23.369  -0.893  54.218  1.00  0.00     0.141 A 
HETATM    9  C14 UNL     1      22.939  -0.004  53.270  1.00  0.00     0.041 A 
HETATM   10  C15 UNL     1      23.879   0.745  52.558  1.00  0.00     0.047 A 
ENDROOT
BRANCH   8  11
HETATM   11  N4  UNL     1      24.755  -1.052  54.492  1.00  0.00    -0.350 N 
HETATM   12  H8  UNL     1      24.993  -2.062  54.486  1.00  0.00     0.166 HD
BRANCH  11  13
HETATM   13  C10 UNL     1      25.803  -0.188  54.763  1.00  0.00     0.091 C 
BRANCH  13  14
HETATM   14  C11 UNL     1      26.808   0.609  54.958  1.00  0.00     0.032 C 
BRANCH  14  15
HETATM   15  C12 UNL     1      27.761   0.290  53.871  1.00  0.00    -0.010 C 
HETATM   16  C13 UNL     1      27.457   0.622  52.617  1.00  0.00     0.051 C 
HETATM   17 BR1  UNL     1      29.461  -0.545  53.832  1.00  0.00    -0.056 Br
ENDBRANCH  14  15
ENDBRANCH  13  14
ENDBRANCH  11  13
ENDBRANCH   8  11
BRANCH   1  18
HETATM   18  N1  UNL     1      24.284   2.487  50.788  1.00  0.00    -0.324 N 
HETATM   19  C3  UNL     1      24.678   3.842  50.820  1.00  0.00     0.241 C 
HETATM   20  O1  UNL     1      24.167   4.438  51.789  1.00  0.00    -0.269 OA
HETATM   21  H4  UNL     1      24.585   1.765  50.070  1.00  0.00     0.169 HD
BRANCH  19  22
HETATM   22  C2  UNL     1      25.563   4.221  49.746  1.00  0.00     0.048 C 
HETATM   23  C1  UNL     1      26.703   3.606  49.378  1.00  0.00     0.037 C 
ENDBRANCH  19  22
ENDBRANCH   1  18
TORSDOF 6
ENDMDL
MODEL 6
REMARK VINA RESULT:      -6.4      2.555      5.304
REMARK  6 active torsions:
REMARK  status: ('A' for Active; 'I' for Inactive)
REMARK    1  A    between atoms: C2_2  and  C3_3 
REMARK       I    between atoms: C3_3  and  N1_5 
REMARK    2  A    between atoms: N1_5  and  C4_6 
REMARK    3  A    between atoms: C9_13  and  N4_14 
REMARK    4  A    between atoms: N4_14  and  C10_15 
REMARK    5  A    between atoms: C10_15  and  C11_16 
REMARK    6  A    between atoms: C11_16  and  C12_17 
ROOT
HETATM    1  C4  UNL     1      25.981   1.978  51.865  1.00  0.00     0.036 A 
HETATM    2  C5  UNL     1      27.107   1.781  52.622  1.00  0.00     0.032 A 
HETATM    3  C6  UNL     1      27.132   0.939  53.730  1.00  0.00     0.035 A 
HETATM    4  C7  UNL     1      25.925   0.324  53.992  1.00  0.00     0.072 A 
HETATM    5  N2  UNL     1      25.858  -0.524  55.055  1.00  0.00    -0.241 NA
HETATM    6  C8  UNL     1      24.728  -1.164  55.375  1.00  0.00     0.236 A 
HETATM    7  N3  UNL     1      23.558  -1.026  54.674  1.00  0.00    -0.224 NA
HETATM    8  C9  UNL     1      23.569  -0.184  53.593  1.00  0.00     0.141 A 
HETATM    9  C14 UNL     1      24.740   0.455  53.291  1.00  0.00     0.041 A 
HETATM   10  C15 UNL     1      24.787   1.316  52.192  1.00  0.00     0.047 A 
ENDROOT
BRANCH   8  11
HETATM   11  N4  UNL     1      22.407   0.010  52.797  1.00  0.00    -0.350 N 
HETATM   12  H8  UNL     1      22.682   0.405  51.877  1.00  0.00     0.166 HD
BRANCH  11  13
HETATM   13  C10 UNL     1      21.050  -0.196  52.981  1.00  0.00     0.091 C 
BRANCH  13  14
HETATM   14  C11 UNL     1      19.772  -0.326  53.160  1.00  0.00     0.032 C 
BRANCH  14  15
HETATM   15  C12 UNL     1      19.166   0.063  51.867  1.00  0.00    -0.010 C 
HETATM   16  C13 UNL     1      17.912  -0.296  51.599  1.00  0.00     0.051 C 
HETATM   17 BR1  UNL     1      19.800   1.041  50.373  1.00  0.00    -0.056 Br
ENDBRANCH  14  15
ENDBRANCH  13  14
ENDBRANCH  11  13
ENDBRANCH   8  11
BRANCH   1  18
HETATM   18  N1  UNL     1      26.180   2.872  50.790  1.00  0.00    -0.324 N 
HETATM   19  C3  UNL     1      25.559   4.058  50.343  1.00  0.00     0.241 C 
HETATM   20  O1  UNL     1      24.613   4.380  51.088  1.00  0.00    -0.269 OA
HETATM   21  H4  UNL     1      27.012   2.392  50.335  1.00  0.00     0.169 HD
BRANCH  19  22
HETATM   22  C2  UNL     1      26.148   4.615  49.150  1.00  0.00     0.048 C 
HETATM   23  C1  UNL     1      27.450   4.605  48.805  1.00  0.00     0.037 C 
ENDBRANCH  19  22
ENDBRANCH   1  18
TORSDOF 6
ENDMDL
MODEL 7
REMARK VINA RESULT:      -6.4      2.250      5.238
REMARK  6 active torsions:
REMARK  status: ('A' for Active; 'I' for Inactive)
REMARK    1  A    between atoms: C2_2  and  C3_3 
REMARK       I    between atoms: C3_3  and  N1_5 
REMARK    2  A    between atoms: N1_5  and  C4_6 
REMARK    3  A    between atoms: C9_13  and  N4_14 
REMARK    4  A    between atoms: N4_14  and  C10_15 
REMARK    5  A    between atoms: C10_15  and  C11_16 
REMARK    6  A    between atoms: C11_16  and  C12_17 
ROOT
HETATM    1  C4  UNL     1      22.626  -0.778  53.985  1.00  0.00     0.036 A 
HETATM    2  C5  UNL     1      22.990  -1.347  55.178  1.00  0.00     0.032 A 
HETATM    3  C6  UNL     1      24.287  -1.278  55.681  1.00  0.00     0.035 A 
HETATM    4  C7  UNL     1      25.164  -0.587  54.871  1.00  0.00     0.072 A 
HETATM    5  N2  UNL     1      26.454  -0.462  55.288  1.00  0.00    -0.241 NA
HETATM    6  C8  UNL     1      27.367   0.196  54.565  1.00  0.00     0.236 A 
HETATM    7  N3  UNL     1      27.089   0.795  53.363  1.00  0.00    -0.224 NA
HETATM    8  C9  UNL     1      25.805   0.701  52.896  1.00  0.00     0.141 A 
HETATM    9  C14 UNL     1      24.894   0.022  53.658  1.00  0.00     0.041 A 
HETATM   10  C15 UNL     1      23.574  -0.088  53.214  1.00  0.00     0.047 A 
ENDROOT
BRANCH   8  11
HETATM   11  N4  UNL     1      25.420   1.303  51.666  1.00  0.00    -0.350 N 
HETATM   12  H8  UNL     1      25.483   0.600  50.905  1.00  0.00     0.166 HD
BRANCH  11  13
HETATM   13  C10 UNL     1      25.010   2.569  51.285  1.00  0.00     0.091 C 
BRANCH  13  14
HETATM   14  C11 UNL     1      24.586   3.757  50.979  1.00  0.00     0.032 C 
BRANCH  14  15
HETATM   15  C12 UNL     1      23.114   3.626  50.901  1.00  0.00    -0.010 C 
HETATM   16  C13 UNL     1      22.572   2.941  49.895  1.00  0.00     0.051 C 
HETATM   17 BR1  UNL     1      21.691   4.248  51.986  1.00  0.00    -0.056 Br
ENDBRANCH  14  15
ENDBRANCH  13  14
ENDBRANCH  11  13
ENDBRANCH   8  11
BRANCH   1  18
HETATM   18  N1  UNL     1      21.263  -0.970  53.669  1.00  0.00    -0.324 N 
HETATM   19  C3  UNL     1      20.142  -0.127  53.510  1.00  0.00     0.241 C 
HETATM   20  O1  UNL     1      20.446   1.068  53.692  1.00  0.00    -0.269 OA
HETATM   21  H4  UNL     1      21.271  -2.026  53.560  1.00  0.00     0.169 HD
BRANCH  19  22
HETATM   22  C2  UNL     1      18.924  -0.827  53.179  1.00  0.00     0.048 C 
HETATM   23  C1  UNL     1      18.002  -0.465  52.267  1.00  0.00     0.037 C 
ENDBRANCH  19  22
ENDBRANCH   1  18
TORSDOF 6
ENDMDL
MODEL 8
REMARK VINA RESULT:      -6.2      2.686      5.514
REMARK  6 active torsions:
REMARK  status: ('A' for Active; 'I' for Inactive)
REMARK    1  A    between atoms: C2_2  and  C3_3 
REMARK       I    between atoms: C3_3  and  N1_5 
REMARK    2  A    between atoms: N1_5  and  C4_6 
REMARK    3  A    between atoms: C9_13  and  N4_14 
REMARK    4  A    between atoms: N4_14  and  C10_15 
REMARK    5  A    between atoms: C10_15  and  C11_16 
REMARK    6  A    between atoms: C11_16  and  C12_17 
ROOT
HETATM    1  C4  UNL     1      23.177   0.520  52.338  1.00  0.00     0.036 A 
HETATM    2  C5  UNL     1      23.555  -0.203  53.440  1.00  0.00     0.032 A 
HETATM    3  C6  UNL     1      24.839  -0.144  53.976  1.00  0.00     0.035 A 
HETATM    4  C7  UNL     1      25.688   0.706  53.299  1.00  0.00     0.072 A 
HETATM    5  N2  UNL     1      26.964   0.833  53.757  1.00  0.00    -0.241 NA
HETATM    6  C8  UNL     1      27.849   1.640  53.162  1.00  0.00     0.236 A 
HETATM    7  N3  UNL     1      27.556   2.398  52.058  1.00  0.00    -0.224 NA
HETATM    8  C9  UNL     1      26.285   2.310  51.554  1.00  0.00     0.141 A 
HETATM    9  C14 UNL     1      25.402   1.477  52.186  1.00  0.00     0.041 A 
HETATM   10  C15 UNL     1      24.097   1.368  51.701  1.00  0.00     0.047 A 
ENDROOT
BRANCH   8  11
HETATM   11  N4  UNL     1      25.885   3.071  50.421  1.00  0.00    -0.350 N 
HETATM   12  H8  UNL     1      25.792   2.442  49.600  1.00  0.00     0.166 HD
BRANCH  11  13
HETATM   13  C10 UNL     1      25.616   4.409  50.188  1.00  0.00     0.091 C 
BRANCH  13  14
HETATM   14  C11 UNL     1      25.425   5.669  49.950  1.00  0.00     0.032 C 
BRANCH  14  15
HETATM   15  C12 UNL     1      24.296   6.054  50.825  1.00  0.00    -0.010 C 
HETATM   16  C13 UNL     1      23.920   7.331  50.883  1.00  0.00     0.051 C 
HETATM   17 BR1  UNL     1      23.151   5.080  51.978  1.00  0.00    -0.056 Br
ENDBRANCH  14  15
ENDBRANCH  13  14
ENDBRANCH  11  13
ENDBRANCH   8  11
BRANCH   1  18
HETATM   18  N1  UNL     1      21.831   0.308  51.967  1.00  0.00    -0.324 N 
HETATM   19  C3  UNL     1      20.611   0.983  52.188  1.00  0.00     0.241 C 
HETATM   20  O1  UNL     1      20.781   2.011  52.874  1.00  0.00    -0.269 OA
HETATM   21  H4  UNL     1      21.958  -0.587  51.409  1.00  0.00     0.169 HD
BRANCH  19  22
HETATM   22  C2  UNL     1      19.468   0.343  51.583  1.00  0.00     0.048 C 
HETATM   23  C1  UNL     1      18.515  -0.375  52.206  1.00  0.00     0.037 C 
ENDBRANCH  19  22
ENDBRANCH   1  18
TORSDOF 6
ENDMDL
MODEL 9
REMARK VINA RESULT:      -6.2      3.129      6.082
REMARK  6 active torsions:
REMARK  status: ('A' for Active; 'I' for Inactive)
REMARK    1  A    between atoms: C2_2  and  C3_3 
REMARK       I    between atoms: C3_3  and  N1_5 
REMARK    2  A    between atoms: N1_5  and  C4_6 
REMARK    3  A    between atoms: C9_13  and  N4_14 
REMARK    4  A    between atoms: N4_14  and  C10_15 
REMARK    5  A    between atoms: C10_15  and  C11_16 
REMARK    6  A    between atoms: C11_16  and  C12_17 
ROOT
HETATM    1  C4  UNL     1      20.175   0.754  52.005  1.00  0.00     0.036 A 
HETATM    2  C5  UNL     1      19.305  -0.086  52.651  1.00  0.00     0.032 A 
HETATM    3  C6  UNL     1      19.709  -0.960  53.657  1.00  0.00     0.035 A 
HETATM    4  C7  UNL     1      21.057  -0.899  53.941  1.00  0.00     0.072 A 
HETATM    5  N2  UNL     1      21.540  -1.715  54.918  1.00  0.00    -0.241 NA
HETATM    6  C8  UNL     1      22.833  -1.716  55.259  1.00  0.00     0.236 A 
HETATM    7  N3  UNL     1      23.771  -0.910  54.666  1.00  0.00    -0.224 NA
HETATM    8  C9  UNL     1      23.339  -0.068  53.675  1.00  0.00     0.141 A 
HETATM    9  C14 UNL     1      22.010  -0.090  53.350  1.00  0.00     0.041 A 
HETATM   10  C15 UNL     1      21.536   0.761  52.348  1.00  0.00     0.047 A 
ENDROOT
BRANCH   8  11
HETATM   11  N4  UNL     1      24.236   0.815  53.014  1.00  0.00    -0.350 N 
HETATM   12  H8  UNL     1      23.849   1.779  53.036  1.00  0.00     0.166 HD
BRANCH  11  13
HETATM   13  C10 UNL     1      25.453   0.670  52.369  1.00  0.00     0.091 C 
BRANCH  13  14
HETATM   14  C11 UNL     1      26.621   0.565  51.814  1.00  0.00     0.032 C 
BRANCH  14  15
HETATM   15  C12 UNL     1      27.585   0.758  52.920  1.00  0.00    -0.010 C 
HETATM   16  C13 UNL     1      27.958  -0.290  53.652  1.00  0.00     0.051 C 
HETATM   17 BR1  UNL     1      28.501   2.270  53.601  1.00  0.00    -0.056 Br
ENDBRANCH  14  15
ENDBRANCH  13  14
ENDBRANCH  11  13
ENDBRANCH   8  11
BRANCH   1  18
HETATM   18  N1  UNL     1      19.552   1.552  51.020  1.00  0.00    -0.324 N 
HETATM   19  C3  UNL     1      18.996   2.849  50.984  1.00  0.00     0.241 C 
HETATM   20  O1  UNL     1      19.088   3.411  52.093  1.00  0.00    -0.269 OA
HETATM   21  H4  UNL     1      19.605   0.872  50.206  1.00  0.00     0.169 HD
BRANCH  19  22
HETATM   22  C2  UNL     1      18.459   3.222  49.697  1.00  0.00     0.048 C 
HETATM   23  C1  UNL     1      17.715   2.458  48.875  1.00  0.00     0.037 C 
ENDBRANCH  19  22
ENDBRANCH   1  18
TORSDOF 6
ENDMDL
