MODEL 1
REMARK VINA RESULT:      -7.4      0.000      0.000
REMARK  8 active torsions:
REMARK  status: ('A' for Active; 'I' for Inactive)
REMARK    1  A    between atoms: N1_1  and  C1_2 
REMARK    2  A    between atoms: N2_9  and  C8_10 
REMARK    3  A    between atoms: C8_10  and  C9_11 
REMARK    4  A    between atoms: C9_11  and  C10_12 
REMARK    5  A    between atoms: C10_12  and  C11_13 
REMARK    6  A    between atoms: C11_13  and  C12_14 
REMARK    7  A    between atoms: C12_14  and  C13_15 
REMARK    8  A    between atoms: C16_18  and  C17_19 
ROOT
HETATM    1  C9  UNL     1      20.938  -0.087  52.995  1.00  0.00     0.020 C 
ENDROOT
BRANCH   1   2
HETATM    2  C8  UNL     1      20.708   1.392  52.735  1.00  0.00     0.123 C 
BRANCH   2   3
HETATM    3  N2  UNL     1      21.803   1.829  51.885  1.00  0.00    -0.380 N 
HETATM    4  C4  UNL     1      23.045   2.455  52.145  1.00  0.00     0.011 A 
HETATM    5  C3  UNL     1      24.059   3.038  53.058  1.00  0.00     0.059 C 
HETATM    6  C5  UNL     1      23.280   2.428  50.831  1.00  0.00    -0.038 A 
HETATM    7  C2  UNL     1      25.404   2.822  52.391  1.00  0.00     0.041 C 
HETATM    8  C1  UNL     1      25.398   3.600  51.093  1.00  0.00     0.222 C 
HETATM    9  C6  UNL     1      24.478   2.930  50.130  1.00  0.00     0.073 C 
HETATM   10  C7  UNL     1      21.991   1.772  50.459  1.00  0.00     0.159 A 
BRANCH   8  11
HETATM   11  N1  UNL     1      26.778   3.607  50.629  1.00  0.00     0.083 N 
HETATM   12  H1  UNL     1      27.020   4.506  50.131  1.00  0.00     0.313 HD
HETATM   13  H2  UNL     1      27.453   3.504  51.419  1.00  0.00     0.313 HD
ENDBRANCH   8  11
ENDBRANCH   2   3
ENDBRANCH   1   2
BRANCH   1  14
HETATM   14  C10 UNL     1      21.307  -0.272  54.429  1.00  0.00     0.002 C 
BRANCH  14  15
HETATM   15  C11 UNL     1      22.719  -0.682  54.626  1.00  0.00     0.005 C 
BRANCH  15  16
HETATM   16  C12 UNL     1      23.386  -0.967  53.326  1.00  0.00     0.038 C 
BRANCH  16  17
HETATM   17  C13 UNL     1      24.848  -0.693  53.332  1.00  0.00    -0.058 A 
HETATM   18  C14 UNL     1      25.827  -0.823  52.372  1.00  0.00     0.008 A 
HETATM   19  C15 UNL     1      27.131  -0.492  52.666  1.00  0.00     0.017 A 
HETATM   20  C16 UNL     1      27.545  -0.025  53.896  1.00  0.00     0.047 A 
HETATM   21  C18 UNL     1      26.576   0.110  54.869  1.00  0.00     0.017 A 
HETATM   22  C19 UNL     1      25.268  -0.218  54.584  1.00  0.00     0.008 A 
BRANCH  20  23
HETATM   23  C17 UNL     1      28.969   0.314  54.155  1.00  0.00     0.417 C 
HETATM   24  F1  UNL     1      29.757  -0.821  54.208  1.00  0.00    -0.166 F 
HETATM   25  F2  UNL     1      29.419   1.160  53.153  1.00  0.00    -0.166 F 
HETATM   26  F3  UNL     1      29.151   1.013  55.333  1.00  0.00    -0.166 F 
ENDBRANCH  20  23
ENDBRANCH  16  17
ENDBRANCH  15  16
ENDBRANCH  14  15
ENDBRANCH   1  14
TORSDOF 8
ENDMDL
MODEL 2
REMARK VINA RESULT:      -6.9      1.783      4.004
REMARK  8 active torsions:
REMARK  status: ('A' for Active; 'I' for Inactive)
REMARK    1  A    between atoms: N1_1  and  C1_2 
REMARK    2  A    between atoms: N2_9  and  C8_10 
REMARK    3  A    between atoms: C8_10  and  C9_11 
REMARK    4  A    between atoms: C9_11  and  C10_12 
REMARK    5  A    between atoms: C10_12  and  C11_13 
REMARK    6  A    between atoms: C11_13  and  C12_14 
REMARK    7  A    between atoms: C12_14  and  C13_15 
REMARK    8  A    between atoms: C16_18  and  C17_19 
ROOT
HETATM    1  C9  UNL     1      21.511   2.684  50.380  1.00  0.00     0.020 C 
ENDROOT
BRANCH   1   2
HETATM    2  C8  UNL     1      20.575   1.505  50.584  1.00  0.00     0.123 C 
BRANCH   2   3
HETATM    3  N2  UNL     1      20.816   1.023  51.933  1.00  0.00    -0.380 N 
HETATM    4  C4  UNL     1      21.732   0.097  52.484  1.00  0.00     0.011 A 
HETATM    5  C3  UNL     1      22.849  -0.875  52.375  1.00  0.00     0.059 C 
HETATM    6  C5  UNL     1      21.191   0.345  53.679  1.00  0.00    -0.038 A 
HETATM    7  C2  UNL     1      23.584  -0.828  53.701  1.00  0.00     0.041 C 
HETATM    8  C1  UNL     1      22.622  -1.297  54.770  1.00  0.00     0.222 C 
HETATM    9  C6  UNL     1      21.576  -0.253  54.973  1.00  0.00     0.073 C 
HETATM   10  C7  UNL     1      20.185   1.333  53.189  1.00  0.00     0.159 A 
BRANCH   8  11
HETATM   11  N1  UNL     1      23.429  -1.513  55.962  1.00  0.00     0.083 N 
HETATM   12  H1  UNL     1      24.069  -2.346  55.856  1.00  0.00     0.313 HD
HETATM   13  H2  UNL     1      24.033  -0.690  56.176  1.00  0.00     0.313 HD
ENDBRANCH   8  11
ENDBRANCH   2   3
ENDBRANCH   1   2
BRANCH   1  14
HETATM   14  C10 UNL     1      22.751   2.202  49.703  1.00  0.00     0.002 C 
BRANCH  14  15
HETATM   15  C11 UNL     1      23.988   2.843  50.213  1.00  0.00     0.005 C 
BRANCH  15  16
HETATM   16  C12 UNL     1      23.940   3.011  51.691  1.00  0.00     0.038 C 
BRANCH  16  17
HETATM   17  C13 UNL     1      25.019   2.284  52.410  1.00  0.00    -0.058 A 
HETATM   18  C14 UNL     1      25.447   2.301  53.719  1.00  0.00     0.008 A 
HETATM   19  C15 UNL     1      26.502   1.507  54.112  1.00  0.00     0.017 A 
HETATM   20  C16 UNL     1      27.187   0.666  53.261  1.00  0.00     0.047 A 
HETATM   21  C18 UNL     1      26.772   0.637  51.946  1.00  0.00     0.017 A 
HETATM   22  C19 UNL     1      25.717   1.428  51.543  1.00  0.00     0.008 A 
BRANCH  20  23
HETATM   23  C17 UNL     1      28.321  -0.166  53.743  1.00  0.00     0.417 C 
HETATM   24  F1  UNL     1      28.225  -1.467  53.283  1.00  0.00    -0.166 F 
HETATM   25  F2  UNL     1      29.510   0.404  53.313  1.00  0.00    -0.166 F 
HETATM   26  F3  UNL     1      28.412  -0.208  55.121  1.00  0.00    -0.166 F 
ENDBRANCH  20  23
ENDBRANCH  16  17
ENDBRANCH  15  16
ENDBRANCH  14  15
ENDBRANCH   1  14
TORSDOF 8
ENDMDL
MODEL 3
REMARK VINA RESULT:      -6.9      3.547      5.939
REMARK  8 active torsions:
REMARK  status: ('A' for Active; 'I' for Inactive)
REMARK    1  A    between atoms: N1_1  and  C1_2 
REMARK    2  A    between atoms: N2_9  and  C8_10 
REMARK    3  A    between atoms: C8_10  and  C9_11 
REMARK    4  A    between atoms: C9_11  and  C10_12 
REMARK    5  A    between atoms: C10_12  and  C11_13 
REMARK    6  A    between atoms: C11_13  and  C12_14 
REMARK    7  A    between atoms: C12_14  and  C13_15 
REMARK    8  A    between atoms: C16_18  and  C17_19 
ROOT
HETATM    1  C9  UNL     1      22.505   0.808  53.412  1.00  0.00     0.020 C 
ENDROOT
BRANCH   1   2
HETATM    2  C8  UNL     1      23.241  -0.470  53.050  1.00  0.00     0.123 C 
BRANCH   2   3
HETATM    3  N2  UNL     1      24.578  -0.340  53.606  1.00  0.00    -0.380 N 
HETATM    4  C4  UNL     1      25.800   0.154  53.093  1.00  0.00     0.011 A 
HETATM    5  C3  UNL     1      26.629   0.757  52.019  1.00  0.00     0.059 C 
HETATM    6  C5  UNL     1      26.358  -0.137  54.270  1.00  0.00    -0.038 A 
HETATM    7  C2  UNL     1      27.716   1.552  52.719  1.00  0.00     0.041 C 
HETATM    8  C1  UNL     1      28.558   0.572  53.506  1.00  0.00     0.222 C 
HETATM    9  C6  UNL     1      27.765   0.070  54.665  1.00  0.00     0.073 C 
HETATM   10  C7  UNL     1      25.117  -0.682  54.896  1.00  0.00     0.159 A 
BRANCH   8  11
HETATM   11  N1  UNL     1      29.741   1.313  53.921  1.00  0.00     0.083 N 
HETATM   12  H1  UNL     1      30.546   0.669  54.149  1.00  0.00     0.313 HD
HETATM   13  H2  UNL     1      30.072   1.964  53.177  1.00  0.00     0.313 HD
ENDBRANCH   8  11
ENDBRANCH   2   3
ENDBRANCH   1   2
BRANCH   1  14
HETATM   14  C10 UNL     1      22.201   1.559  52.159  1.00  0.00     0.002 C 
BRANCH  14  15
HETATM   15  C11 UNL     1      23.275   2.502  51.761  1.00  0.00     0.005 C 
BRANCH  15  16
HETATM   16  C12 UNL     1      23.736   2.239  50.370  1.00  0.00     0.038 C 
BRANCH  16  17
HETATM   17  C13 UNL     1      24.739   3.222  49.878  1.00  0.00    -0.058 A 
HETATM   18  C14 UNL     1      26.096   3.142  49.661  1.00  0.00     0.008 A 
HETATM   19  C15 UNL     1      26.787   4.239  49.196  1.00  0.00     0.017 A 
HETATM   20  C16 UNL     1      26.200   5.456  48.922  1.00  0.00     0.047 A 
HETATM   21  C18 UNL     1      24.840   5.553  49.135  1.00  0.00     0.017 A 
HETATM   22  C19 UNL     1      24.140   4.460  49.600  1.00  0.00     0.008 A 
BRANCH  20  23
HETATM   23  C17 UNL     1      26.998   6.606  48.424  1.00  0.00     0.417 C 
HETATM   24  F1  UNL     1      28.174   6.186  47.829  1.00  0.00    -0.166 F 
HETATM   25  F2  UNL     1      26.234   7.322  47.514  1.00  0.00    -0.166 F 
HETATM   26  F3  UNL     1      27.323   7.508  49.418  1.00  0.00    -0.166 F 
ENDBRANCH  20  23
ENDBRANCH  16  17
ENDBRANCH  15  16
ENDBRANCH  14  15
ENDBRANCH   1  14
TORSDOF 8
ENDMDL
MODEL 4
REMARK VINA RESULT:      -6.9      1.797      2.430
REMARK  8 active torsions:
REMARK  status: ('A' for Active; 'I' for Inactive)
REMARK    1  A    between atoms: N1_1  and  C1_2 
REMARK    2  A    between atoms: N2_9  and  C8_10 
REMARK    3  A    between atoms: C8_10  and  C9_11 
REMARK    4  A    between atoms: C9_11  and  C10_12 
REMARK    5  A    between atoms: C10_12  and  C11_13 
REMARK    6  A    between atoms: C11_13  and  C12_14 
REMARK    7  A    between atoms: C12_14  and  C13_15 
REMARK    8  A    between atoms: C16_18  and  C17_19 
ROOT
HETATM    1  C9  UNL     1      20.380   1.330  50.707  1.00  0.00     0.020 C 
ENDROOT
BRANCH   1   2
HETATM    2  C8  UNL     1      21.550   1.118  49.763  1.00  0.00     0.123 C 
BRANCH   2   3
HETATM    3  N2  UNL     1      22.349   2.330  49.827  1.00  0.00    -0.380 N 
HETATM    4  C4  UNL     1      22.417   3.401  50.748  1.00  0.00     0.011 A 
HETATM    5  C3  UNL     1      21.993   4.102  51.986  1.00  0.00     0.059 C 
HETATM    6  C5  UNL     1      23.364   3.942  49.978  1.00  0.00    -0.038 A 
HETATM    7  C2  UNL     1      23.201   4.884  52.465  1.00  0.00     0.041 C 
HETATM    8  C1  UNL     1      23.528   5.910  51.402  1.00  0.00     0.222 C 
HETATM    9  C6  UNL     1      24.082   5.211  50.207  1.00  0.00     0.073 C 
HETATM   10  C7  UNL     1      23.361   2.858  48.950  1.00  0.00     0.159 A 
BRANCH   8  11
HETATM   11  N1  UNL     1      24.491   6.817  52.010  1.00  0.00     0.083 N 
HETATM   12  H1  UNL     1      25.476   6.443  51.946  1.00  0.00     0.313 HD
HETATM   13  H2  UNL     1      24.488   7.752  51.547  1.00  0.00     0.313 HD
ENDBRANCH   8  11
ENDBRANCH   2   3
ENDBRANCH   1   2
BRANCH   1  14
HETATM   14  C10 UNL     1      20.407   0.266  51.753  1.00  0.00     0.002 C 
BRANCH  14  15
HETATM   15  C11 UNL     1      21.776  -0.193  52.092  1.00  0.00     0.005 C 
BRANCH  15  16
HETATM   16  C12 UNL     1      22.359   0.615  53.199  1.00  0.00     0.038 C 
BRANCH  16  17
HETATM   17  C13 UNL     1      23.846   0.634  53.205  1.00  0.00    -0.058 A 
HETATM   18  C14 UNL     1      24.772   1.509  52.682  1.00  0.00     0.008 A 
HETATM   19  C15 UNL     1      26.118   1.267  52.838  1.00  0.00     0.017 A 
HETATM   20  C16 UNL     1      26.628   0.172  53.503  1.00  0.00     0.047 A 
HETATM   21  C18 UNL     1      25.714  -0.715  54.033  1.00  0.00     0.017 A 
HETATM   22  C19 UNL     1      24.364  -0.481  53.882  1.00  0.00     0.008 A 
BRANCH  20  23
HETATM   23  C17 UNL     1      28.093  -0.039  53.638  1.00  0.00     0.417 C 
HETATM   24  F1  UNL     1      28.808   0.999  53.068  1.00  0.00    -0.166 F 
HETATM   25  F2  UNL     1      28.408  -0.151  54.984  1.00  0.00    -0.166 F 
HETATM   26  F3  UNL     1      28.523  -1.218  53.062  1.00  0.00    -0.166 F 
ENDBRANCH  20  23
ENDBRANCH  16  17
ENDBRANCH  15  16
ENDBRANCH  14  15
ENDBRANCH   1  14
TORSDOF 8
ENDMDL
MODEL 5
REMARK VINA RESULT:      -6.8      1.917      2.942
REMARK  8 active torsions:
REMARK  status: ('A' for Active; 'I' for Inactive)
REMARK    1  A    between atoms: N1_1  and  C1_2 
REMARK    2  A    between atoms: N2_9  and  C8_10 
REMARK    3  A    between atoms: C8_10  and  C9_11 
REMARK    4  A    between atoms: C9_11  and  C10_12 
REMARK    5  A    between atoms: C10_12  and  C11_13 
REMARK    6  A    between atoms: C11_13  and  C12_14 
REMARK    7  A    between atoms: C12_14  and  C13_15 
REMARK    8  A    between atoms: C16_18  and  C17_19 
ROOT
HETATM    1  C9  UNL     1      22.285   1.382  49.708  1.00  0.00     0.020 C 
ENDROOT
BRANCH   1   2
HETATM    2  C8  UNL     1      21.611   2.464  48.882  1.00  0.00     0.123 C 
BRANCH   2   3
HETATM    3  N2  UNL     1      22.553   3.568  48.812  1.00  0.00    -0.380 N 
HETATM    4  C4  UNL     1      23.879   3.745  49.273  1.00  0.00     0.011 A 
HETATM    5  C3  UNL     1      25.108   3.274  49.959  1.00  0.00     0.059 C 
HETATM    6  C5  UNL     1      23.844   4.976  48.757  1.00  0.00    -0.038 A 
HETATM    7  C2  UNL     1      26.265   4.007  49.306  1.00  0.00     0.041 C 
HETATM    8  C1  UNL     1      26.079   5.483  49.579  1.00  0.00     0.222 C 
HETATM    9  C6  UNL     1      24.923   5.983  48.781  1.00  0.00     0.073 C 
HETATM   10  C7  UNL     1      22.448   4.883  48.236  1.00  0.00     0.159 A 
BRANCH   8  11
HETATM   11  N1  UNL     1      27.333   6.116  49.197  1.00  0.00     0.083 N 
HETATM   12  H1  UNL     1      27.633   6.846  49.899  1.00  0.00     0.313 HD
HETATM   13  H2  UNL     1      28.111   5.425  49.124  1.00  0.00     0.313 HD
ENDBRANCH   8  11
ENDBRANCH   2   3
ENDBRANCH   1   2
BRANCH   1  14
HETATM   14  C10 UNL     1      21.413   1.055  50.874  1.00  0.00     0.002 C 
BRANCH  14  15
HETATM   15  C11 UNL     1      22.171   0.631  52.077  1.00  0.00     0.005 C 
BRANCH  15  16
HETATM   16  C12 UNL     1      22.853   1.787  52.721  1.00  0.00     0.038 C 
BRANCH  16  17
HETATM   17  C13 UNL     1      24.282   1.531  53.046  1.00  0.00    -0.058 A 
HETATM   18  C14 UNL     1      25.308   2.351  53.459  1.00  0.00     0.008 A 
HETATM   19  C15 UNL     1      26.562   1.829  53.684  1.00  0.00     0.017 A 
HETATM   20  C16 UNL     1      26.880   0.497  53.520  1.00  0.00     0.047 A 
HETATM   21  C18 UNL     1      25.863  -0.338  53.105  1.00  0.00     0.017 A 
HETATM   22  C19 UNL     1      24.604   0.175  52.878  1.00  0.00     0.008 A 
BRANCH  20  23
HETATM   23  C17 UNL     1      28.254  -0.008  53.775  1.00  0.00     0.417 C 
HETATM   24  F1  UNL     1      28.503  -0.133  55.130  1.00  0.00    -0.166 F 
HETATM   25  F2  UNL     1      28.404  -1.236  53.148  1.00  0.00    -0.166 F 
HETATM   26  F3  UNL     1      29.235   0.801  53.235  1.00  0.00    -0.166 F 
ENDBRANCH  20  23
ENDBRANCH  16  17
ENDBRANCH  15  16
ENDBRANCH  14  15
ENDBRANCH   1  14
TORSDOF 8
ENDMDL
MODEL 6
REMARK VINA RESULT:      -6.8      2.014      3.133
REMARK  8 active torsions:
REMARK  status: ('A' for Active; 'I' for Inactive)
REMARK    1  A    between atoms: N1_1  and  C1_2 
REMARK    2  A    between atoms: N2_9  and  C8_10 
REMARK    3  A    between atoms: C8_10  and  C9_11 
REMARK    4  A    between atoms: C9_11  and  C10_12 
REMARK    5  A    between atoms: C10_12  and  C11_13 
REMARK    6  A    between atoms: C11_13  and  C12_14 
REMARK    7  A    between atoms: C12_14  and  C13_15 
REMARK    8  A    between atoms: C16_18  and  C17_19 
ROOT
HETATM    1  C9  UNL     1      22.399   2.129  49.940  1.00  0.00     0.020 C 
ENDROOT
BRANCH   1   2
HETATM    2  C8  UNL     1      22.885   3.325  50.740  1.00  0.00     0.123 C 
BRANCH   2   3
HETATM    3  N2  UNL     1      24.215   3.634  50.242  1.00  0.00    -0.380 N 
HETATM    4  C4  UNL     1      24.817   4.813  49.744  1.00  0.00     0.011 A 
HETATM    5  C3  UNL     1      24.790   6.251  49.376  1.00  0.00     0.059 C 
HETATM    6  C5  UNL     1      25.941   4.113  49.576  1.00  0.00    -0.038 A 
HETATM    7  C2  UNL     1      26.204   6.765  49.567  1.00  0.00     0.041 C 
HETATM    8  C1  UNL     1      27.092   6.021  48.595  1.00  0.00     0.222 C 
HETATM    9  C6  UNL     1      27.227   4.605  49.045  1.00  0.00     0.073 C 
HETATM   10  C7  UNL     1      25.392   2.820  50.084  1.00  0.00     0.159 A 
BRANCH   8  11
HETATM   11  N1  UNL     1      28.365   6.728  48.600  1.00  0.00     0.083 N 
HETATM   12  H1  UNL     1      29.093   6.229  48.022  1.00  0.00     0.313 HD
HETATM   13  H2  UNL     1      28.274   7.692  48.210  1.00  0.00     0.313 HD
ENDBRANCH   8  11
ENDBRANCH   2   3
ENDBRANCH   1   2
BRANCH   1  14
HETATM   14  C10 UNL     1      22.177   0.985  50.872  1.00  0.00     0.002 C 
BRANCH  14  15
HETATM   15  C11 UNL     1      22.478   1.311  52.288  1.00  0.00     0.005 C 
BRANCH  15  16
HETATM   16  C12 UNL     1      23.079   0.146  52.994  1.00  0.00     0.038 C 
BRANCH  16  17
HETATM   17  C13 UNL     1      24.548   0.266  53.199  1.00  0.00    -0.058 A 
HETATM   18  C14 UNL     1      25.571  -0.655  53.186  1.00  0.00     0.008 A 
HETATM   19  C15 UNL     1      26.867  -0.252  53.420  1.00  0.00     0.017 A 
HETATM   20  C16 UNL     1      27.230   1.053  53.677  1.00  0.00     0.047 A 
HETATM   21  C18 UNL     1      26.216   1.989  53.694  1.00  0.00     0.017 A 
HETATM   22  C19 UNL     1      24.915   1.595  53.461  1.00  0.00     0.008 A 
BRANCH  20  23
HETATM   23  C17 UNL     1      28.646   1.428  53.925  1.00  0.00     0.417 C 
HETATM   24  F1  UNL     1      28.825   2.798  53.862  1.00  0.00    -0.166 F 
HETATM   25  F2  UNL     1      29.023   0.956  55.174  1.00  0.00    -0.166 F 
HETATM   26  F3  UNL     1      29.523   0.844  53.033  1.00  0.00    -0.166 F 
ENDBRANCH  20  23
ENDBRANCH  16  17
ENDBRANCH  15  16
ENDBRANCH  14  15
ENDBRANCH   1  14
TORSDOF 8
ENDMDL
MODEL 7
REMARK VINA RESULT:      -6.8      3.399      5.847
REMARK  8 active torsions:
REMARK  status: ('A' for Active; 'I' for Inactive)
REMARK    1  A    between atoms: N1_1  and  C1_2 
REMARK    2  A    between atoms: N2_9  and  C8_10 
REMARK    3  A    between atoms: C8_10  and  C9_11 
REMARK    4  A    between atoms: C9_11  and  C10_12 
REMARK    5  A    between atoms: C10_12  and  C11_13 
REMARK    6  A    between atoms: C11_13  and  C12_14 
REMARK    7  A    between atoms: C12_14  and  C13_15 
REMARK    8  A    between atoms: C16_18  and  C17_19 
ROOT
HETATM    1  C9  UNL     1      24.563   4.236  49.431  1.00  0.00     0.020 C 
ENDROOT
BRANCH   1   2
HETATM    2  C8  UNL     1      24.384   4.750  50.848  1.00  0.00     0.123 C 
BRANCH   2   3
HETATM    3  N2  UNL     1      24.507   3.593  51.719  1.00  0.00    -0.380 N 
HETATM    4  C4  UNL     1      25.329   2.443  51.695  1.00  0.00     0.011 A 
HETATM    5  C3  UNL     1      26.393   1.596  51.098  1.00  0.00     0.059 C 
HETATM    6  C5  UNL     1      24.725   2.045  52.817  1.00  0.00    -0.038 A 
HETATM    7  C2  UNL     1      27.040   0.852  52.251  1.00  0.00     0.041 C 
HETATM    8  C1  UNL     1      25.983  -0.039  52.865  1.00  0.00     0.222 C 
HETATM    9  C6  UNL     1      24.988   0.810  53.582  1.00  0.00     0.073 C 
HETATM   10  C7  UNL     1      23.813   3.223  52.924  1.00  0.00     0.159 A 
BRANCH   8  11
HETATM   11  N1  UNL     1      26.696  -0.937  53.763  1.00  0.00     0.083 N 
HETATM   12  H1  UNL     1      27.743  -0.832  53.673  1.00  0.00     0.313 HD
HETATM   13  H2  UNL     1      26.456  -0.756  54.762  1.00  0.00     0.313 HD
ENDBRANCH   8  11
ENDBRANCH   2   3
ENDBRANCH   1   2
BRANCH   1  14
HETATM   14  C10 UNL     1      23.221   4.117  48.789  1.00  0.00     0.002 C 
BRANCH  14  15
HETATM   15  C11 UNL     1      22.688   2.732  48.789  1.00  0.00     0.005 C 
BRANCH  15  16
HETATM   16  C12 UNL     1      21.282   2.695  49.278  1.00  0.00     0.038 C 
BRANCH  16  17
HETATM   17  C13 UNL     1      21.130   2.043  50.606  1.00  0.00    -0.058 A 
HETATM   18  C14 UNL     1      20.456   2.402  51.752  1.00  0.00     0.008 A 
HETATM   19  C15 UNL     1      20.496   1.588  52.862  1.00  0.00     0.017 A 
HETATM   20  C16 UNL     1      21.186   0.395  52.914  1.00  0.00     0.047 A 
HETATM   21  C18 UNL     1      21.867   0.020  51.774  1.00  0.00     0.017 A 
HETATM   22  C19 UNL     1      21.833   0.829  50.658  1.00  0.00     0.008 A 
BRANCH  20  23
HETATM   23  C17 UNL     1      21.194  -0.442  54.142  1.00  0.00     0.417 C 
HETATM   24  F1  UNL     1      22.391  -1.120  54.283  1.00  0.00    -0.166 F 
HETATM   25  F2  UNL     1      20.976   0.374  55.242  1.00  0.00    -0.166 F 
HETATM   26  F3  UNL     1      20.173  -1.371  54.168  1.00  0.00    -0.166 F 
ENDBRANCH  20  23
ENDBRANCH  16  17
ENDBRANCH  15  16
ENDBRANCH  14  15
ENDBRANCH   1  14
TORSDOF 8
ENDMDL
MODEL 8
REMARK VINA RESULT:      -6.7      3.969      6.523
REMARK  8 active torsions:
REMARK  status: ('A' for Active; 'I' for Inactive)
REMARK    1  A    between atoms: N1_1  and  C1_2 
REMARK    2  A    between atoms: N2_9  and  C8_10 
REMARK    3  A    between atoms: C8_10  and  C9_11 
REMARK    4  A    between atoms: C9_11  and  C10_12 
REMARK    5  A    between atoms: C10_12  and  C11_13 
REMARK    6  A    between atoms: C11_13  and  C12_14 
REMARK    7  A    between atoms: C12_14  and  C13_15 
REMARK    8  A    between atoms: C16_18  and  C17_19 
ROOT
HETATM    1  C9  UNL     1      22.669   1.734  50.425  1.00  0.00     0.020 C 
ENDROOT
BRANCH   1   2
HETATM    2  C8  UNL     1      22.558   1.872  51.933  1.00  0.00     0.123 C 
BRANCH   2   3
HETATM    3  N2  UNL     1      23.547   0.969  52.497  1.00  0.00    -0.380 N 
HETATM    4  C4  UNL     1      24.946   0.835  52.335  1.00  0.00     0.011 A 
HETATM    5  C3  UNL     1      26.247   1.236  51.743  1.00  0.00     0.059 C 
HETATM    6  C5  UNL     1      24.902  -0.181  53.200  1.00  0.00    -0.038 A 
HETATM    7  C2  UNL     1      27.306   0.885  52.770  1.00  0.00     0.041 C 
HETATM    8  C1  UNL     1      27.285  -0.616  52.950  1.00  0.00     0.222 C 
HETATM    9  C6  UNL     1      26.036  -1.002  53.668  1.00  0.00     0.073 C 
HETATM   10  C7  UNL     1      23.428  -0.119  53.433  1.00  0.00     0.159 A 
BRANCH   8  11
HETATM   11  N1  UNL     1      28.484  -0.941  53.709  1.00  0.00     0.083 N 
HETATM   12  H1  UNL     1      28.478  -1.944  54.041  1.00  0.00     0.313 HD
HETATM   13  H2  UNL     1      29.349  -0.814  53.139  1.00  0.00     0.313 HD
ENDBRANCH   8  11
ENDBRANCH   2   3
ENDBRANCH   1   2
BRANCH   1  14
HETATM   14  C10 UNL     1      22.667   3.097  49.816  1.00  0.00     0.002 C 
BRANCH  14  15
HETATM   15  C11 UNL     1      23.976   3.487  49.238  1.00  0.00     0.005 C 
BRANCH  15  16
HETATM   16  C12 UNL     1      24.777   4.285  50.207  1.00  0.00     0.038 C 
BRANCH  16  17
HETATM   17  C13 UNL     1      25.836   5.112  49.568  1.00  0.00    -0.058 A 
HETATM   18  C14 UNL     1      25.934   6.459  49.298  1.00  0.00     0.008 A 
HETATM   19  C15 UNL     1      27.056   6.959  48.675  1.00  0.00     0.017 A 
HETATM   20  C16 UNL     1      28.128   6.183  48.287  1.00  0.00     0.047 A 
HETATM   21  C18 UNL     1      28.045   4.831  48.549  1.00  0.00     0.017 A 
HETATM   22  C19 UNL     1      26.926   4.321  49.172  1.00  0.00     0.008 A 
BRANCH  20  23
HETATM   23  C17 UNL     1      29.312   6.779  47.615  1.00  0.00     0.417 C 
HETATM   24  F1  UNL     1      28.967   7.370  46.413  1.00  0.00    -0.166 F 
HETATM   25  F2  UNL     1      29.882   7.719  48.461  1.00  0.00    -0.166 F 
HETATM   26  F3  UNL     1      30.311   5.859  47.366  1.00  0.00    -0.166 F 
ENDBRANCH  20  23
ENDBRANCH  16  17
ENDBRANCH  15  16
ENDBRANCH  14  15
ENDBRANCH   1  14
TORSDOF 8
ENDMDL
MODEL 9
REMARK VINA RESULT:      -6.6      4.646      6.485
REMARK  8 active torsions:
REMARK  status: ('A' for Active; 'I' for Inactive)
REMARK    1  A    between atoms: N1_1  and  C1_2 
REMARK    2  A    between atoms: N2_9  and  C8_10 
REMARK    3  A    between atoms: C8_10  and  C9_11 
REMARK    4  A    between atoms: C9_11  and  C10_12 
REMARK    5  A    between atoms: C10_12  and  C11_13 
REMARK    6  A    between atoms: C11_13  and  C12_14 
REMARK    7  A    between atoms: C12_14  and  C13_15 
REMARK    8  A    between atoms: C16_18  and  C17_19 
ROOT
HETATM    1  C9  UNL     1      26.886   4.289  49.208  1.00  0.00     0.020 C 
ENDROOT
BRANCH   1   2
HETATM    2  C8  UNL     1      25.702   5.218  49.007  1.00  0.00     0.123 C 
BRANCH   2   3
HETATM    3  N2  UNL     1      26.154   6.542  49.399  1.00  0.00    -0.380 N 
HETATM    4  C4  UNL     1      27.251   7.348  49.015  1.00  0.00     0.011 A 
HETATM    5  C3  UNL     1      28.482   7.608  48.227  1.00  0.00     0.059 C 
HETATM    6  C5  UNL     1      26.806   8.277  49.865  1.00  0.00    -0.038 A 
HETATM    7  C2  UNL     1      28.551   9.111  48.030  1.00  0.00     0.041 C 
HETATM    8  C1  UNL     1      28.696   9.740  49.398  1.00  0.00     0.222 C 
HETATM    9  C6  UNL     1      27.409   9.597  50.138  1.00  0.00     0.073 C 
HETATM   10  C7  UNL     1      25.622   7.499  50.335  1.00  0.00     0.159 A 
BRANCH   8  11
HETATM   11  N1  UNL     1      29.045  11.133  49.157  1.00  0.00     0.083 N 
HETATM   12  H1  UNL     1      28.563  11.515  48.299  1.00  0.00     0.313 HD
HETATM   13  H2  UNL     1      28.773  11.745  49.957  1.00  0.00     0.313 HD
ENDBRANCH   8  11
ENDBRANCH   2   3
ENDBRANCH   1   2
BRANCH   1  14
HETATM   14  C10 UNL     1      26.377   2.922  49.524  1.00  0.00     0.002 C 
BRANCH  14  15
HETATM   15  C11 UNL     1      25.994   2.750  50.947  1.00  0.00     0.005 C 
BRANCH  15  16
HETATM   16  C12 UNL     1      26.618   1.530  51.531  1.00  0.00     0.038 C 
BRANCH  16  17
HETATM   17  C13 UNL     1      25.712   0.769  52.431  1.00  0.00    -0.058 A 
HETATM   18  C14 UNL     1      25.943  -0.153  53.428  1.00  0.00     0.008 A 
HETATM   19  C15 UNL     1      24.885  -0.714  54.109  1.00  0.00     0.017 A 
HETATM   20  C16 UNL     1      23.564  -0.410  53.858  1.00  0.00     0.047 A 
HETATM   21  C18 UNL     1      23.315   0.511  52.862  1.00  0.00     0.017 A 
HETATM   22  C19 UNL     1      24.367   1.078  52.175  1.00  0.00     0.008 A 
BRANCH  20  23
HETATM   23  C17 UNL     1      22.464  -1.051  54.625  1.00  0.00     0.417 C 
HETATM   24  F1  UNL     1      22.951  -1.791  55.686  1.00  0.00    -0.166 F 
HETATM   25  F2  UNL     1      21.606  -0.064  55.088  1.00  0.00    -0.166 F 
HETATM   26  F3  UNL     1      21.679  -1.882  53.851  1.00  0.00    -0.166 F 
ENDBRANCH  20  23
ENDBRANCH  16  17
ENDBRANCH  15  16
ENDBRANCH  14  15
ENDBRANCH   1  14
TORSDOF 8
ENDMDL
