MODEL 1
REMARK VINA RESULT:      -8.4      0.000      0.000
REMARK  4 active torsions:
REMARK  status: ('A' for Active; 'I' for Inactive)
REMARK    1  A    between atoms: C2_2  and  C3_3 
REMARK    2  A    between atoms: N1_5  and  C5_6 
REMARK    3  A    between atoms: C9_10  and  C10_11 
REMARK    4  A    between atoms: C10_11  and  N2_14 
ROOT
HETATM    1  C3  UNL     1      26.631   1.859  51.876  1.00  0.00     0.100 C 
HETATM    2  C4  UNL     1      25.582   2.052  52.906  1.00  0.00     0.150 C 
HETATM    3  N1  UNL     1      25.344   0.913  53.738  1.00  0.00    -0.361 N 
HETATM    4  C12 UNL     1      26.228   0.253  54.707  1.00  0.00     0.276 C 
HETATM    5  N3  UNL     1      27.049  -0.666  53.979  1.00  0.00    -0.241 NA
HETATM    6  C13 UNL     1      28.296  -0.647  53.779  1.00  0.00     0.221 C 
HETATM    7 CL1  UNL     1      29.971  -0.884  53.341  1.00  0.00    -0.041 Cl
HETATM    8  N4  UNL     1      28.861   0.541  54.369  1.00  0.00    -0.214 NA
HETATM    9  C14 UNL     1      28.602   1.666  53.734  1.00  0.00     0.206 C 
HETATM   10  N5  UNL     1      27.911   2.087  52.602  1.00  0.00    -0.378 N 
HETATM   11  H17 UNL     1      28.662   2.769  52.269  1.00  0.00     0.160 HD
ENDROOT
BRANCH   3  12
HETATM   12  C5  UNL     1      24.053   0.259  53.668  1.00  0.00     0.032 A 
HETATM   13  C6  UNL     1      23.695  -0.765  54.557  1.00  0.00     0.029 A 
HETATM   14  C7  UNL     1      22.497  -1.427  54.575  1.00  0.00     0.003 A 
HETATM   15  C8  UNL     1      21.553  -1.063  53.643  1.00  0.00     0.015 A 
HETATM   16  C9  UNL     1      21.810  -0.056  52.717  1.00  0.00     0.034 A 
HETATM   17  C11 UNL     1      23.036   0.542  52.782  1.00  0.00     0.044 A 
BRANCH  16  18
HETATM   18  C10 UNL     1      20.805   0.340  51.723  1.00  0.00     0.354 C 
HETATM   19  F1  UNL     1      19.613  -0.354  51.963  1.00  0.00    -0.181 F 
HETATM   20  F2  UNL     1      21.252   0.008  50.477  1.00  0.00    -0.181 F 
BRANCH  18  21
HETATM   21  N2  UNL     1      20.532   1.743  51.817  1.00  0.00    -0.091 NA
HETATM   22  F3  UNL     1      20.178   2.044  53.084  1.00  0.00    -0.130 F 
HETATM   23  H12 UNL     1      19.867   2.092  51.119  1.00  0.00     0.166 HD
ENDBRANCH  18  21
ENDBRANCH  16  18
ENDBRANCH   3  12
BRANCH   1  24
HETATM   24  C2  UNL     1      26.710   2.942  50.819  1.00  0.00     0.022 C 
HETATM   25  C1  UNL     1      25.414   3.362  50.259  1.00  0.00     0.007 C 
ENDBRANCH   1  24
TORSDOF 4
ENDMDL
MODEL 2
REMARK VINA RESULT:      -8.3      1.818      2.393
REMARK  4 active torsions:
REMARK  status: ('A' for Active; 'I' for Inactive)
REMARK    1  A    between atoms: C2_2  and  C3_3 
REMARK    2  A    between atoms: N1_5  and  C5_6 
REMARK    3  A    between atoms: C9_10  and  C10_11 
REMARK    4  A    between atoms: C10_11  and  N2_14 
ROOT
HETATM    1  C3  UNL     1      26.463   2.513  51.115  1.00  0.00     0.100 C 
HETATM    2  C4  UNL     1      25.248   2.824  51.906  1.00  0.00     0.150 C 
HETATM    3  N1  UNL     1      24.795   1.761  52.749  1.00  0.00    -0.361 N 
HETATM    4  C12 UNL     1      25.440   1.141  53.913  1.00  0.00     0.276 C 
HETATM    5  N3  UNL     1      26.334   0.139  53.422  1.00  0.00    -0.241 NA
HETATM    6  C13 UNL     1      27.596   0.093  53.468  1.00  0.00     0.221 C 
HETATM    7 CL1  UNL     1      29.309  -0.243  53.382  1.00  0.00    -0.041 Cl
HETATM    8  N4  UNL     1      28.100   1.298  54.077  1.00  0.00    -0.214 NA
HETATM    9  C14 UNL     1      28.028   2.382  53.331  1.00  0.00     0.206 C 
HETATM   10  N5  UNL     1      27.591   2.744  52.061  1.00  0.00    -0.378 N 
HETATM   11  H17 UNL     1      28.427   3.369  51.836  1.00  0.00     0.160 HD
ENDROOT
BRANCH   3  12
HETATM   12  C5  UNL     1      23.508   1.156  52.473  1.00  0.00     0.032 A 
HETATM   13  C6  UNL     1      22.864   1.320  51.237  1.00  0.00     0.029 A 
HETATM   14  C7  UNL     1      21.659   0.777  50.883  1.00  0.00     0.003 A 
HETATM   15  C8  UNL     1      21.013  -0.003  51.814  1.00  0.00     0.015 A 
HETATM   16  C9  UNL     1      21.568  -0.229  53.070  1.00  0.00     0.034 A 
HETATM   17  C11 UNL     1      22.774   0.358  53.326  1.00  0.00     0.044 A 
BRANCH  16  18
HETATM   18  C10 UNL     1      20.885  -1.064  54.066  1.00  0.00     0.354 C 
HETATM   19  F1  UNL     1      21.172  -0.587  55.351  1.00  0.00    -0.181 F 
HETATM   20  F2  UNL     1      21.349  -2.345  53.970  1.00  0.00    -0.181 F 
BRANCH  18  21
HETATM   21  N2  UNL     1      19.467  -1.013  53.876  1.00  0.00    -0.091 NA
HETATM   22  F3  UNL     1      18.972  -2.268  53.877  1.00  0.00    -0.130 F 
HETATM   23  H12 UNL     1      19.168  -0.463  53.065  1.00  0.00     0.166 HD
ENDBRANCH  18  21
ENDBRANCH  16  18
ENDBRANCH   3  12
BRANCH   1  24
HETATM   24  C2  UNL     1      26.801   3.510  50.025  1.00  0.00     0.022 C 
HETATM   25  C1  UNL     1      25.648   4.232  49.462  1.00  0.00     0.007 C 
ENDBRANCH   1  24
TORSDOF 4
ENDMDL
MODEL 3
REMARK VINA RESULT:      -8.2      4.659      6.530
REMARK  4 active torsions:
REMARK  status: ('A' for Active; 'I' for Inactive)
REMARK    1  A    between atoms: C2_2  and  C3_3 
REMARK    2  A    between atoms: N1_5  and  C5_6 
REMARK    3  A    between atoms: C9_10  and  C10_11 
REMARK    4  A    between atoms: C10_11  and  N2_14 
ROOT
HETATM    1  C3  UNL     1      26.546   4.624  49.541  1.00  0.00     0.100 C 
HETATM    2  C4  UNL     1      25.986   3.251  49.565  1.00  0.00     0.150 C 
HETATM    3  N1  UNL     1      25.041   3.009  50.612  1.00  0.00    -0.361 N 
HETATM    4  C12 UNL     1      23.714   3.594  50.837  1.00  0.00     0.276 C 
HETATM    5  N3  UNL     1      23.905   4.830  51.531  1.00  0.00    -0.241 NA
HETATM    6  C13 UNL     1      23.687   6.013  51.145  1.00  0.00     0.221 C 
HETATM    7 CL1  UNL     1      23.488   7.731  50.894  1.00  0.00    -0.041 Cl
HETATM    8  N4  UNL     1      23.231   5.997  49.777  1.00  0.00    -0.214 NA
HETATM    9  C14 UNL     1      24.154   5.725  48.877  1.00  0.00     0.206 C 
HETATM   10  N5  UNL     1      25.513   5.434  48.835  1.00  0.00    -0.378 N 
HETATM   11  H17 UNL     1      25.729   6.058  47.997  1.00  0.00     0.160 HD
ENDROOT
BRANCH   3  12
HETATM   12  C5  UNL     1      25.378   2.047  51.642  1.00  0.00     0.032 A 
HETATM   13  C6  UNL     1      24.402   1.246  52.252  1.00  0.00     0.029 A 
HETATM   14  C7  UNL     1      24.627   0.305  53.220  1.00  0.00     0.003 A 
HETATM   15  C8  UNL     1      25.925   0.120  53.639  1.00  0.00     0.015 A 
HETATM   16  C9  UNL     1      26.967   0.865  53.095  1.00  0.00     0.034 A 
HETATM   17  C11 UNL     1      26.637   1.778  52.135  1.00  0.00     0.044 A 
BRANCH  16  18
HETATM   18  C10 UNL     1      28.354   0.668  53.534  1.00  0.00     0.354 C 
HETATM   19  F1  UNL     1      28.880  -0.477  52.924  1.00  0.00    -0.181 F 
HETATM   20  F2  UNL     1      28.374   0.482  54.887  1.00  0.00    -0.181 F 
BRANCH  18  21
HETATM   21  N2  UNL     1      29.164   1.787  53.156  1.00  0.00    -0.091 NA
HETATM   22  F3  UNL     1      29.045   2.758  54.085  1.00  0.00    -0.130 F 
HETATM   23  H12 UNL     1      29.003   2.122  52.200  1.00  0.00     0.166 HD
ENDBRANCH  18  21
ENDBRANCH  16  18
ENDBRANCH   3  12
BRANCH   1  24
HETATM   24  C2  UNL     1      27.735   4.824  48.625  1.00  0.00     0.022 C 
HETATM   25  C1  UNL     1      28.034   6.227  48.289  1.00  0.00     0.007 C 
ENDBRANCH   1  24
TORSDOF 4
ENDMDL
MODEL 4
REMARK VINA RESULT:      -7.9      4.393      6.130
REMARK  4 active torsions:
REMARK  status: ('A' for Active; 'I' for Inactive)
REMARK    1  A    between atoms: C2_2  and  C3_3 
REMARK    2  A    between atoms: N1_5  and  C5_6 
REMARK    3  A    between atoms: C9_10  and  C10_11 
REMARK    4  A    between atoms: C10_11  and  N2_14 
ROOT
HETATM    1  C3  UNL     1      26.227   4.428  49.658  1.00  0.00     0.100 C 
HETATM    2  C4  UNL     1      25.436   3.178  49.545  1.00  0.00     0.150 C 
HETATM    3  N1  UNL     1      24.369   3.059  50.491  1.00  0.00    -0.361 N 
HETATM    4  C12 UNL     1      23.150   3.862  50.642  1.00  0.00     0.276 C 
HETATM    5  N3  UNL     1      23.488   5.008  51.428  1.00  0.00    -0.241 NA
HETATM    6  C13 UNL     1      23.517   6.228  51.103  1.00  0.00     0.221 C 
HETATM    7 CL1  UNL     1      23.646   7.964  50.949  1.00  0.00    -0.041 Cl
HETATM    8  N4  UNL     1      23.196   6.362  49.704  1.00  0.00    -0.214 NA
HETATM    9  C14 UNL     1      24.138   5.973  48.868  1.00  0.00     0.206 C 
HETATM   10  N5  UNL     1      25.423   5.444  48.921  1.00  0.00    -0.378 N 
HETATM   11  H17 UNL     1      25.823   6.060  48.147  1.00  0.00     0.160 HD
ENDROOT
BRANCH   3  12
HETATM   12  C5  UNL     1      24.433   2.003  51.481  1.00  0.00     0.032 A 
HETATM   13  C6  UNL     1      23.296   1.575  52.180  1.00  0.00     0.029 A 
HETATM   14  C7  UNL     1      23.258   0.580  53.118  1.00  0.00     0.003 A 
HETATM   15  C8  UNL     1      24.439  -0.066  53.410  1.00  0.00     0.015 A 
HETATM   16  C9  UNL     1      25.624   0.284  52.770  1.00  0.00     0.034 A 
HETATM   17  C11 UNL     1      25.554   1.290  51.849  1.00  0.00     0.044 A 
BRANCH  16  18
HETATM   18  C10 UNL     1      26.885  -0.405  53.073  1.00  0.00     0.354 C 
HETATM   19  F1  UNL     1      27.962   0.422  52.730  1.00  0.00    -0.181 F 
HETATM   20  F2  UNL     1      26.963  -1.545  52.326  1.00  0.00    -0.181 F 
BRANCH  18  21
HETATM   21  N2  UNL     1      26.974  -0.697  54.472  1.00  0.00    -0.091 NA
HETATM   22  F3  UNL     1      27.939   0.065  55.026  1.00  0.00    -0.130 F 
HETATM   23  H12 UNL     1      27.073  -1.694  54.690  1.00  0.00     0.166 HD
ENDBRANCH  18  21
ENDBRANCH  16  18
ENDBRANCH   3  12
BRANCH   1  24
HETATM   24  C2  UNL     1      27.514   4.455  48.859  1.00  0.00     0.022 C 
HETATM   25  C1  UNL     1      27.913   5.784  48.366  1.00  0.00     0.007 C 
ENDBRANCH   1  24
TORSDOF 4
ENDMDL
MODEL 5
REMARK VINA RESULT:      -7.9      3.162      4.631
REMARK  4 active torsions:
REMARK  status: ('A' for Active; 'I' for Inactive)
REMARK    1  A    between atoms: C2_2  and  C3_3 
REMARK    2  A    between atoms: N1_5  and  C5_6 
REMARK    3  A    between atoms: C9_10  and  C10_11 
REMARK    4  A    between atoms: C10_11  and  N2_14 
ROOT
HETATM    1  C3  UNL     1      26.023   2.466  52.208  1.00  0.00     0.100 C 
HETATM    2  C4  UNL     1      25.265   1.423  51.476  1.00  0.00     0.150 C 
HETATM    3  N1  UNL     1      24.007   1.856  50.951  1.00  0.00    -0.361 N 
HETATM    4  C12 UNL     1      23.712   2.851  49.914  1.00  0.00     0.276 C 
HETATM    5  N3  UNL     1      23.693   4.134  50.546  1.00  0.00    -0.241 NA
HETATM    6  C13 UNL     1      24.476   5.115  50.401  1.00  0.00     0.221 C 
HETATM    7 CL1  UNL     1      25.378   6.612  50.412  1.00  0.00    -0.041 Cl
HETATM    8  N4  UNL     1      25.530   4.759  49.483  1.00  0.00    -0.214 NA
HETATM    9  C14 UNL     1      26.435   3.927  49.956  1.00  0.00     0.206 C 
HETATM   10  N5  UNL     1      26.707   3.247  51.139  1.00  0.00    -0.378 N 
HETATM   11  H17 UNL     1      27.756   3.444  51.135  1.00  0.00     0.160 HD
ENDROOT
BRANCH   3  12
HETATM   12  C5  UNL     1      22.794   1.262  51.475  1.00  0.00     0.032 A 
HETATM   13  C6  UNL     1      21.647   1.102  50.683  1.00  0.00     0.029 A 
HETATM   14  C7  UNL     1      20.466   0.541  51.086  1.00  0.00     0.003 A 
HETATM   15  C8  UNL     1      20.386   0.089  52.384  1.00  0.00     0.015 A 
HETATM   16  C9  UNL     1      21.469   0.201  53.250  1.00  0.00     0.034 A 
HETATM   17  C11 UNL     1      22.602   0.776  52.751  1.00  0.00     0.044 A 
BRANCH  16  18
HETATM   18  C10 UNL     1      21.390  -0.283  54.635  1.00  0.00     0.354 C 
HETATM   19  F1  UNL     1      20.646   0.620  55.404  1.00  0.00    -0.181 F 
HETATM   20  F2  UNL     1      22.650  -0.356  55.156  1.00  0.00    -0.181 F 
BRANCH  18  21
HETATM   21  N2  UNL     1      20.736  -1.557  54.685  1.00  0.00    -0.091 NA
HETATM   22  F3  UNL     1      21.551  -2.497  54.163  1.00  0.00    -0.130 F 
HETATM   23  H12 UNL     1      19.797  -1.566  54.275  1.00  0.00     0.166 HD
ENDBRANCH  18  21
ENDBRANCH  16  18
ENDBRANCH   3  12
BRANCH   1  24
HETATM   24  C2  UNL     1      27.216   1.968  52.998  1.00  0.00     0.022 C 
HETATM   25  C1  UNL     1      27.446   0.515  52.929  1.00  0.00     0.007 C 
ENDBRANCH   1  24
TORSDOF 4
ENDMDL
MODEL 6
REMARK VINA RESULT:      -7.5      3.857      5.553
REMARK  4 active torsions:
REMARK  status: ('A' for Active; 'I' for Inactive)
REMARK    1  A    between atoms: C2_2  and  C3_3 
REMARK    2  A    between atoms: N1_5  and  C5_6 
REMARK    3  A    between atoms: C9_10  and  C10_11 
REMARK    4  A    between atoms: C10_11  and  N2_14 
ROOT
HETATM    1  C3  UNL     1      25.068   4.347  49.902  1.00  0.00     0.100 C 
HETATM    2  C4  UNL     1      24.504   2.980  49.781  1.00  0.00     0.150 C 
HETATM    3  N1  UNL     1      23.388   2.716  50.636  1.00  0.00    -0.361 N 
HETATM    4  C12 UNL     1      22.046   3.310  50.643  1.00  0.00     0.276 C 
HETATM    5  N3  UNL     1      22.120   4.521  51.402  1.00  0.00    -0.241 NA
HETATM    6  C13 UNL     1      21.980   5.718  51.023  1.00  0.00     0.221 C 
HETATM    7 CL1  UNL     1      21.839   7.445  50.799  1.00  0.00    -0.041 Cl
HETATM    8  N4  UNL     1      21.772   5.751  49.597  1.00  0.00    -0.214 NA
HETATM    9  C14 UNL     1      22.838   5.497  48.864  1.00  0.00     0.206 C 
HETATM   10  N5  UNL     1      24.182   5.191  49.052  1.00  0.00    -0.378 N 
HETATM   11  H17 UNL     1      24.546   5.839  48.287  1.00  0.00     0.160 HD
ENDROOT
BRANCH   3  12
HETATM   12  C5  UNL     1      23.532   1.718  51.676  1.00  0.00     0.032 A 
HETATM   13  C6  UNL     1      24.787   1.217  52.051  1.00  0.00     0.029 A 
HETATM   14  C7  UNL     1      25.020   0.288  53.028  1.00  0.00     0.003 A 
HETATM   15  C8  UNL     1      23.931  -0.205  53.711  1.00  0.00     0.015 A 
HETATM   16  C9  UNL     1      22.643   0.229  53.416  1.00  0.00     0.034 A 
HETATM   17  C11 UNL     1      22.517   1.158  52.423  1.00  0.00     0.044 A 
BRANCH  16  18
HETATM   18  C10 UNL     1      21.478  -0.290  54.144  1.00  0.00     0.354 C 
HETATM   19  F1  UNL     1      20.636  -0.968  53.255  1.00  0.00    -0.181 F 
HETATM   20  F2  UNL     1      20.783   0.756  54.681  1.00  0.00    -0.181 F 
BRANCH  18  21
HETATM   21  N2  UNL     1      21.890  -1.211  55.160  1.00  0.00    -0.091 NA
HETATM   22  F3  UNL     1      21.746  -2.472  54.703  1.00  0.00    -0.130 F 
HETATM   23  H12 UNL     1      21.449  -1.060  56.072  1.00  0.00     0.166 HD
ENDBRANCH  18  21
ENDBRANCH  16  18
ENDBRANCH   3  12
BRANCH   1  24
HETATM   24  C2  UNL     1      26.402   4.562  49.216  1.00  0.00     0.022 C 
HETATM   25  C1  UNL     1      26.660   5.943  48.775  1.00  0.00     0.007 C 
ENDBRANCH   1  24
TORSDOF 4
ENDMDL
MODEL 7
REMARK VINA RESULT:      -7.4      9.129     11.654
REMARK  4 active torsions:
REMARK  status: ('A' for Active; 'I' for Inactive)
REMARK    1  A    between atoms: C2_2  and  C3_3 
REMARK    2  A    between atoms: N1_5  and  C5_6 
REMARK    3  A    between atoms: C9_10  and  C10_11 
REMARK    4  A    between atoms: C10_11  and  N2_14 
ROOT
HETATM    1  C3  UNL     1      29.496   7.048  48.163  1.00  0.00     0.100 C 
HETATM    2  C4  UNL     1      30.405   6.397  49.138  1.00  0.00     0.150 C 
HETATM    3  N1  UNL     1      31.769   6.820  49.059  1.00  0.00    -0.361 N 
HETATM    4  C12 UNL     1      32.364   8.135  49.325  1.00  0.00     0.276 C 
HETATM    5  N3  UNL     1      32.234   8.912  48.131  1.00  0.00    -0.241 NA
HETATM    6  C13 UNL     1      31.545   9.949  47.915  1.00  0.00     0.221 C 
HETATM    7 CL1  UNL     1      30.710  11.368  47.329  1.00  0.00    -0.041 Cl
HETATM    8  N4  UNL     1      30.782  10.274  49.095  1.00  0.00    -0.214 NA
HETATM    9  C14 UNL     1      29.762   9.479  49.345  1.00  0.00     0.206 C 
HETATM   10  N5  UNL     1      29.156   8.356  48.790  1.00  0.00    -0.378 N 
HETATM   11  H17 UNL     1      28.154   8.698  48.927  1.00  0.00     0.160 HD
ENDROOT
BRANCH   3  12
HETATM   12  C5  UNL     1      32.774   5.855  48.663  1.00  0.00     0.032 A 
HETATM   13  C6  UNL     1      34.125   6.013  49.003  1.00  0.00     0.029 A 
HETATM   14  C7  UNL     1      35.138   5.149  48.687  1.00  0.00     0.003 A 
HETATM   15  C8  UNL     1      34.812   4.019  47.971  1.00  0.00     0.015 A 
HETATM   16  C9  UNL     1      33.499   3.769  47.586  1.00  0.00     0.034 A 
HETATM   17  C11 UNL     1      32.562   4.693  47.951  1.00  0.00     0.044 A 
BRANCH  16  18
HETATM   18  C10 UNL     1      33.144   2.563  46.827  1.00  0.00     0.354 C 
HETATM   19  F1  UNL     1      32.958   1.493  47.710  1.00  0.00    -0.181 F 
HETATM   20  F2  UNL     1      34.169   2.249  45.981  1.00  0.00    -0.181 F 
BRANCH  18  21
HETATM   21  N2  UNL     1      31.924   2.765  46.105  1.00  0.00    -0.091 NA
HETATM   22  F3  UNL     1      31.046   1.795  46.434  1.00  0.00    -0.130 F 
HETATM   23  H12 UNL     1      32.044   2.873  45.093  1.00  0.00     0.166 HD
ENDBRANCH  18  21
ENDBRANCH  16  18
ENDBRANCH   3  12
BRANCH   1  24
HETATM   24  C2  UNL     1      28.119   6.427  48.044  1.00  0.00     0.022 C 
HETATM   25  C1  UNL     1      28.016   5.042  48.534  1.00  0.00     0.007 C 
ENDBRANCH   1  24
TORSDOF 4
ENDMDL
MODEL 8
REMARK VINA RESULT:      -7.3      4.205      6.194
REMARK  4 active torsions:
REMARK  status: ('A' for Active; 'I' for Inactive)
REMARK    1  A    between atoms: C2_2  and  C3_3 
REMARK    2  A    between atoms: N1_5  and  C5_6 
REMARK    3  A    between atoms: C9_10  and  C10_11 
REMARK    4  A    between atoms: C10_11  and  N2_14 
ROOT
HETATM    1  C3  UNL     1      22.597   2.770  49.151  1.00  0.00     0.100 C 
HETATM    2  C4  UNL     1      21.951   1.899  50.162  1.00  0.00     0.150 C 
HETATM    3  N1  UNL     1      22.264   2.224  51.519  1.00  0.00    -0.361 N 
HETATM    4  C12 UNL     1      21.947   3.428  52.297  1.00  0.00     0.276 C 
HETATM    5  N3  UNL     1      22.957   4.399  52.012  1.00  0.00    -0.241 NA
HETATM    6  C13 UNL     1      22.864   5.507  51.412  1.00  0.00     0.221 C 
HETATM    7 CL1  UNL     1      23.041   7.063  50.636  1.00  0.00    -0.041 Cl
HETATM    8  N4  UNL     1      21.512   5.690  50.946  1.00  0.00    -0.214 NA
HETATM    9  C14 UNL     1      21.162   4.944  49.918  1.00  0.00     0.206 C 
HETATM   10  N5  UNL     1      21.728   3.978  49.091  1.00  0.00    -0.378 N 
HETATM   11  H17 UNL     1      21.326   4.369  48.183  1.00  0.00     0.160 HD
ENDROOT
BRANCH   3  12
HETATM   12  C5  UNL     1      23.006   1.263  52.310  1.00  0.00     0.032 A 
HETATM   13  C6  UNL     1      22.374   0.427  53.241  1.00  0.00     0.029 A 
HETATM   14  C7  UNL     1      22.988  -0.517  54.019  1.00  0.00     0.003 A 
HETATM   15  C8  UNL     1      24.350  -0.666  53.882  1.00  0.00     0.015 A 
HETATM   16  C9  UNL     1      25.070   0.115  52.985  1.00  0.00     0.034 A 
HETATM   17  C11 UNL     1      24.364   1.028  52.255  1.00  0.00     0.044 A 
BRANCH  16  18
HETATM   18  C10 UNL     1      26.522  -0.043  52.831  1.00  0.00     0.354 C 
HETATM   19  F1  UNL     1      27.123   1.218  52.745  1.00  0.00    -0.181 F 
HETATM   20  F2  UNL     1      26.779  -0.722  51.675  1.00  0.00    -0.181 F 
BRANCH  18  21
HETATM   21  N2  UNL     1      27.075  -0.725  53.963  1.00  0.00    -0.091 NA
HETATM   22  F3  UNL     1      27.429   0.180  54.899  1.00  0.00    -0.130 F 
HETATM   23  H12 UNL     1      27.827  -1.383  53.735  1.00  0.00     0.166 HD
ENDBRANCH  18  21
ENDBRANCH  16  18
ENDBRANCH   3  12
BRANCH   1  24
HETATM   24  C2  UNL     1      22.501   2.284  47.719  1.00  0.00     0.022 C 
HETATM   25  C1  UNL     1      21.993   3.276  46.757  1.00  0.00     0.007 C 
ENDBRANCH   1  24
TORSDOF 4
ENDMDL
MODEL 9
REMARK VINA RESULT:      -7.3      3.831      6.634
REMARK  4 active torsions:
REMARK  status: ('A' for Active; 'I' for Inactive)
REMARK    1  A    between atoms: C2_2  and  C3_3 
REMARK    2  A    between atoms: N1_5  and  C5_6 
REMARK    3  A    between atoms: C9_10  and  C10_11 
REMARK    4  A    between atoms: C10_11  and  N2_14 
ROOT
HETATM    1  C3  UNL     1      19.709   0.321  51.536  1.00  0.00     0.100 C 
HETATM    2  C4  UNL     1      20.330   0.844  52.777  1.00  0.00     0.150 C 
HETATM    3  N1  UNL     1      21.733   1.107  52.679  1.00  0.00    -0.361 N 
HETATM    4  C12 UNL     1      22.452   2.090  51.860  1.00  0.00     0.276 C 
HETATM    5  N3  UNL     1      22.646   1.509  50.567  1.00  0.00    -0.241 NA
HETATM    6  C13 UNL     1      22.160   1.846  49.451  1.00  0.00     0.221 C 
HETATM    7 CL1  UNL     1      21.651   2.071  47.794  1.00  0.00    -0.041 Cl
HETATM    8  N4  UNL     1      21.254   2.953  49.634  1.00  0.00    -0.214 NA
HETATM    9  C14 UNL     1      20.104   2.654  50.203  1.00  0.00     0.206 C 
HETATM   10  N5  UNL     1      19.452   1.534  50.709  1.00  0.00    -0.378 N 
HETATM   11  H17 UNL     1      18.501   1.763  50.283  1.00  0.00     0.160 HD
ENDROOT
BRANCH   3  12
HETATM   12  C5  UNL     1      22.645   0.322  53.485  1.00  0.00     0.032 A 
HETATM   13  C6  UNL     1      22.188  -0.515  54.514  1.00  0.00     0.029 A 
HETATM   14  C7  UNL     1      22.971  -1.301  55.315  1.00  0.00     0.003 A 
HETATM   15  C8  UNL     1      24.330  -1.276  55.100  1.00  0.00     0.015 A 
HETATM   16  C9  UNL     1      24.883  -0.479  54.103  1.00  0.00     0.034 A 
HETATM   17  C11 UNL     1      24.017   0.268  53.358  1.00  0.00     0.044 A 
BRANCH  16  18
HETATM   18  C10 UNL     1      26.332  -0.452  53.865  1.00  0.00     0.354 C 
HETATM   19  F1  UNL     1      26.652   0.643  53.053  1.00  0.00    -0.181 F 
HETATM   20  F2  UNL     1      26.701  -1.593  53.213  1.00  0.00    -0.181 F 
BRANCH  18  21
HETATM   21  N2  UNL     1      27.041  -0.312  55.102  1.00  0.00    -0.091 NA
HETATM   22  F3  UNL     1      28.130   0.460  54.907  1.00  0.00    -0.130 F 
HETATM   23  H12 UNL     1      27.255  -1.199  55.569  1.00  0.00     0.166 HD
ENDBRANCH  18  21
ENDBRANCH  16  18
ENDBRANCH   3  12
BRANCH   1  24
HETATM   24  C2  UNL     1      18.301  -0.217  51.691  1.00  0.00     0.022 C 
HETATM   25  C1  UNL     1      17.456  -0.104  50.490  1.00  0.00     0.007 C 
ENDBRANCH   1  24
TORSDOF 4
ENDMDL
