MODEL 1
REMARK VINA RESULT:      -7.5      0.000      0.000
REMARK  4 active torsions:
REMARK  status: ('A' for Active; 'I' for Inactive)
REMARK    1  A    between atoms: C2_2  and  O1_3 
REMARK    2  A    between atoms: O1_3  and  C3_4 
REMARK    3  A    between atoms: C4_5  and  C5_6 
REMARK    4  A    between atoms: C15_20  and  N3_21 
ROOT
HETATM    1  C5  UNL     1      21.880   1.967  52.153  1.00  0.00     0.111 A 
HETATM    2  C6  UNL     1      21.107   1.174  51.358  1.00  0.00     0.068 A 
HETATM    3  C7  UNL     1      21.199   2.138  50.622  1.00  0.00    -0.032 A 
HETATM    4  P1  UNL     1      21.320   3.219  49.818  1.00  0.00    -0.070 P 
HETATM    5  C8  UNL     1      21.432   4.075  49.199  1.00  0.00     0.161 C 
HETATM    6  C9  UNL     1      22.827   4.403  48.163  1.00  0.00     0.006 C 
HETATM    7  C10 UNL     1      24.027   4.432  48.577  1.00  0.00     0.018 C 
HETATM    8  C11 UNL     1      25.237   4.373  49.414  1.00  0.00     0.014 C 
HETATM    9 CL1  UNL     1      26.854   4.703  48.841  1.00  0.00    -0.089 Cl
HETATM   10  C12 UNL     1      25.145   4.045  50.745  1.00  0.00     0.047 C 
HETATM   11  C13 UNL     1      24.843   3.675  52.147  1.00  0.00     0.195 C 
HETATM   12  N1  UNL     1      23.825   3.317  52.940  1.00  0.00    -0.210 NA
HETATM   13  N2  UNL     1      22.586   3.245  52.292  1.00  0.00    -0.283 N 
HETATM   14  C14 UNL     1      22.013   4.325  51.650  1.00  0.00     0.223 C 
HETATM   15  C15 UNL     1      21.828   5.607  51.129  1.00  0.00     0.113 C 
HETATM   16  N4  UNL     1      21.501   5.733  49.799  1.00  0.00    -0.262 NA
HETATM   17  H7  UNL     1      21.506   5.311  48.248  1.00  0.00     0.064 HD
ENDROOT
BRANCH   1  18
HETATM   18  C4  UNL     1      21.913   0.986  53.117  1.00  0.00     0.008 C 
HETATM   19  C3  UNL     1      22.811   0.104  53.396  1.00  0.00     0.057 C 
HETATM   20  C19 UNL     1      22.924  -0.981  54.452  1.00  0.00     0.094 C 
HETATM   21  C18 UNL     1      21.895  -2.003  54.211  1.00  0.00     0.004 C 
HETATM   22  C17 UNL     1      20.631  -1.647  54.233  1.00  0.00     0.131 C 
HETATM   23  O2  UNL     1      20.386  -0.318  54.488  1.00  0.00    -0.359 OA
HETATM   24  C16 UNL     1      20.659   0.921  53.901  1.00  0.00     0.214 C 
BRANCH  19  25
HETATM   25  O1  UNL     1      23.969   0.037  52.640  1.00  0.00    -0.355 OA
BRANCH  25  26
HETATM   26  C2  UNL     1      25.232  -0.051  53.268  1.00  0.00     0.171 C 
HETATM   27  C1  UNL     1      26.329   0.179  52.247  1.00  0.00     0.034 C 
ENDBRANCH  25  26
ENDBRANCH  19  25
ENDBRANCH   1  18
BRANCH  15  28
HETATM   28  N3  UNL     1      21.837   6.979  51.497  1.00  0.00    -0.386 N 
HETATM   29  H15 UNL     1      22.765   7.453  51.310  1.00  0.00     0.157 HD
HETATM   30  H16 UNL     1      21.052   7.523  51.907  1.00  0.00     0.157 HD
ENDBRANCH  15  28
TORSDOF 4
ENDMDL
MODEL 2
REMARK VINA RESULT:      -7.4      2.376      3.468
REMARK  4 active torsions:
REMARK  status: ('A' for Active; 'I' for Inactive)
REMARK    1  A    between atoms: C2_2  and  O1_3 
REMARK    2  A    between atoms: O1_3  and  C3_4 
REMARK    3  A    between atoms: C4_5  and  C5_6 
REMARK    4  A    between atoms: C15_20  and  N3_21 
ROOT
HETATM    1  C5  UNL     1      21.606   2.922  50.612  1.00  0.00     0.111 A 
HETATM    2  C6  UNL     1      21.426   2.619  49.295  1.00  0.00     0.068 A 
HETATM    3  C7  UNL     1      22.483   3.214  49.204  1.00  0.00    -0.032 A 
HETATM    4  P1  UNL     1      23.661   3.875  49.128  1.00  0.00    -0.070 P 
HETATM    5  C8  UNL     1      24.589   4.392  49.091  1.00  0.00     0.161 C 
HETATM    6  C9  UNL     1      26.166   3.670  49.433  1.00  0.00     0.006 C 
HETATM    7  C10 UNL     1      26.448   3.055  50.509  1.00  0.00     0.018 C 
HETATM    8  C11 UNL     1      26.382   2.432  51.841  1.00  0.00     0.014 C 
HETATM    9 CL1  UNL     1      27.728   1.655  52.638  1.00  0.00    -0.089 Cl
HETATM   10  C12 UNL     1      25.206   2.436  52.552  1.00  0.00     0.047 C 
HETATM   11  C13 UNL     1      23.858   2.541  53.157  1.00  0.00     0.195 C 
HETATM   12  N1  UNL     1      22.621   2.979  52.891  1.00  0.00    -0.210 NA
HETATM   13  N2  UNL     1      22.471   3.546  51.619  1.00  0.00    -0.283 N 
HETATM   14  C14 UNL     1      23.201   4.637  51.194  1.00  0.00     0.223 C 
HETATM   15  C15 UNL     1      24.127   5.682  51.177  1.00  0.00     0.113 C 
HETATM   16  N4  UNL     1      25.005   5.763  50.120  1.00  0.00    -0.262 NA
HETATM   17  H7  UNL     1      25.928   5.180  48.941  1.00  0.00     0.064 HD
ENDROOT
BRANCH   1  18
HETATM   18  C4  UNL     1      20.434   2.275  50.931  1.00  0.00     0.008 C 
HETATM   19  C3  UNL     1      20.221   1.101  51.418  1.00  0.00     0.057 C 
HETATM   20  C19 UNL     1      18.968   0.341  51.815  1.00  0.00     0.094 C 
HETATM   21  C18 UNL     1      18.165   0.065  50.614  1.00  0.00     0.004 C 
HETATM   22  C17 UNL     1      17.729   1.075  49.897  1.00  0.00     0.131 C 
HETATM   23  O2  UNL     1      18.072   2.327  50.353  1.00  0.00    -0.359 OA
HETATM   24  C16 UNL     1      19.236   3.069  50.576  1.00  0.00     0.214 C 
BRANCH  19  25
HETATM   25  O1  UNL     1      21.289   0.260  51.680  1.00  0.00    -0.355 OA
BRANCH  25  26
HETATM   26  C2  UNL     1      21.378  -0.422  52.916  1.00  0.00     0.171 C 
HETATM   27  C1  UNL     1      22.799  -0.905  53.132  1.00  0.00     0.034 C 
ENDBRANCH  25  26
ENDBRANCH  19  25
ENDBRANCH   1  18
BRANCH  15  28
HETATM   28  N3  UNL     1      24.543   6.826  51.911  1.00  0.00    -0.386 N 
HETATM   29  H15 UNL     1      25.402   6.650  52.503  1.00  0.00     0.157 HD
HETATM   30  H16 UNL     1      24.098   7.765  51.911  1.00  0.00     0.157 HD
ENDBRANCH  15  28
TORSDOF 4
ENDMDL
MODEL 3
REMARK VINA RESULT:      -7.2      2.724      4.586
REMARK  4 active torsions:
REMARK  status: ('A' for Active; 'I' for Inactive)
REMARK    1  A    between atoms: C2_2  and  O1_3 
REMARK    2  A    between atoms: O1_3  and  C3_4 
REMARK    3  A    between atoms: C4_5  and  C5_6 
REMARK    4  A    between atoms: C15_20  and  N3_21 
ROOT
HETATM    1  C5  UNL     1      23.793   1.889  51.797  1.00  0.00     0.111 A 
HETATM    2  C6  UNL     1      24.371   2.901  52.505  1.00  0.00     0.068 A 
HETATM    3  C7  UNL     1      23.623   3.565  51.812  1.00  0.00    -0.032 A 
HETATM    4  P1  UNL     1      22.780   4.282  51.034  1.00  0.00    -0.070 P 
HETATM    5  C8  UNL     1      22.107   4.827  50.418  1.00  0.00     0.161 C 
HETATM    6  C9  UNL     1      20.387   5.062  50.756  1.00  0.00     0.006 C 
HETATM    7  C10 UNL     1      19.569   4.114  50.970  1.00  0.00     0.018 C 
HETATM    8  C11 UNL     1      18.960   2.788  51.167  1.00  0.00     0.014 C 
HETATM    9 CL1  UNL     1      17.259   2.513  51.456  1.00  0.00    -0.089 Cl
HETATM   10  C12 UNL     1      19.736   1.655  51.127  1.00  0.00     0.047 C 
HETATM   11  C13 UNL     1      20.731   0.561  51.051  1.00  0.00     0.195 C 
HETATM   12  N1  UNL     1      22.045   0.347  50.905  1.00  0.00    -0.210 NA
HETATM   13  N2  UNL     1      22.809   1.514  50.776  1.00  0.00    -0.283 N 
HETATM   14  C14 UNL     1      22.608   2.433  49.765  1.00  0.00     0.223 C 
HETATM   15  C15 UNL     1      22.067   3.069  48.647  1.00  0.00     0.113 C 
HETATM   16  N4  UNL     1      21.709   4.393  48.754  1.00  0.00    -0.262 NA
HETATM   17  H7  UNL     1      21.182   5.705  49.518  1.00  0.00     0.064 HD
ENDROOT
BRANCH   1  18
HETATM   18  C4  UNL     1      24.543   0.964  52.488  1.00  0.00     0.008 C 
HETATM   19  C3  UNL     1      24.231   0.180  53.461  1.00  0.00     0.057 C 
HETATM   20  C19 UNL     1      24.993  -0.873  54.245  1.00  0.00     0.094 C 
HETATM   21  C18 UNL     1      26.063  -0.225  55.018  1.00  0.00     0.004 C 
HETATM   22  C17 UNL     1      26.990   0.447  54.376  1.00  0.00     0.131 C 
HETATM   23  O2  UNL     1      26.869   0.479  53.006  1.00  0.00    -0.359 OA
HETATM   24  C16 UNL     1      25.958   0.948  52.054  1.00  0.00     0.214 C 
BRANCH  19  25
HETATM   25  O1  UNL     1      22.952   0.212  53.989  1.00  0.00    -0.355 OA
BRANCH  25  26
HETATM   26  C2  UNL     1      22.462  -0.874  54.751  1.00  0.00     0.171 C 
HETATM   27  C1  UNL     1      21.127  -1.329  54.195  1.00  0.00     0.034 C 
ENDBRANCH  25  26
ENDBRANCH  19  25
ENDBRANCH   1  18
BRANCH  15  28
HETATM   28  N3  UNL     1      21.722   2.846  47.286  1.00  0.00    -0.386 N 
HETATM   29  H15 UNL     1      20.712   3.079  47.071  1.00  0.00     0.157 HD
HETATM   30  H16 UNL     1      22.344   2.497  46.531  1.00  0.00     0.157 HD
ENDBRANCH  15  28
TORSDOF 4
ENDMDL
MODEL 4
REMARK VINA RESULT:      -7.2      2.650      3.579
REMARK  4 active torsions:
REMARK  status: ('A' for Active; 'I' for Inactive)
REMARK    1  A    between atoms: C2_2  and  O1_3 
REMARK    2  A    between atoms: O1_3  and  C3_4 
REMARK    3  A    between atoms: C4_5  and  C5_6 
REMARK    4  A    between atoms: C15_20  and  N3_21 
ROOT
HETATM    1  C5  UNL     1      23.315   3.789  51.616  1.00  0.00     0.111 A 
HETATM    2  C6  UNL     1      22.977   4.595  52.663  1.00  0.00     0.068 A 
HETATM    3  C7  UNL     1      23.539   5.421  51.968  1.00  0.00    -0.032 A 
HETATM    4  P1  UNL     1      24.163   6.322  51.176  1.00  0.00    -0.070 P 
HETATM    5  C8  UNL     1      24.652   7.017  50.537  1.00  0.00     0.161 C 
HETATM    6  C9  UNL     1      23.896   7.839  49.166  1.00  0.00     0.006 C 
HETATM    7  C10 UNL     1      23.306   7.239  48.215  1.00  0.00     0.018 C 
HETATM    8  C11 UNL     1      22.726   6.212  47.334  1.00  0.00     0.014 C 
HETATM    9 CL1  UNL     1      21.935   6.545  45.812  1.00  0.00    -0.089 Cl
HETATM   10  C12 UNL     1      22.785   4.884  47.681  1.00  0.00     0.047 C 
HETATM   11  C13 UNL     1      22.947   3.517  48.227  1.00  0.00     0.195 C 
HETATM   12  N1  UNL     1      23.412   2.865  49.300  1.00  0.00    -0.210 NA
HETATM   13  N2  UNL     1      23.944   3.695  50.295  1.00  0.00    -0.283 N 
HETATM   14  C14 UNL     1      25.001   4.554  50.067  1.00  0.00     0.223 C 
HETATM   15  C15 UNL     1      26.017   5.254  49.415  1.00  0.00     0.113 C 
HETATM   16  N4  UNL     1      26.041   6.626  49.522  1.00  0.00    -0.262 NA
HETATM   17  H7  UNL     1      25.396   8.089  49.680  1.00  0.00     0.064 HD
ENDROOT
BRANCH   1  18
HETATM   18  C4  UNL     1      22.712   2.717  52.235  1.00  0.00     0.008 C 
HETATM   19  C3  UNL     1      23.208   1.626  52.710  1.00  0.00     0.057 C 
HETATM   20  C19 UNL     1      22.611   0.426  53.421  1.00  0.00     0.094 C 
HETATM   21  C18 UNL     1      21.725  -0.297  52.497  1.00  0.00     0.004 C 
HETATM   22  C17 UNL     1      20.693   0.333  51.984  1.00  0.00     0.131 C 
HETATM   23  O2  UNL     1      20.535   1.642  52.375  1.00  0.00    -0.359 OA
HETATM   24  C16 UNL     1      21.238   2.847  52.280  1.00  0.00     0.214 C 
BRANCH  19  25
HETATM   25  O1  UNL     1      24.568   1.387  52.612  1.00  0.00    -0.355 OA
BRANCH  25  26
HETATM   26  C2  UNL     1      25.181   0.396  53.412  1.00  0.00     0.171 C 
HETATM   27  C1  UNL     1      26.229  -0.340  52.601  1.00  0.00     0.034 C 
ENDBRANCH  25  26
ENDBRANCH  19  25
ENDBRANCH   1  18
BRANCH  15  28
HETATM   28  N3  UNL     1      27.170   5.065  48.606  1.00  0.00    -0.386 N 
HETATM   29  H15 UNL     1      27.320   4.055  48.326  1.00  0.00     0.157 HD
HETATM   30  H16 UNL     1      27.836   5.795  48.285  1.00  0.00     0.157 HD
ENDBRANCH  15  28
TORSDOF 4
ENDMDL
MODEL 5
REMARK VINA RESULT:      -7.2      8.926     11.485
REMARK  4 active torsions:
REMARK  status: ('A' for Active; 'I' for Inactive)
REMARK    1  A    between atoms: C2_2  and  O1_3 
REMARK    2  A    between atoms: O1_3  and  C3_4 
REMARK    3  A    between atoms: C4_5  and  C5_6 
REMARK    4  A    between atoms: C15_20  and  N3_21 
ROOT
HETATM    1  C5  UNL     1      31.342   7.618  47.105  1.00  0.00     0.111 A 
HETATM    2  C6  UNL     1      31.353   7.482  45.749  1.00  0.00     0.068 A 
HETATM    3  C7  UNL     1      30.191   7.813  45.891  1.00  0.00    -0.032 A 
HETATM    4  P1  UNL     1      28.904   8.187  46.074  1.00  0.00    -0.070 P 
HETATM    5  C8  UNL     1      27.898   8.488  46.238  1.00  0.00     0.161 C 
HETATM    6  C9  UNL     1      27.360  10.159  46.446  1.00  0.00     0.006 C 
HETATM    7  C10 UNL     1      27.836  10.955  47.314  1.00  0.00     0.018 C 
HETATM    8  C11 UNL     1      28.623  11.552  48.406  1.00  0.00     0.014 C 
HETATM    9 CL1  UNL     1      28.395  13.171  49.021  1.00  0.00    -0.089 Cl
HETATM   10  C12 UNL     1      29.616  10.829  49.022  1.00  0.00     0.047 C 
HETATM   11  C13 UNL     1      30.636   9.897  49.556  1.00  0.00     0.195 C 
HETATM   12  N1  UNL     1      31.144   8.674  49.358  1.00  0.00    -0.210 NA
HETATM   13  N2  UNL     1      30.561   7.972  48.295  1.00  0.00    -0.283 N 
HETATM   14  C14 UNL     1      29.213   7.676  48.242  1.00  0.00     0.223 C 
HETATM   15  C15 UNL     1      27.860   7.619  48.577  1.00  0.00     0.113 C 
HETATM   16  N4  UNL     1      26.935   8.015  47.639  1.00  0.00    -0.262 NA
HETATM   17  H7  UNL     1      26.394   8.878  46.395  1.00  0.00     0.064 HD
ENDROOT
BRANCH   1  18
HETATM   18  C4  UNL     1      32.675   7.278  47.160  1.00  0.00     0.008 C 
HETATM   19  C3  UNL     1      33.260   6.221  47.608  1.00  0.00     0.057 C 
HETATM   20  C19 UNL     1      34.709   5.773  47.675  1.00  0.00     0.094 C 
HETATM   21  C18 UNL     1      35.450   6.656  48.588  1.00  0.00     0.004 C 
HETATM   22  C17 UNL     1      35.511   7.940  48.319  1.00  0.00     0.131 C 
HETATM   23  O2  UNL     1      34.860   8.345  47.176  1.00  0.00    -0.359 OA
HETATM   24  C16 UNL     1      33.555   8.365  46.675  1.00  0.00     0.214 C 
BRANCH  19  25
HETATM   25  O1  UNL     1      32.509   5.204  48.171  1.00  0.00    -0.355 OA
BRANCH  25  26
HETATM   26  C2  UNL     1      32.773   3.853  47.845  1.00  0.00     0.171 C 
HETATM   27  C1  UNL     1      31.952   3.447  46.637  1.00  0.00     0.034 C 
ENDBRANCH  25  26
ENDBRANCH  19  25
ENDBRANCH   1  18
BRANCH  15  28
HETATM   28  N3  UNL     1      26.978   7.252  49.630  1.00  0.00    -0.386 N 
HETATM   29  H15 UNL     1      26.488   6.329  49.459  1.00  0.00     0.157 HD
HETATM   30  H16 UNL     1      26.790   7.784  50.503  1.00  0.00     0.157 HD
ENDBRANCH  15  28
TORSDOF 4
ENDMDL
MODEL 6
REMARK VINA RESULT:      -7.1      9.192     11.512
REMARK  4 active torsions:
REMARK  status: ('A' for Active; 'I' for Inactive)
REMARK    1  A    between atoms: C2_2  and  O1_3 
REMARK    2  A    between atoms: O1_3  and  C3_4 
REMARK    3  A    between atoms: C4_5  and  C5_6 
REMARK    4  A    between atoms: C15_20  and  N3_21 
ROOT
HETATM    1  C5  UNL     1      31.715   6.210  47.461  1.00  0.00     0.111 A 
HETATM    2  C6  UNL     1      31.174   4.982  47.703  1.00  0.00     0.068 A 
HETATM    3  C7  UNL     1      30.192   5.664  47.929  1.00  0.00    -0.032 A 
HETATM    4  P1  UNL     1      29.112   6.443  48.170  1.00  0.00    -0.070 P 
HETATM    5  C8  UNL     1      28.274   7.071  48.349  1.00  0.00     0.161 C 
HETATM    6  C9  UNL     1      27.204   7.715  47.097  1.00  0.00     0.006 C 
HETATM    7  C10 UNL     1      27.606   8.383  46.094  1.00  0.00     0.018 C 
HETATM    8  C11 UNL     1      28.438   9.086  45.104  1.00  0.00     0.014 C 
HETATM    9 CL1  UNL     1      27.814   9.949  43.719  1.00  0.00    -0.089 Cl
HETATM   10  C12 UNL     1      29.806   9.100  45.232  1.00  0.00     0.047 C 
HETATM   11  C13 UNL     1      31.252   9.001  45.539  1.00  0.00     0.195 C 
HETATM   12  N1  UNL     1      32.103   8.439  46.407  1.00  0.00    -0.210 NA
HETATM   13  N2  UNL     1      31.488   7.658  47.394  1.00  0.00    -0.283 N 
HETATM   14  C14 UNL     1      30.555   8.164  48.277  1.00  0.00     0.223 C 
HETATM   15  C15 UNL     1      29.686   9.049  48.916  1.00  0.00     0.113 C 
HETATM   16  N4  UNL     1      28.371   8.675  49.077  1.00  0.00    -0.262 NA
HETATM   17  H7  UNL     1      27.008   7.924  48.677  1.00  0.00     0.064 HD
ENDROOT
BRANCH   1  18
HETATM   18  C4  UNL     1      32.921   5.627  47.147  1.00  0.00     0.008 C 
HETATM   19  C3  UNL     1      33.370   5.160  46.033  1.00  0.00     0.057 C 
HETATM   20  C19 UNL     1      34.688   4.533  45.613  1.00  0.00     0.094 C 
HETATM   21  C18 UNL     1      34.855   3.245  46.301  1.00  0.00     0.004 C 
HETATM   22  C17 UNL     1      34.881   3.226  47.614  1.00  0.00     0.131 C 
HETATM   23  O2  UNL     1      34.748   4.446  48.235  1.00  0.00    -0.359 OA
HETATM   24  C16 UNL     1      33.796   5.465  48.330  1.00  0.00     0.214 C 
BRANCH  19  25
HETATM   25  O1  UNL     1      32.570   5.183  44.904  1.00  0.00    -0.355 OA
BRANCH  25  26
HETATM   26  C2  UNL     1      33.141   5.366  43.623  1.00  0.00     0.171 C 
HETATM   27  C1  UNL     1      32.569   6.613  42.980  1.00  0.00     0.034 C 
ENDBRANCH  25  26
ENDBRANCH  19  25
ENDBRANCH   1  18
BRANCH  15  28
HETATM   28  N3  UNL     1      29.642  10.323  49.544  1.00  0.00    -0.386 N 
HETATM   29  H15 UNL     1      28.811  10.440  50.189  1.00  0.00     0.157 HD
HETATM   30  H16 UNL     1      30.321  11.101  49.430  1.00  0.00     0.157 HD
ENDBRANCH  15  28
TORSDOF 4
ENDMDL
MODEL 7
REMARK VINA RESULT:      -7.0      1.487      1.822
REMARK  4 active torsions:
REMARK  status: ('A' for Active; 'I' for Inactive)
REMARK    1  A    between atoms: C2_2  and  O1_3 
REMARK    2  A    between atoms: O1_3  and  C3_4 
REMARK    3  A    between atoms: C4_5  and  C5_6 
REMARK    4  A    between atoms: C15_20  and  N3_21 
ROOT
HETATM    1  C5  UNL     1      21.194   1.704  51.419  1.00  0.00     0.111 A 
HETATM    2  C6  UNL     1      21.162   0.540  50.709  1.00  0.00     0.068 A 
HETATM    3  C7  UNL     1      20.957   1.318  49.796  1.00  0.00    -0.032 A 
HETATM    4  P1  UNL     1      20.735   2.202  48.797  1.00  0.00    -0.070 P 
HETATM    5  C8  UNL     1      20.568   2.914  48.025  1.00  0.00     0.161 C 
HETATM    6  C9  UNL     1      21.834   3.828  47.196  1.00  0.00     0.006 C 
HETATM    7  C10 UNL     1      22.700   4.541  47.792  1.00  0.00     0.018 C 
HETATM    8  C11 UNL     1      23.504   5.231  48.814  1.00  0.00     0.014 C 
HETATM    9 CL1  UNL     1      24.829   6.316  48.467  1.00  0.00    -0.089 Cl
HETATM   10  C12 UNL     1      23.235   5.049  50.149  1.00  0.00     0.047 C 
HETATM   11  C13 UNL     1      22.794   4.725  51.526  1.00  0.00     0.195 C 
HETATM   12  N1  UNL     1      21.919   3.963  52.194  1.00  0.00    -0.210 NA
HETATM   13  N2  UNL     1      21.105   3.167  51.377  1.00  0.00    -0.283 N 
HETATM   14  C14 UNL     1      20.268   3.694  50.414  1.00  0.00     0.223 C 
HETATM   15  C15 UNL     1      19.618   4.612  49.588  1.00  0.00     0.113 C 
HETATM   16  N4  UNL     1      19.641   4.402  48.228  1.00  0.00    -0.262 NA
HETATM   17  H7  UNL     1      20.270   3.887  46.841  1.00  0.00     0.064 HD
ENDROOT
BRANCH   1  18
HETATM   18  C4  UNL     1      21.451   1.003  52.575  1.00  0.00     0.008 C 
HETATM   19  C3  UNL     1      22.552   0.530  53.050  1.00  0.00     0.057 C 
HETATM   20  C19 UNL     1      22.908  -0.222  54.320  1.00  0.00     0.094 C 
HETATM   21  C18 UNL     1      22.268  -1.546  54.297  1.00  0.00     0.004 C 
HETATM   22  C17 UNL     1      20.958  -1.615  54.226  1.00  0.00     0.131 C 
HETATM   23  O2  UNL     1      20.295  -0.411  54.181  1.00  0.00    -0.359 OA
HETATM   24  C16 UNL     1      20.219   0.703  53.339  1.00  0.00     0.214 C 
BRANCH  19  25
HETATM   25  O1  UNL     1      23.730   0.682  52.341  1.00  0.00    -0.355 OA
BRANCH  25  26
HETATM   26  C2  UNL     1      24.946   0.938  53.016  1.00  0.00     0.171 C 
HETATM   27  C1  UNL     1      25.123   2.432  53.202  1.00  0.00     0.034 C 
ENDBRANCH  25  26
ENDBRANCH  19  25
ENDBRANCH   1  18
BRANCH  15  28
HETATM   28  N3  UNL     1      18.845   5.804  49.624  1.00  0.00    -0.386 N 
HETATM   29  H15 UNL     1      18.744   6.205  50.598  1.00  0.00     0.157 HD
HETATM   30  H16 UNL     1      18.399   6.286  48.818  1.00  0.00     0.157 HD
ENDBRANCH  15  28
TORSDOF 4
ENDMDL
MODEL 8
REMARK VINA RESULT:      -6.9      9.942     11.956
REMARK  4 active torsions:
REMARK  status: ('A' for Active; 'I' for Inactive)
REMARK    1  A    between atoms: C2_2  and  O1_3 
REMARK    2  A    between atoms: O1_3  and  C3_4 
REMARK    3  A    between atoms: C4_5  and  C5_6 
REMARK    4  A    between atoms: C15_20  and  N3_21 
ROOT
HETATM    1  C5  UNL     1      32.265   8.267  47.993  1.00  0.00     0.111 A 
HETATM    2  C6  UNL     1      32.161   7.908  49.305  1.00  0.00     0.068 A 
HETATM    3  C7  UNL     1      31.273   8.739  49.270  1.00  0.00    -0.032 A 
HETATM    4  P1  UNL     1      30.287   9.662  49.206  1.00  0.00    -0.070 P 
HETATM    5  C8  UNL     1      29.512  10.387  49.133  1.00  0.00     0.161 C 
HETATM    6  C9  UNL     1      27.882  10.071  48.525  1.00  0.00     0.006 C 
HETATM    7  C10 UNL     1      27.635   9.560  47.389  1.00  0.00     0.018 C 
HETATM    8  C11 UNL     1      27.759   8.960  46.050  1.00  0.00     0.014 C 
HETATM    9 CL1  UNL     1      26.409   8.543  45.023  1.00  0.00    -0.089 Cl
HETATM   10  C12 UNL     1      28.999   8.693  45.521  1.00  0.00     0.047 C 
HETATM   11  C13 UNL     1      30.411   8.480  45.128  1.00  0.00     0.195 C 
HETATM   12  N1  UNL     1      31.659   8.603  45.596  1.00  0.00    -0.210 NA
HETATM   13  N2  UNL     1      31.739   9.097  46.905  1.00  0.00    -0.283 N 
HETATM   14  C14 UNL     1      31.229  10.325  47.274  1.00  0.00     0.223 C 
HETATM   15  C15 UNL     1      30.584  11.561  47.209  1.00  0.00     0.113 C 
HETATM   16  N4  UNL     1      29.596  11.834  48.128  1.00  0.00    -0.262 NA
HETATM   17  H7  UNL     1      28.389  11.472  49.125  1.00  0.00     0.064 HD
ENDROOT
BRANCH   1  18
HETATM   18  C4  UNL     1      33.287   7.362  47.817  1.00  0.00     0.008 C 
HETATM   19  C3  UNL     1      33.292   6.182  47.300  1.00  0.00     0.057 C 
HETATM   20  C19 UNL     1      34.377   5.149  47.053  1.00  0.00     0.094 C 
HETATM   21  C18 UNL     1      34.890   4.663  48.342  1.00  0.00     0.004 C 
HETATM   22  C17 UNL     1      35.433   5.523  49.173  1.00  0.00     0.131 C 
HETATM   23  O2  UNL     1      35.471   6.830  48.745  1.00  0.00    -0.359 OA
HETATM   24  C16 UNL     1      34.566   7.835  48.393  1.00  0.00     0.214 C 
BRANCH  19  25
HETATM   25  O1  UNL     1      32.112   5.630  46.832  1.00  0.00    -0.355 OA
BRANCH  25  26
HETATM   26  C2  UNL     1      31.323   4.807  47.670  1.00  0.00     0.171 C 
HETATM   27  C1  UNL     1      29.957   5.435  47.863  1.00  0.00     0.034 C 
ENDBRANCH  25  26
ENDBRANCH  19  25
ENDBRANCH   1  18
BRANCH  15  28
HETATM   28  N3  UNL     1      30.569  12.783  46.484  1.00  0.00    -0.386 N 
HETATM   29  H15 UNL     1      31.525  13.231  46.404  1.00  0.00     0.157 HD
HETATM   30  H16 UNL     1      29.744  13.243  46.048  1.00  0.00     0.157 HD
ENDBRANCH  15  28
TORSDOF 4
ENDMDL
MODEL 9
REMARK VINA RESULT:      -6.8      5.828      9.309
REMARK  4 active torsions:
REMARK  status: ('A' for Active; 'I' for Inactive)
REMARK    1  A    between atoms: C2_2  and  O1_3 
REMARK    2  A    between atoms: O1_3  and  C3_4 
REMARK    3  A    between atoms: C4_5  and  C5_6 
REMARK    4  A    between atoms: C15_20  and  N3_21 
ROOT
HETATM    1  C5  UNL     1      27.879   6.767  48.335  1.00  0.00     0.111 A 
HETATM    2  C6  UNL     1      28.463   5.544  48.181  1.00  0.00     0.068 A 
HETATM    3  C7  UNL     1      27.416   5.187  48.689  1.00  0.00    -0.032 A 
HETATM    4  P1  UNL     1      26.243   4.813  49.249  1.00  0.00    -0.070 P 
HETATM    5  C8  UNL     1      25.313   4.539  49.685  1.00  0.00     0.161 C 
HETATM    6  C9  UNL     1      23.795   4.348  48.798  1.00  0.00     0.006 C 
HETATM    7  C10 UNL     1      23.288   5.247  48.058  1.00  0.00     0.018 C 
HETATM    8  C11 UNL     1      23.038   6.492  47.313  1.00  0.00     0.014 C 
HETATM    9 CL1  UNL     1      21.616   6.800  46.347  1.00  0.00    -0.089 Cl
HETATM   10  C12 UNL     1      23.952   7.518  47.349  1.00  0.00     0.047 C 
HETATM   11  C13 UNL     1      25.049   8.500  47.510  1.00  0.00     0.195 C 
HETATM   12  N1  UNL     1      26.253   8.642  48.077  1.00  0.00    -0.210 NA
HETATM   13  N2  UNL     1      26.698   7.514  48.779  1.00  0.00    -0.283 N 
HETATM   14  C14 UNL     1      26.003   6.969  49.840  1.00  0.00     0.223 C 
HETATM   15  C15 UNL     1      25.009   6.753  50.796  1.00  0.00     0.113 C 
HETATM   16  N4  UNL     1      24.469   5.492  50.906  1.00  0.00    -0.262 NA
HETATM   17  H7  UNL     1      23.994   4.055  50.365  1.00  0.00     0.064 HD
ENDROOT
BRANCH   1  18
HETATM   18  C4  UNL     1      28.976   7.372  47.764  1.00  0.00     0.008 C 
HETATM   19  C3  UNL     1      29.160   7.843  46.579  1.00  0.00     0.057 C 
HETATM   20  C19 UNL     1      30.323   8.540  45.896  1.00  0.00     0.094 C 
HETATM   21  C18 UNL     1      31.450   7.603  45.776  1.00  0.00     0.004 C 
HETATM   22  C17 UNL     1      31.966   7.088  46.868  1.00  0.00     0.131 C 
HETATM   23  O2  UNL     1      31.388   7.488  48.051  1.00  0.00    -0.359 OA
HETATM   24  C16 UNL     1      30.141   7.408  48.677  1.00  0.00     0.214 C 
BRANCH  19  25
HETATM   25  O1  UNL     1      28.150   7.752  45.637  1.00  0.00    -0.355 OA
BRANCH  25  26
HETATM   26  C2  UNL     1      27.938   8.799  44.709  1.00  0.00     0.171 C 
HETATM   27  C1  UNL     1      26.589   8.625  44.040  1.00  0.00     0.034 C 
ENDBRANCH  25  26
ENDBRANCH  19  25
ENDBRANCH   1  18
BRANCH  15  28
HETATM   28  N3  UNL     1      24.275   7.409  51.821  1.00  0.00    -0.386 N 
HETATM   29  H15 UNL     1      23.553   8.086  51.446  1.00  0.00     0.157 HD
HETATM   30  H16 UNL     1      24.382   7.282  52.847  1.00  0.00     0.157 HD
ENDBRANCH  15  28
TORSDOF 4
ENDMDL
