MODEL 1
REMARK VINA RESULT:      -8.2      0.000      0.000
REMARK  7 active torsions:
REMARK  status: ('A' for Active; 'I' for Inactive)
REMARK    1  A    between atoms: C6_7  and  N2_8 
REMARK    2  A    between atoms: N2_8  and  C7_9 
REMARK    3  A    between atoms: C9_13  and  C10_14 
REMARK    4  A    between atoms: C10_14  and  C11_15 
REMARK    5  A    between atoms: C11_15  and  O1_16 
REMARK    6  A    between atoms: O1_16  and  C12_17 
REMARK    7  A    between atoms: C17_23  and  C18_24 
ROOT
HETATM    1  C1  UNL     1      29.377  -1.762  53.305  1.00  0.00     0.018 C 
HETATM    2  C2  UNL     1      28.580  -0.863  53.390  1.00  0.00    -0.076 C 
HETATM    3  C3  UNL     1      27.630   0.208  53.467  1.00  0.00     0.033 A 
HETATM    4  C4  UNL     1      28.098   1.363  53.902  1.00  0.00     0.104 A 
HETATM    5  N1  UNL     1      27.100   2.383  53.951  1.00  0.00    -0.392 N 
HETATM    6  C5  UNL     1      25.712   2.383  53.627  1.00  0.00     0.176 A 
HETATM    7  C6  UNL     1      25.294   1.041  53.149  1.00  0.00     0.030 A 
HETATM    8  C22 UNL     1      26.220   0.062  53.092  1.00  0.00     0.048 A 
HETATM    9  H3  UNL     1      27.405   3.341  54.286  1.00  0.00     0.159 HD
ENDROOT
BRANCH   7  10
HETATM   10  N2  UNL     1      24.058   0.491  52.697  1.00  0.00    -0.342 N 
HETATM   11  H6  UNL     1      24.077   0.561  51.638  1.00  0.00     0.167 HD
BRANCH  10  12
HETATM   12  C7  UNL     1      22.910  -0.088  53.259  1.00  0.00     0.144 A 
HETATM   13  N3  UNL     1      23.339  -0.756  54.329  1.00  0.00    -0.223 NA
HETATM   14  C8  UNL     1      22.602  -1.486  55.164  1.00  0.00     0.236 A 
HETATM   15  N4  UNL     1      21.335  -1.474  54.793  1.00  0.00    -0.241 NA
HETATM   16  C9  UNL     1      20.757  -0.857  53.750  1.00  0.00     0.073 A 
HETATM   17  C17 UNL     1      21.594  -0.122  52.940  1.00  0.00     0.070 A 
BRANCH  16  18
HETATM   18  C10 UNL     1      19.440  -0.961  53.529  1.00  0.00     0.032 C 
BRANCH  18  19
HETATM   19  C11 UNL     1      18.075  -1.097  53.127  1.00  0.00     0.198 C 
BRANCH  19  20
HETATM   20  O1  UNL     1      17.696  -0.700  51.886  1.00  0.00    -0.382 OA
BRANCH  20  21
HETATM   21  C12 UNL     1      16.394  -0.836  51.511  1.00  0.00     0.125 C 
HETATM   22  C13 UNL     1      15.638  -1.830  52.365  1.00  0.00     0.058 C 
HETATM   23  C14 UNL     1      14.169  -1.652  52.097  1.00  0.00     0.170 C 
HETATM   24  O2  UNL     1      13.743  -0.499  52.753  1.00  0.00    -0.391 OA
HETATM   25  C15 UNL     1      14.771   0.384  53.014  1.00  0.00     0.170 C 
HETATM   26  C16 UNL     1      15.731   0.514  51.842  1.00  0.00     0.058 C 
ENDBRANCH  20  21
ENDBRANCH  19  20
ENDBRANCH  18  19
ENDBRANCH  16  18
BRANCH  17  27
HETATM   27  C18 UNL     1      21.210   0.599  51.911  1.00  0.00     0.086 C 
HETATM   28  C19 UNL     1      20.412   1.815  51.675  1.00  0.00     0.233 C 
HETATM   29  O3  UNL     1      21.206   2.917  51.362  1.00  0.00    -0.383 OA
HETATM   30  C20 UNL     1      22.324   2.538  50.628  1.00  0.00     0.194 C 
HETATM   31  C21 UNL     1      22.045   1.325  49.771  1.00  0.00     0.201 C 
HETATM   32  O4  UNL     1      21.542   0.310  50.612  1.00  0.00    -0.350 OA
ENDBRANCH  17  27
ENDBRANCH  10  12
ENDBRANCH   7  10
TORSDOF 7
ENDMDL
MODEL 2
REMARK VINA RESULT:      -8.2      2.359      9.060
REMARK  7 active torsions:
REMARK  status: ('A' for Active; 'I' for Inactive)
REMARK    1  A    between atoms: C6_7  and  N2_8 
REMARK    2  A    between atoms: N2_8  and  C7_9 
REMARK    3  A    between atoms: C9_13  and  C10_14 
REMARK    4  A    between atoms: C10_14  and  C11_15 
REMARK    5  A    between atoms: C11_15  and  O1_16 
REMARK    6  A    between atoms: O1_16  and  C12_17 
REMARK    7  A    between atoms: C17_23  and  C18_24 
ROOT
HETATM    1  C1  UNL     1      13.988  -0.726  50.608  1.00  0.00     0.018 C 
HETATM    2  C2  UNL     1      14.814  -1.219  51.333  1.00  0.00    -0.076 C 
HETATM    3  C3  UNL     1      15.813  -1.807  52.176  1.00  0.00     0.033 A 
HETATM    4  C4  UNL     1      15.565  -3.035  52.593  1.00  0.00     0.104 A 
HETATM    5  N1  UNL     1      16.601  -3.558  53.425  1.00  0.00    -0.392 N 
HETATM    6  C5  UNL     1      17.830  -3.006  53.887  1.00  0.00     0.176 A 
HETATM    7  C6  UNL     1      18.008  -1.629  53.360  1.00  0.00     0.030 A 
HETATM    8  C22 UNL     1      17.044  -1.115  52.570  1.00  0.00     0.048 A 
HETATM    9  H3  UNL     1      16.473  -4.544  53.793  1.00  0.00     0.159 HD
ENDROOT
BRANCH   7  10
HETATM   10  N2  UNL     1      19.029  -0.642  53.493  1.00  0.00    -0.342 N 
HETATM   11  H6  UNL     1      18.530   0.296  53.488  1.00  0.00     0.167 HD
BRANCH  10  12
HETATM   12  C7  UNL     1      20.425  -0.600  53.631  1.00  0.00     0.144 A 
HETATM   13  N3  UNL     1      20.722  -1.564  54.502  1.00  0.00    -0.223 NA
HETATM   14  C8  UNL     1      21.931  -1.882  54.960  1.00  0.00     0.236 A 
HETATM   15  N4  UNL     1      22.848  -1.094  54.430  1.00  0.00    -0.241 NA
HETATM   16  C9  UNL     1      22.705  -0.089  53.551  1.00  0.00     0.073 A 
HETATM   17  C17 UNL     1      21.419   0.169  53.128  1.00  0.00     0.070 A 
BRANCH  16  18
HETATM   18  C10 UNL     1      23.764   0.608  53.120  1.00  0.00     0.032 C 
BRANCH  18  19
HETATM   19  C11 UNL     1      24.974   1.301  52.806  1.00  0.00     0.198 C 
BRANCH  19  20
HETATM   20  O1  UNL     1      25.981   0.646  52.175  1.00  0.00    -0.382 OA
BRANCH  20  21
HETATM   21  C12 UNL     1      27.271   0.996  52.436  1.00  0.00     0.125 C 
HETATM   22  C13 UNL     1      27.380   2.188  53.361  1.00  0.00     0.058 C 
HETATM   23  C14 UNL     1      28.801   2.273  53.846  1.00  0.00     0.170 C 
HETATM   24  O2  UNL     1      28.992   1.286  54.809  1.00  0.00    -0.391 OA
HETATM   25  C15 UNL     1      28.089   0.248  54.705  1.00  0.00     0.170 C 
HETATM   26  C16 UNL     1      27.851  -0.167  53.262  1.00  0.00     0.058 C 
ENDBRANCH  20  21
ENDBRANCH  19  20
ENDBRANCH  18  19
ENDBRANCH  16  18
BRANCH  17  27
HETATM   27  C18 UNL     1      21.084   1.067  52.229  1.00  0.00     0.086 C 
HETATM   28  C19 UNL     1      21.258   1.270  50.781  1.00  0.00     0.233 C 
HETATM   29  O3  UNL     1      20.087   1.022  50.067  1.00  0.00    -0.383 OA
HETATM   30  C20 UNL     1      18.964   1.395  50.799  1.00  0.00     0.194 C 
HETATM   31  C21 UNL     1      19.259   2.555  51.721  1.00  0.00     0.201 C 
HETATM   32  O4  UNL     1      20.369   2.202  52.517  1.00  0.00    -0.350 OA
ENDBRANCH  17  27
ENDBRANCH  10  12
ENDBRANCH   7  10
TORSDOF 7
ENDMDL
MODEL 3
REMARK VINA RESULT:      -7.6      4.675      9.766
REMARK  7 active torsions:
REMARK  status: ('A' for Active; 'I' for Inactive)
REMARK    1  A    between atoms: C6_7  and  N2_8 
REMARK    2  A    between atoms: N2_8  and  C7_9 
REMARK    3  A    between atoms: C9_13  and  C10_14 
REMARK    4  A    between atoms: C10_14  and  C11_15 
REMARK    5  A    between atoms: C11_15  and  O1_16 
REMARK    6  A    between atoms: O1_16  and  C12_17 
REMARK    7  A    between atoms: C17_23  and  C18_24 
ROOT
HETATM    1  C1  UNL     1      18.122  -0.803  52.857  1.00  0.00     0.018 C 
HETATM    2  C2  UNL     1      19.295  -0.692  53.112  1.00  0.00    -0.076 C 
HETATM    3  C3  UNL     1      20.695  -0.570  53.394  1.00  0.00     0.033 A 
HETATM    4  C4  UNL     1      21.175  -1.401  54.300  1.00  0.00     0.104 A 
HETATM    5  N1  UNL     1      22.574  -1.225  54.528  1.00  0.00    -0.392 N 
HETATM    6  C5  UNL     1      23.531  -0.327  53.971  1.00  0.00     0.176 A 
HETATM    7  C6  UNL     1      22.886   0.557  52.967  1.00  0.00     0.030 A 
HETATM    8  C22 UNL     1      21.566   0.407  52.733  1.00  0.00     0.048 A 
HETATM    9  H3  UNL     1      23.031  -1.863  55.239  1.00  0.00     0.159 HD
ENDROOT
BRANCH   7  10
HETATM   10  N2  UNL     1      23.357   1.605  52.122  1.00  0.00    -0.342 N 
HETATM   11  H6  UNL     1      22.494   2.139  51.811  1.00  0.00     0.167 HD
BRANCH  10  12
HETATM   12  C7  UNL     1      24.587   2.081  51.642  1.00  0.00     0.144 A 
HETATM   13  N3  UNL     1      25.509   1.540  52.438  1.00  0.00    -0.223 NA
HETATM   14  C8  UNL     1      26.826   1.729  52.378  1.00  0.00     0.236 A 
HETATM   15  N4  UNL     1      27.130   2.554  51.393  1.00  0.00    -0.241 NA
HETATM   16  C9  UNL     1      26.321   3.174  50.518  1.00  0.00     0.073 A 
HETATM   17  C17 UNL     1      24.974   2.919  50.652  1.00  0.00     0.070 A 
BRANCH  16  18
HETATM   18  C10 UNL     1      26.817   3.986  49.576  1.00  0.00     0.032 C 
BRANCH  18  19
HETATM   19  C11 UNL     1      27.503   4.812  48.631  1.00  0.00     0.198 C 
BRANCH  19  20
HETATM   20  O1  UNL     1      27.303   6.154  48.641  1.00  0.00    -0.382 OA
BRANCH  20  21
HETATM   21  C12 UNL     1      28.126   6.956  47.911  1.00  0.00     0.125 C 
HETATM   22  C13 UNL     1      28.474   8.244  48.623  1.00  0.00     0.058 C 
HETATM   23  C14 UNL     1      29.630   8.879  47.899  1.00  0.00     0.170 C 
HETATM   24  O2  UNL     1      30.787   8.180  48.229  1.00  0.00    -0.391 OA
HETATM   25  C15 UNL     1      30.536   6.895  48.666  1.00  0.00     0.170 C 
HETATM   26  C16 UNL     1      29.468   6.202  47.835  1.00  0.00     0.058 C 
ENDBRANCH  20  21
ENDBRANCH  19  20
ENDBRANCH  18  19
ENDBRANCH  16  18
BRANCH  17  27
HETATM   27  C18 UNL     1      24.034   3.380  49.858  1.00  0.00     0.086 C 
HETATM   28  C19 UNL     1      23.129   2.848  48.824  1.00  0.00     0.233 C 
HETATM   29  O3  UNL     1      21.818   2.726  49.282  1.00  0.00    -0.383 OA
HETATM   30  C20 UNL     1      21.502   3.741  50.179  1.00  0.00     0.194 C 
HETATM   31  C21 UNL     1      22.262   5.011  49.874  1.00  0.00     0.201 C 
HETATM   32  O4  UNL     1      23.635   4.692  49.832  1.00  0.00    -0.350 OA
ENDBRANCH  17  27
ENDBRANCH  10  12
ENDBRANCH   7  10
TORSDOF 7
ENDMDL
MODEL 4
REMARK VINA RESULT:      -7.6      2.802      8.624
REMARK  7 active torsions:
REMARK  status: ('A' for Active; 'I' for Inactive)
REMARK    1  A    between atoms: C6_7  and  N2_8 
REMARK    2  A    between atoms: N2_8  and  C7_9 
REMARK    3  A    between atoms: C9_13  and  C10_14 
REMARK    4  A    between atoms: C10_14  and  C11_15 
REMARK    5  A    between atoms: C11_15  and  O1_16 
REMARK    6  A    between atoms: O1_16  and  C12_17 
REMARK    7  A    between atoms: C17_23  and  C18_24 
ROOT
HETATM    1  C1  UNL     1      15.096  -1.704  50.975  1.00  0.00     0.018 C 
HETATM    2  C2  UNL     1      15.933  -0.868  50.749  1.00  0.00    -0.076 C 
HETATM    3  C3  UNL     1      16.921   0.141  50.499  1.00  0.00     0.033 A 
HETATM    4  C4  UNL     1      16.774   0.825  49.380  1.00  0.00     0.104 A 
HETATM    5  N1  UNL     1      17.790   1.812  49.197  1.00  0.00    -0.392 N 
HETATM    6  C5  UNL     1      18.918   2.185  49.984  1.00  0.00     0.176 A 
HETATM    7  C6  UNL     1      18.985   1.357  51.215  1.00  0.00     0.030 A 
HETATM    8  C22 UNL     1      18.035   0.419  51.410  1.00  0.00     0.048 A 
HETATM    9  H3  UNL     1      17.733   2.407  48.322  1.00  0.00     0.159 HD
ENDROOT
BRANCH   7  10
HETATM   10  N2  UNL     1      19.875   1.307  52.328  1.00  0.00    -0.342 N 
HETATM   11  H6  UNL     1      19.665   2.172  52.908  1.00  0.00     0.167 HD
BRANCH  10  12
HETATM   12  C7  UNL     1      20.878   0.459  52.821  1.00  0.00     0.144 A 
HETATM   13  N3  UNL     1      20.236  -0.491  53.499  1.00  0.00    -0.223 NA
HETATM   14  C8  UNL     1      20.783  -1.506  54.165  1.00  0.00     0.236 A 
HETATM   15  N4  UNL     1      22.099  -1.462  54.075  1.00  0.00    -0.241 NA
HETATM   16  C9  UNL     1      22.882  -0.576  53.438  1.00  0.00     0.073 A 
HETATM   17  C17 UNL     1      22.231   0.440  52.773  1.00  0.00     0.070 A 
BRANCH  16  18
HETATM   18  C10 UNL     1      24.216  -0.693  53.458  1.00  0.00     0.032 C 
BRANCH  18  19
HETATM   19  C11 UNL     1      25.632  -0.760  53.643  1.00  0.00     0.198 C 
BRANCH  19  20
HETATM   20  O1  UNL     1      26.171  -0.426  54.843  1.00  0.00    -0.382 OA
BRANCH  20  21
HETATM   21  C12 UNL     1      27.094   0.573  54.903  1.00  0.00     0.125 C 
HETATM   22  C13 UNL     1      28.415   0.191  54.272  1.00  0.00     0.058 C 
HETATM   23  C14 UNL     1      29.224   1.446  54.089  1.00  0.00     0.170 C 
HETATM   24  O2  UNL     1      28.706   2.143  53.001  1.00  0.00    -0.391 OA
HETATM   25  C15 UNL     1      27.394   1.815  52.724  1.00  0.00     0.170 C 
HETATM   26  C16 UNL     1      26.554   1.685  53.984  1.00  0.00     0.058 C 
ENDBRANCH  20  21
ENDBRANCH  19  20
ENDBRANCH  18  19
ENDBRANCH  16  18
BRANCH  17  27
HETATM   27  C18 UNL     1      22.817   1.364  52.044  1.00  0.00     0.086 C 
HETATM   28  C19 UNL     1      22.971   1.682  50.614  1.00  0.00     0.233 C 
HETATM   29  O3  UNL     1      22.175   2.757  50.222  1.00  0.00    -0.383 OA
HETATM   30  C20 UNL     1      22.058   3.693  51.243  1.00  0.00     0.194 C 
HETATM   31  C21 UNL     1      23.290   3.725  52.116  1.00  0.00     0.201 C 
HETATM   32  O4  UNL     1      23.530   2.410  52.571  1.00  0.00    -0.350 OA
ENDBRANCH  17  27
ENDBRANCH  10  12
ENDBRANCH   7  10
TORSDOF 7
ENDMDL
MODEL 5
REMARK VINA RESULT:      -7.4      2.317      3.880
REMARK  7 active torsions:
REMARK  status: ('A' for Active; 'I' for Inactive)
REMARK    1  A    between atoms: C6_7  and  N2_8 
REMARK    2  A    between atoms: N2_8  and  C7_9 
REMARK    3  A    between atoms: C9_13  and  C10_14 
REMARK    4  A    between atoms: C10_14  and  C11_15 
REMARK    5  A    between atoms: C11_15  and  O1_16 
REMARK    6  A    between atoms: O1_16  and  C12_17 
REMARK    7  A    between atoms: C17_23  and  C18_24 
ROOT
HETATM    1  C1  UNL     1      26.734   0.259  52.208  1.00  0.00     0.018 C 
HETATM    2  C2  UNL     1      25.745  -0.061  52.817  1.00  0.00    -0.076 C 
HETATM    3  C3  UNL     1      24.562  -0.418  53.543  1.00  0.00     0.033 A 
HETATM    4  C4  UNL     1      24.755  -0.906  54.755  1.00  0.00     0.104 A 
HETATM    5  N1  UNL     1      23.536  -1.236  55.420  1.00  0.00    -0.392 N 
HETATM    6  C5  UNL     1      22.171  -1.144  55.022  1.00  0.00     0.176 A 
HETATM    7  C6  UNL     1      22.069  -0.584  53.651  1.00  0.00     0.030 A 
HETATM    8  C22 UNL     1      23.208  -0.262  53.003  1.00  0.00     0.048 A 
HETATM    9  H3  UNL     1      23.613  -1.629  56.402  1.00  0.00     0.159 HD
ENDROOT
BRANCH   7  10
HETATM   10  N2  UNL     1      20.979  -0.277  52.785  1.00  0.00    -0.342 N 
HETATM   11  H6  UNL     1      21.405   0.196  51.934  1.00  0.00     0.167 HD
BRANCH  10  12
HETATM   12  C7  UNL     1      19.585  -0.440  52.768  1.00  0.00     0.144 A 
HETATM   13  N3  UNL     1      19.352  -1.554  53.461  1.00  0.00    -0.223 NA
HETATM   14  C8  UNL     1      18.169  -2.119  53.691  1.00  0.00     0.236 A 
HETATM   15  N4  UNL     1      17.204  -1.418  53.125  1.00  0.00    -0.241 NA
HETATM   16  C9  UNL     1      17.281  -0.288  52.402  1.00  0.00     0.073 A 
HETATM   17  C17 UNL     1      18.545   0.228  52.216  1.00  0.00     0.070 A 
BRANCH  16  18
HETATM   18  C10 UNL     1      16.180   0.288  51.902  1.00  0.00     0.032 C 
BRANCH  18  19
HETATM   19  C11 UNL     1      14.918   0.766  51.431  1.00  0.00     0.198 C 
BRANCH  19  20
HETATM   20  O1  UNL     1      14.632   2.091  51.502  1.00  0.00    -0.382 OA
BRANCH  20  21
HETATM   21  C12 UNL     1      14.339   2.645  52.711  1.00  0.00     0.125 C 
HETATM   22  C13 UNL     1      13.726   4.023  52.592  1.00  0.00     0.058 C 
HETATM   23  C14 UNL     1      13.139   4.388  53.928  1.00  0.00     0.170 C 
HETATM   24  O2  UNL     1      11.951   3.681  54.090  1.00  0.00    -0.391 OA
HETATM   25  C15 UNL     1      11.887   2.546  53.308  1.00  0.00     0.170 C 
HETATM   26  C16 UNL     1      13.202   1.783  53.291  1.00  0.00     0.058 C 
ENDBRANCH  20  21
ENDBRANCH  19  20
ENDBRANCH  18  19
ENDBRANCH  16  18
BRANCH  17  27
HETATM   27  C18 UNL     1      18.819   1.352  51.593  1.00  0.00     0.086 C 
HETATM   28  C19 UNL     1      18.353   2.749  51.620  1.00  0.00     0.233 C 
HETATM   29  O3  UNL     1      19.264   3.598  52.248  1.00  0.00    -0.383 OA
HETATM   30  C20 UNL     1      20.573   3.193  52.009  1.00  0.00     0.194 C 
HETATM   31  C21 UNL     1      20.713   2.516  50.666  1.00  0.00     0.201 C 
HETATM   32  O4  UNL     1      19.772   1.466  50.613  1.00  0.00    -0.350 OA
ENDBRANCH  17  27
ENDBRANCH  10  12
ENDBRANCH   7  10
TORSDOF 7
ENDMDL
MODEL 6
REMARK VINA RESULT:      -7.3      8.233     12.281
REMARK  7 active torsions:
REMARK  status: ('A' for Active; 'I' for Inactive)
REMARK    1  A    between atoms: C6_7  and  N2_8 
REMARK    2  A    between atoms: N2_8  and  C7_9 
REMARK    3  A    between atoms: C9_13  and  C10_14 
REMARK    4  A    between atoms: C10_14  and  C11_15 
REMARK    5  A    between atoms: C11_15  and  O1_16 
REMARK    6  A    between atoms: O1_16  and  C12_17 
REMARK    7  A    between atoms: C17_23  and  C18_24 
ROOT
HETATM    1  C1  UNL     1      26.947  -0.327  52.301  1.00  0.00     0.018 C 
HETATM    2  C2  UNL     1      26.487   0.741  51.985  1.00  0.00    -0.076 C 
HETATM    3  C3  UNL     1      25.962   2.022  51.616  1.00  0.00     0.033 A 
HETATM    4  C4  UNL     1      24.987   2.486  52.377  1.00  0.00     0.104 A 
HETATM    5  N1  UNL     1      24.514   3.765  51.953  1.00  0.00    -0.392 N 
HETATM    6  C5  UNL     1      24.889   4.617  50.875  1.00  0.00     0.176 A 
HETATM    7  C6  UNL     1      25.989   4.002  50.089  1.00  0.00     0.030 A 
HETATM    8  C22 UNL     1      26.454   2.795  50.471  1.00  0.00     0.048 A 
HETATM    9  H3  UNL     1      23.735   4.204  52.522  1.00  0.00     0.159 HD
ENDROOT
BRANCH   7  10
HETATM   10  N2  UNL     1      26.733   4.407  48.942  1.00  0.00    -0.342 N 
HETATM   11  H6  UNL     1      26.561   3.662  48.204  1.00  0.00     0.167 HD
BRANCH  10  12
HETATM   12  C7  UNL     1      27.566   5.471  48.564  1.00  0.00     0.144 A 
HETATM   13  N3  UNL     1      28.775   4.933  48.403  1.00  0.00    -0.223 NA
HETATM   14  C8  UNL     1      29.895   5.571  48.069  1.00  0.00     0.236 A 
HETATM   15  N4  UNL     1      29.662   6.860  47.908  1.00  0.00    -0.241 NA
HETATM   16  C9  UNL     1      28.512   7.543  48.037  1.00  0.00     0.073 A 
HETATM   17  C17 UNL     1      27.403   6.803  48.383  1.00  0.00     0.070 A 
BRANCH  16  18
HETATM   18  C10 UNL     1      28.468   8.865  47.833  1.00  0.00     0.032 C 
BRANCH  18  19
HETATM   19  C11 UNL     1      28.527  10.292  47.752  1.00  0.00     0.198 C 
BRANCH  19  20
HETATM   20  O1  UNL     1      29.324  10.982  48.606  1.00  0.00    -0.382 OA
BRANCH  20  21
HETATM   21  C12 UNL     1      29.602  12.290  48.348  1.00  0.00     0.125 C 
HETATM   22  C13 UNL     1      29.237  12.701  46.939  1.00  0.00     0.058 C 
HETATM   23  C14 UNL     1      29.260  14.204  46.871  1.00  0.00     0.170 C 
HETATM   24  O2  UNL     1      28.114  14.686  47.496  1.00  0.00    -0.391 OA
HETATM   25  C15 UNL     1      27.569  13.789  48.391  1.00  0.00     0.170 C 
HETATM   26  C16 UNL     1      28.630  13.096  49.231  1.00  0.00     0.058 C 
ENDBRANCH  20  21
ENDBRANCH  19  20
ENDBRANCH  18  19
ENDBRANCH  16  18
BRANCH  17  27
HETATM   27  C18 UNL     1      26.183   7.277  48.496  1.00  0.00     0.086 C 
HETATM   28  C19 UNL     1      25.475   8.264  49.329  1.00  0.00     0.233 C 
HETATM   29  O3  UNL     1      25.204   9.443  48.636  1.00  0.00    -0.383 OA
HETATM   30  C20 UNL     1      24.937   9.187  47.295  1.00  0.00     0.194 C 
HETATM   31  C21 UNL     1      24.299   7.832  47.101  1.00  0.00     0.201 C 
HETATM   32  O4  UNL     1      25.133   6.871  47.712  1.00  0.00    -0.350 OA
ENDBRANCH  17  27
ENDBRANCH  10  12
ENDBRANCH   7  10
TORSDOF 7
ENDMDL
MODEL 7
REMARK VINA RESULT:      -7.3      6.698     10.460
REMARK  7 active torsions:
REMARK  status: ('A' for Active; 'I' for Inactive)
REMARK    1  A    between atoms: C6_7  and  N2_8 
REMARK    2  A    between atoms: N2_8  and  C7_9 
REMARK    3  A    between atoms: C9_13  and  C10_14 
REMARK    4  A    between atoms: C10_14  and  C11_15 
REMARK    5  A    between atoms: C11_15  and  O1_16 
REMARK    6  A    between atoms: O1_16  and  C12_17 
REMARK    7  A    between atoms: C17_23  and  C18_24 
ROOT
HETATM    1  C1  UNL     1      23.288   7.787  42.784  1.00  0.00     0.018 C 
HETATM    2  C2  UNL     1      24.126   8.277  43.497  1.00  0.00    -0.076 C 
HETATM    3  C3  UNL     1      25.106   8.868  44.360  1.00  0.00     0.033 A 
HETATM    4  C4  UNL     1      25.745   9.916  43.873  1.00  0.00     0.104 A 
HETATM    5  N1  UNL     1      26.702  10.455  44.785  1.00  0.00    -0.392 N 
HETATM    6  C5  UNL     1      27.095  10.072  46.100  1.00  0.00     0.176 A 
HETATM    7  C6  UNL     1      26.316   8.889  46.547  1.00  0.00     0.030 A 
HETATM    8  C22 UNL     1      25.404   8.364  45.704  1.00  0.00     0.048 A 
HETATM    9  H3  UNL     1      27.250  11.304  44.465  1.00  0.00     0.159 HD
ENDROOT
BRANCH   7  10
HETATM   10  N2  UNL     1      26.294   8.113  47.744  1.00  0.00    -0.342 N 
HETATM   11  H6  UNL     1      25.717   8.669  48.441  1.00  0.00     0.167 HD
BRANCH  10  12
HETATM   12  C7  UNL     1      26.795   6.883  48.196  1.00  0.00     0.144 A 
HETATM   13  N3  UNL     1      28.076   6.867  47.828  1.00  0.00    -0.223 NA
HETATM   14  C8  UNL     1      28.951   5.882  48.023  1.00  0.00     0.236 A 
HETATM   15  N4  UNL     1      28.378   4.873  48.651  1.00  0.00    -0.241 NA
HETATM   16  C9  UNL     1      27.112   4.741  49.079  1.00  0.00     0.073 A 
HETATM   17  C17 UNL     1      26.276   5.810  48.837  1.00  0.00     0.070 A 
BRANCH  16  18
HETATM   18  C10 UNL     1      26.706   3.629  49.704  1.00  0.00     0.032 C 
BRANCH  18  19
HETATM   19  C11 UNL     1      26.438   2.420  50.420  1.00  0.00     0.198 C 
BRANCH  19  20
HETATM   20  O1  UNL     1      26.232   2.465  51.761  1.00  0.00    -0.382 OA
BRANCH  20  21
HETATM   21  C12 UNL     1      25.813   1.342  52.408  1.00  0.00     0.125 C 
HETATM   22  C13 UNL     1      26.614   0.114  52.031  1.00  0.00     0.058 C 
HETATM   23  C14 UNL     1      26.306  -0.967  53.030  1.00  0.00     0.170 C 
HETATM   24  O2  UNL     1      26.982  -0.674  54.211  1.00  0.00    -0.391 OA
HETATM   25  C15 UNL     1      27.301   0.663  54.333  1.00  0.00     0.170 C 
HETATM   26  C16 UNL     1      26.164   1.570  53.890  1.00  0.00     0.058 C 
ENDBRANCH  20  21
ENDBRANCH  19  20
ENDBRANCH  18  19
ENDBRANCH  16  18
BRANCH  17  27
HETATM   27  C18 UNL     1      25.025   5.896  49.232  1.00  0.00     0.086 C 
HETATM   28  C19 UNL     1      23.779   5.128  49.064  1.00  0.00     0.233 C 
HETATM   29  O3  UNL     1      23.443   4.410  50.211  1.00  0.00    -0.383 OA
HETATM   30  C20 UNL     1      23.811   5.100  51.361  1.00  0.00     0.194 C 
HETATM   31  C21 UNL     1      23.757   6.595  51.156  1.00  0.00     0.201 C 
HETATM   32  O4  UNL     1      24.545   6.904  50.028  1.00  0.00    -0.350 OA
ENDBRANCH  17  27
ENDBRANCH  10  12
ENDBRANCH   7  10
TORSDOF 7
ENDMDL
MODEL 8
REMARK VINA RESULT:      -7.2      3.766      8.877
REMARK  7 active torsions:
REMARK  status: ('A' for Active; 'I' for Inactive)
REMARK    1  A    between atoms: C6_7  and  N2_8 
REMARK    2  A    between atoms: N2_8  and  C7_9 
REMARK    3  A    between atoms: C9_13  and  C10_14 
REMARK    4  A    between atoms: C10_14  and  C11_15 
REMARK    5  A    between atoms: C11_15  and  O1_16 
REMARK    6  A    between atoms: O1_16  and  C12_17 
REMARK    7  A    between atoms: C17_23  and  C18_24 
ROOT
HETATM    1  C1  UNL     1      19.985   8.991  50.045  1.00  0.00     0.018 C 
HETATM    2  C2  UNL     1      20.533   8.060  49.512  1.00  0.00    -0.076 C 
HETATM    3  C3  UNL     1      21.204   6.955  48.891  1.00  0.00     0.033 A 
HETATM    4  C4  UNL     1      21.574   7.138  47.637  1.00  0.00     0.104 A 
HETATM    5  N1  UNL     1      22.237   6.000  47.084  1.00  0.00    -0.392 N 
HETATM    6  C5  UNL     1      22.563   4.723  47.625  1.00  0.00     0.176 A 
HETATM    7  C6  UNL     1      22.105   4.628  49.034  1.00  0.00     0.030 A 
HETATM    8  C22 UNL     1      21.478   5.690  49.579  1.00  0.00     0.048 A 
HETATM    9  H3  UNL     1      22.569   6.076  46.080  1.00  0.00     0.159 HD
ENDROOT
BRANCH   7  10
HETATM   10  N2  UNL     1      22.173   3.610  50.031  1.00  0.00    -0.342 N 
HETATM   11  H6  UNL     1      21.169   3.321  50.223  1.00  0.00     0.167 HD
BRANCH  10  12
HETATM   12  C7  UNL     1      23.162   2.933  50.762  1.00  0.00     0.144 A 
HETATM   13  N3  UNL     1      24.308   3.535  50.444  1.00  0.00    -0.223 NA
HETATM   14  C8  UNL     1      25.525   3.215  50.880  1.00  0.00     0.236 A 
HETATM   15  N4  UNL     1      25.466   2.183  51.701  1.00  0.00    -0.241 NA
HETATM   16  C9  UNL     1      24.398   1.478  52.110  1.00  0.00     0.073 A 
HETATM   17  C17 UNL     1      23.178   1.879  51.611  1.00  0.00     0.070 A 
BRANCH  16  18
HETATM   18  C10 UNL     1      24.533   0.449  52.957  1.00  0.00     0.032 C 
BRANCH  18  19
HETATM   19  C11 UNL     1      24.845  -0.652  53.814  1.00  0.00     0.198 C 
BRANCH  19  20
HETATM   20  O1  UNL     1      26.105  -0.793  54.298  1.00  0.00    -0.382 OA
BRANCH  20  21
HETATM   21  C12 UNL     1      27.124  -0.106  53.711  1.00  0.00     0.125 C 
HETATM   22  C13 UNL     1      28.138   0.407  54.709  1.00  0.00     0.058 C 
HETATM   23  C14 UNL     1      29.363   0.838  53.950  1.00  0.00     0.170 C 
HETATM   24  O2  UNL     1      30.060  -0.304  53.564  1.00  0.00    -0.391 OA
HETATM   25  C15 UNL     1      29.265  -1.431  53.517  1.00  0.00     0.170 C 
HETATM   26  C16 UNL     1      27.906  -1.153  52.895  1.00  0.00     0.058 C 
ENDBRANCH  20  21
ENDBRANCH  19  20
ENDBRANCH  18  19
ENDBRANCH  16  18
BRANCH  17  27
HETATM   27  C18 UNL     1      22.018   1.357  51.939  1.00  0.00     0.086 C 
HETATM   28  C19 UNL     1      21.178   1.249  53.145  1.00  0.00     0.233 C 
HETATM   29  O3  UNL     1      20.080   2.108  53.103  1.00  0.00    -0.383 OA
HETATM   30  C20 UNL     1      19.604   2.251  51.805  1.00  0.00     0.194 C 
HETATM   31  C21 UNL     1      19.835   1.004  50.985  1.00  0.00     0.201 C 
HETATM   32  O4  UNL     1      21.208   0.688  51.058  1.00  0.00    -0.350 OA
ENDBRANCH  17  27
ENDBRANCH  10  12
ENDBRANCH   7  10
TORSDOF 7
ENDMDL
MODEL 9
REMARK VINA RESULT:      -7.2      2.874      8.971
REMARK  7 active torsions:
REMARK  status: ('A' for Active; 'I' for Inactive)
REMARK    1  A    between atoms: C6_7  and  N2_8 
REMARK    2  A    between atoms: N2_8  and  C7_9 
REMARK    3  A    between atoms: C9_13  and  C10_14 
REMARK    4  A    between atoms: C10_14  and  C11_15 
REMARK    5  A    between atoms: C11_15  and  O1_16 
REMARK    6  A    between atoms: O1_16  and  C12_17 
REMARK    7  A    between atoms: C17_23  and  C18_24 
ROOT
HETATM    1  C1  UNL     1      15.161  -0.495  46.683  1.00  0.00     0.018 C 
HETATM    2  C2  UNL     1      15.334  -0.716  47.855  1.00  0.00    -0.076 C 
HETATM    3  C3  UNL     1      15.562  -0.991  49.243  1.00  0.00     0.033 A 
HETATM    4  C4  UNL     1      14.762  -1.886  49.792  1.00  0.00     0.104 A 
HETATM    5  N1  UNL     1      15.047  -2.111  51.173  1.00  0.00    -0.392 N 
HETATM    6  C5  UNL     1      16.016  -1.552  52.056  1.00  0.00     0.176 A 
HETATM    7  C6  UNL     1      16.859  -0.563  51.338  1.00  0.00     0.030 A 
HETATM    8  C22 UNL     1      16.610  -0.336  50.032  1.00  0.00     0.048 A 
HETATM    9  H3  UNL     1      14.447  -2.823  51.680  1.00  0.00     0.159 HD
ENDROOT
BRANCH   7  10
HETATM   10  N2  UNL     1      17.954   0.267  51.719  1.00  0.00    -0.342 N 
HETATM   11  H6  UNL     1      17.618   1.267  51.598  1.00  0.00     0.167 HD
BRANCH  10  12
HETATM   12  C7  UNL     1      19.266   0.107  52.191  1.00  0.00     0.144 A 
HETATM   13  N3  UNL     1      19.177  -0.769  53.191  1.00  0.00    -0.223 NA
HETATM   14  C8  UNL     1      20.172  -1.209  53.958  1.00  0.00     0.236 A 
HETATM   15  N4  UNL     1      21.314  -0.651  53.600  1.00  0.00    -0.241 NA
HETATM   16  C9  UNL     1      21.559   0.241  52.627  1.00  0.00     0.073 A 
HETATM   17  C17 UNL     1      20.471   0.640  51.880  1.00  0.00     0.070 A 
BRANCH  16  18
HETATM   18  C10 UNL     1      22.797   0.702  52.409  1.00  0.00     0.032 C 
BRANCH  18  19
HETATM   19  C11 UNL     1      24.092   1.302  52.310  1.00  0.00     0.198 C 
BRANCH  19  20
HETATM   20  O1  UNL     1      24.974   1.170  53.332  1.00  0.00    -0.382 OA
BRANCH  20  21
HETATM   21  C12 UNL     1      25.621  -0.015  53.505  1.00  0.00     0.125 C 
HETATM   22  C13 UNL     1      26.718  -0.240  52.488  1.00  0.00     0.058 C 
HETATM   23  C14 UNL     1      27.572  -1.382  52.967  1.00  0.00     0.170 C 
HETATM   24  O2  UNL     1      28.382  -0.917  53.999  1.00  0.00    -0.391 OA
HETATM   25  C15 UNL     1      27.879   0.210  54.615  1.00  0.00     0.170 C 
HETATM   26  C16 UNL     1      26.378   0.123  54.840  1.00  0.00     0.058 C 
ENDBRANCH  20  21
ENDBRANCH  19  20
ENDBRANCH  18  19
ENDBRANCH  16  18
BRANCH  17  27
HETATM   27  C18 UNL     1      20.518   1.454  50.850  1.00  0.00     0.086 C 
HETATM   28  C19 UNL     1      20.771   2.885  50.609  1.00  0.00     0.233 C 
HETATM   29  O3  UNL     1      22.032   3.114  50.060  1.00  0.00    -0.383 OA
HETATM   30  C20 UNL     1      22.404   2.080  49.208  1.00  0.00     0.194 C 
HETATM   31  C21 UNL     1      21.205   1.447  48.542  1.00  0.00     0.201 C 
HETATM   32  O4  UNL     1      20.304   1.057  49.555  1.00  0.00    -0.350 OA
ENDBRANCH  17  27
ENDBRANCH  10  12
ENDBRANCH   7  10
TORSDOF 7
ENDMDL
