MODEL 1
REMARK VINA RESULT:      -9.3      0.000      0.000
REMARK  8 active torsions:
REMARK  status: ('A' for Active; 'I' for Inactive)
REMARK    1  A    between atoms: C2_2  and  O1_3 
REMARK    2  A    between atoms: O1_3  and  C3_4 
REMARK    3  A    between atoms: C9_12  and  N3_13 
REMARK    4  A    between atoms: C12_16  and  N4_17 
REMARK       I    between atoms: N4_17  and  C13_18 
REMARK    5  A    between atoms: C13_18  and  C14_20 
REMARK    6  A    between atoms: C14_20  and  C15_21 
REMARK    7  A    between atoms: C15_21  and  C16_22 
REMARK    8  A    between atoms: C16_22  and  N5_23 
ROOT
HETATM    1  C3  UNL     1      27.210   0.963  53.073  1.00  0.00     0.097 A 
HETATM    2  C4  UNL     1      26.749   0.206  54.137  1.00  0.00     0.071 A 
HETATM    3  C5  UNL     1      25.428  -0.215  54.215  1.00  0.00     0.071 A 
HETATM    4  N1  UNL     1      25.044  -0.955  55.285  1.00  0.00    -0.259 NA
HETATM    5  C6  UNL     1      23.784  -1.380  55.401  1.00  0.00     0.142 A 
HETATM    6  C7  UNL     1      22.871  -1.051  54.403  1.00  0.00     0.089 A 
HETATM    7  C8  UNL     1      21.507  -1.479  54.474  1.00  0.00     0.103 C 
HETATM    8  N2  UNL     1      20.393  -1.838  54.551  1.00  0.00    -0.191 NA
HETATM    9  C9  UNL     1      23.288  -0.299  53.331  1.00  0.00     0.061 A 
HETATM   10  C10 UNL     1      24.577   0.159  53.175  1.00  0.00     0.023 A 
HETATM   11  C11 UNL     1      25.038   0.914  52.116  1.00  0.00     0.048 A 
HETATM   12  C12 UNL     1      26.348   1.328  52.039  1.00  0.00     0.069 A 
ENDROOT
BRANCH   9  13
HETATM   13  N3  UNL     1      22.354   0.046  52.299  1.00  0.00    -0.397 N 
HETATM   14  H8  UNL     1      21.506  -0.435  51.877  1.00  0.00     0.156 HD
HETATM   15  H9  UNL     1      22.167   0.830  51.632  1.00  0.00     0.156 HD
ENDBRANCH   9  13
BRANCH  12  16
HETATM   16  N4  UNL     1      26.746   2.102  50.917  1.00  0.00    -0.321 N 
HETATM   17  C13 UNL     1      26.104   3.294  50.497  1.00  0.00     0.245 C 
HETATM   18  O2  UNL     1      25.131   3.975  50.890  1.00  0.00    -0.268 OA
HETATM   19  H11 UNL     1      27.558   1.725  50.413  1.00  0.00     0.169 HD
BRANCH  17  20
HETATM   20  C14 UNL     1      26.668   3.936  49.320  1.00  0.00     0.072 C 
BRANCH  20  21
HETATM   21  C15 UNL     1      27.262   4.997  48.814  1.00  0.00    -0.002 C 
BRANCH  21  22
HETATM   22  C16 UNL     1      27.519   6.409  48.441  1.00  0.00     0.144 C 
BRANCH  22  23
HETATM   23  N5  UNL     1      28.842   6.732  48.174  1.00  0.00    -0.405 N 
HETATM   24  C17 UNL     1      29.494   7.886  48.481  1.00  0.00     0.143 C 
HETATM   25  C18 UNL     1      29.075   9.228  47.921  1.00  0.00     0.187 C 
HETATM   26  O3  UNL     1      30.331   9.964  48.272  1.00  0.00    -0.387 OA
HETATM   27  C19 UNL     1      31.197   9.385  47.328  1.00  0.00     0.193 C 
HETATM   28  C20 UNL     1      32.636   9.310  47.481  1.00  0.00     0.193 C 
HETATM   29  O4  UNL     1      33.237   8.676  46.387  1.00  0.00    -0.387 OA
HETATM   30  C21 UNL     1      32.831   7.452  46.016  1.00  0.00     0.193 C 
HETATM   31  C22 UNL     1      32.911   6.291  46.934  1.00  0.00     0.193 C 
HETATM   32  O5  UNL     1      32.216   6.298  48.070  1.00  0.00    -0.387 OA
HETATM   33  C23 UNL     1      31.132   5.691  48.425  1.00  0.00     0.187 C 
HETATM   34  C24 UNL     1      29.741   5.592  48.093  1.00  0.00     0.143 C 
ENDBRANCH  22  23
ENDBRANCH  21  22
ENDBRANCH  20  21
ENDBRANCH  17  20
ENDBRANCH  12  16
BRANCH   1  35
HETATM   35  O1  UNL     1      28.547   1.388  52.992  1.00  0.00    -0.349 OA
BRANCH  35  36
HETATM   36  C2  UNL     1      29.458   0.871  53.947  1.00  0.00     0.171 C 
HETATM   37  C1  UNL     1      30.091  -0.406  53.457  1.00  0.00     0.034 C 
ENDBRANCH  35  36
ENDBRANCH   1  35
TORSDOF 8
ENDMDL
MODEL 2
REMARK VINA RESULT:      -9.3      1.338      2.477
REMARK  8 active torsions:
REMARK  status: ('A' for Active; 'I' for Inactive)
REMARK    1  A    between atoms: C2_2  and  O1_3 
REMARK    2  A    between atoms: O1_3  and  C3_4 
REMARK    3  A    between atoms: C9_12  and  N3_13 
REMARK    4  A    between atoms: C12_16  and  N4_17 
REMARK       I    between atoms: N4_17  and  C13_18 
REMARK    5  A    between atoms: C13_18  and  C14_20 
REMARK    6  A    between atoms: C14_20  and  C15_21 
REMARK    7  A    between atoms: C15_21  and  C16_22 
REMARK    8  A    between atoms: C16_22  and  N5_23 
ROOT
HETATM    1  C3  UNL     1      27.184   1.016  53.005  1.00  0.00     0.097 A 
HETATM    2  C4  UNL     1      26.734   0.257  54.072  1.00  0.00     0.071 A 
HETATM    3  C5  UNL     1      25.415  -0.167  54.162  1.00  0.00     0.071 A 
HETATM    4  N1  UNL     1      25.042  -0.908  55.234  1.00  0.00    -0.259 NA
HETATM    5  C6  UNL     1      23.784  -1.337  55.360  1.00  0.00     0.142 A 
HETATM    6  C7  UNL     1      22.862  -1.010  54.371  1.00  0.00     0.089 A 
HETATM    7  C8  UNL     1      21.499  -1.442  54.453  1.00  0.00     0.103 C 
HETATM    8  N2  UNL     1      20.387  -1.803  54.539  1.00  0.00    -0.191 NA
HETATM    9  C9  UNL     1      23.268  -0.257  53.296  1.00  0.00     0.061 A 
HETATM   10  C10 UNL     1      24.554   0.206  53.128  1.00  0.00     0.023 A 
HETATM   11  C11 UNL     1      25.004   0.962  52.067  1.00  0.00     0.048 A 
HETATM   12  C12 UNL     1      26.312   1.380  51.978  1.00  0.00     0.069 A 
ENDROOT
BRANCH   9  13
HETATM   13  N3  UNL     1      22.324   0.087  52.271  1.00  0.00    -0.397 N 
HETATM   14  H8  UNL     1      22.402   0.296  51.234  1.00  0.00     0.156 HD
HETATM   15  H9  UNL     1      21.295   0.245  52.165  1.00  0.00     0.156 HD
ENDBRANCH   9  13
BRANCH  12  16
HETATM   16  N4  UNL     1      26.698   2.155  50.853  1.00  0.00    -0.321 N 
HETATM   17  C13 UNL     1      26.089   3.378  50.475  1.00  0.00     0.245 C 
HETATM   18  O2  UNL     1      25.160   4.090  50.914  1.00  0.00    -0.268 OA
HETATM   19  H11 UNL     1      27.476   1.755  50.314  1.00  0.00     0.169 HD
BRANCH  17  20
HETATM   20  C14 UNL     1      26.634   4.016  49.287  1.00  0.00     0.072 C 
BRANCH  20  21
HETATM   21  C15 UNL     1      27.525   4.847  48.786  1.00  0.00    -0.002 C 
BRANCH  21  22
HETATM   22  C16 UNL     1      28.828   5.394  48.338  1.00  0.00     0.144 C 
BRANCH  22  23
HETATM   23  N5  UNL     1      28.894   6.774  48.216  1.00  0.00    -0.405 N 
HETATM   24  C17 UNL     1      30.009   7.548  48.108  1.00  0.00     0.143 C 
HETATM   25  C18 UNL     1      31.059   7.613  49.195  1.00  0.00     0.187 C 
HETATM   26  O3  UNL     1      31.750   8.844  48.696  1.00  0.00    -0.387 OA
HETATM   27  C19 UNL     1      30.769   9.796  49.024  1.00  0.00     0.193 C 
HETATM   28  C20 UNL     1      30.623  11.077  48.361  1.00  0.00     0.193 C 
HETATM   29  O4  UNL     1      29.559  11.813  48.895  1.00  0.00    -0.387 OA
HETATM   30  C21 UNL     1      28.332  11.272  48.949  1.00  0.00     0.193 C 
HETATM   31  C22 UNL     1      27.619  10.827  47.728  1.00  0.00     0.193 C 
HETATM   32  O5  UNL     1      28.135   9.854  46.981  1.00  0.00    -0.387 OA
HETATM   33  C23 UNL     1      27.821   8.607  46.845  1.00  0.00     0.187 C 
HETATM   34  C24 UNL     1      27.733   7.385  47.589  1.00  0.00     0.143 C 
ENDBRANCH  22  23
ENDBRANCH  21  22
ENDBRANCH  20  21
ENDBRANCH  17  20
ENDBRANCH  12  16
BRANCH   1  35
HETATM   35  O1  UNL     1      28.519   1.445  52.913  1.00  0.00    -0.349 OA
BRANCH  35  36
HETATM   36  C2  UNL     1      29.419   1.006  53.915  1.00  0.00     0.171 C 
HETATM   37  C1  UNL     1      30.124  -0.259  53.496  1.00  0.00     0.034 C 
ENDBRANCH  35  36
ENDBRANCH   1  35
TORSDOF 8
ENDMDL
MODEL 3
REMARK VINA RESULT:      -9.1      1.479      1.909
REMARK  8 active torsions:
REMARK  status: ('A' for Active; 'I' for Inactive)
REMARK    1  A    between atoms: C2_2  and  O1_3 
REMARK    2  A    between atoms: O1_3  and  C3_4 
REMARK    3  A    between atoms: C9_12  and  N3_13 
REMARK    4  A    between atoms: C12_16  and  N4_17 
REMARK       I    between atoms: N4_17  and  C13_18 
REMARK    5  A    between atoms: C13_18  and  C14_20 
REMARK    6  A    between atoms: C14_20  and  C15_21 
REMARK    7  A    between atoms: C15_21  and  C16_22 
REMARK    8  A    between atoms: C16_22  and  N5_23 
ROOT
HETATM    1  C3  UNL     1      27.073   1.429  52.870  1.00  0.00     0.097 A 
HETATM    2  C4  UNL     1      26.475   0.498  53.702  1.00  0.00     0.071 A 
HETATM    3  C5  UNL     1      25.108   0.256  53.663  1.00  0.00     0.071 A 
HETATM    4  N1  UNL     1      24.588  -0.672  54.506  1.00  0.00    -0.259 NA
HETATM    5  C6  UNL     1      23.279  -0.936  54.502  1.00  0.00     0.142 A 
HETATM    6  C7  UNL     1      22.458  -0.243  53.618  1.00  0.00     0.089 A 
HETATM    7  C8  UNL     1      21.048  -0.485  53.570  1.00  0.00     0.103 C 
HETATM    8  N2  UNL     1      19.894  -0.696  53.547  1.00  0.00    -0.191 NA
HETATM    9  C9  UNL     1      23.012   0.691  52.777  1.00  0.00     0.061 A 
HETATM   10  C10 UNL     1      24.355   0.994  52.749  1.00  0.00     0.023 A 
HETATM   11  C11 UNL     1      24.952   1.921  51.922  1.00  0.00     0.048 A 
HETATM   12  C12 UNL     1      26.307   2.159  51.960  1.00  0.00     0.069 A 
ENDROOT
BRANCH   9  13
HETATM   13  N3  UNL     1      22.173   1.411  51.863  1.00  0.00    -0.397 N 
HETATM   14  H8  UNL     1      21.123   1.489  51.728  1.00  0.00     0.156 HD
HETATM   15  H9  UNL     1      22.266   2.073  51.058  1.00  0.00     0.156 HD
ENDBRANCH   9  13
BRANCH  12  16
HETATM   16  N4  UNL     1      26.847   3.130  51.076  1.00  0.00    -0.321 N 
HETATM   17  C13 UNL     1      26.217   3.569  49.884  1.00  0.00     0.245 C 
HETATM   18  O2  UNL     1      25.150   3.308  49.287  1.00  0.00    -0.268 OA
HETATM   19  H11 UNL     1      27.758   3.505  51.369  1.00  0.00     0.169 HD
BRANCH  17  20
HETATM   20  C14 UNL     1      26.940   4.571  49.118  1.00  0.00     0.072 C 
BRANCH  20  21
HETATM   21  C15 UNL     1      27.062   5.842  48.793  1.00  0.00    -0.002 C 
BRANCH  21  22
HETATM   22  C16 UNL     1      27.001   7.092  47.999  1.00  0.00     0.144 C 
BRANCH  22  23
HETATM   23  N5  UNL     1      28.074   7.958  48.153  1.00  0.00    -0.405 N 
HETATM   24  C17 UNL     1      28.104   9.129  48.847  1.00  0.00     0.143 C 
HETATM   25  C18 UNL     1      27.229  10.310  48.485  1.00  0.00     0.187 C 
HETATM   26  O3  UNL     1      27.972  11.331  49.290  1.00  0.00    -0.387 OA
HETATM   27  C19 UNL     1      29.132  11.431  48.503  1.00  0.00     0.193 C 
HETATM   28  C20 UNL     1      30.420  11.870  49.003  1.00  0.00     0.193 C 
HETATM   29  O4  UNL     1      31.391  11.865  47.995  1.00  0.00    -0.387 OA
HETATM   30  C21 UNL     1      31.619  10.746  47.290  1.00  0.00     0.193 C 
HETATM   31  C22 UNL     1      32.061   9.489  47.941  1.00  0.00     0.193 C 
HETATM   32  O5  UNL     1      31.274   8.897  48.835  1.00  0.00    -0.387 OA
HETATM   33  C23 UNL     1      30.523   7.846  48.768  1.00  0.00     0.187 C 
HETATM   34  C24 UNL     1      29.381   7.326  48.076  1.00  0.00     0.143 C 
ENDBRANCH  22  23
ENDBRANCH  21  22
ENDBRANCH  20  21
ENDBRANCH  17  20
ENDBRANCH  12  16
BRANCH   1  35
HETATM   35  O1  UNL     1      28.455   1.674  52.908  1.00  0.00    -0.349 OA
BRANCH  35  36
HETATM   36  C2  UNL     1      29.195   1.098  53.971  1.00  0.00     0.171 C 
HETATM   37  C1  UNL     1      29.957  -0.116  53.507  1.00  0.00     0.034 C 
ENDBRANCH  35  36
ENDBRANCH   1  35
TORSDOF 8
ENDMDL
MODEL 4
REMARK VINA RESULT:      -8.8      1.412      1.615
REMARK  8 active torsions:
REMARK  status: ('A' for Active; 'I' for Inactive)
REMARK    1  A    between atoms: C2_2  and  O1_3 
REMARK    2  A    between atoms: O1_3  and  C3_4 
REMARK    3  A    between atoms: C9_12  and  N3_13 
REMARK    4  A    between atoms: C12_16  and  N4_17 
REMARK       I    between atoms: N4_17  and  C13_18 
REMARK    5  A    between atoms: C13_18  and  C14_20 
REMARK    6  A    between atoms: C14_20  and  C15_21 
REMARK    7  A    between atoms: C15_21  and  C16_22 
REMARK    8  A    between atoms: C16_22  and  N5_23 
ROOT
HETATM    1  C3  UNL     1      26.297   1.927  52.397  1.00  0.00     0.097 A 
HETATM    2  C4  UNL     1      25.854   0.867  53.169  1.00  0.00     0.071 A 
HETATM    3  C5  UNL     1      24.509   0.527  53.238  1.00  0.00     0.071 A 
HETATM    4  N1  UNL     1      24.144  -0.525  54.013  1.00  0.00    -0.259 NA
HETATM    5  C6  UNL     1      22.862  -0.887  54.109  1.00  0.00     0.142 A 
HETATM    6  C7  UNL     1      21.908  -0.166  53.399  1.00  0.00     0.089 A 
HETATM    7  C8  UNL     1      20.519  -0.508  53.463  1.00  0.00     0.103 C 
HETATM    8  N2  UNL     1      19.386  -0.803  53.530  1.00  0.00    -0.191 NA
HETATM    9  C9  UNL     1      22.306   0.895  52.622  1.00  0.00     0.061 A 
HETATM   10  C10 UNL     1      23.616   1.301  52.497  1.00  0.00     0.023 A 
HETATM   11  C11 UNL     1      24.059   2.357  51.729  1.00  0.00     0.048 A 
HETATM   12  C12 UNL     1      25.392   2.693  51.660  1.00  0.00     0.069 A 
ENDROOT
BRANCH   9  13
HETATM   13  N3  UNL     1      21.328   1.645  51.887  1.00  0.00    -0.397 N 
HETATM   14  H8  UNL     1      20.515   2.270  52.163  1.00  0.00     0.156 HD
HETATM   15  H9  UNL     1      21.069   1.846  50.894  1.00  0.00     0.156 HD
ENDBRANCH   9  13
BRANCH  12  16
HETATM   16  N4  UNL     1      25.770   3.793  50.847  1.00  0.00    -0.321 N 
HETATM   17  C13 UNL     1      26.538   3.687  49.659  1.00  0.00     0.245 C 
HETATM   18  O2  UNL     1      27.065   2.755  49.013  1.00  0.00    -0.268 OA
HETATM   19  H11 UNL     1      25.439   4.703  51.190  1.00  0.00     0.169 HD
BRANCH  17  20
HETATM   20  C14 UNL     1      26.818   4.938  48.973  1.00  0.00     0.072 C 
BRANCH  20  21
HETATM   21  C15 UNL     1      27.730   5.789  48.550  1.00  0.00    -0.002 C 
BRANCH  21  22
HETATM   22  C16 UNL     1      28.343   6.954  47.868  1.00  0.00     0.144 C 
BRANCH  22  23
HETATM   23  N5  UNL     1      29.725   7.043  47.952  1.00  0.00    -0.405 N 
HETATM   24  C17 UNL     1      30.484   8.172  48.011  1.00  0.00     0.143 C 
HETATM   25  C18 UNL     1      30.506   9.195  46.896  1.00  0.00     0.187 C 
HETATM   26  O3  UNL     1      31.738   9.917  47.346  1.00  0.00    -0.387 OA
HETATM   27  C19 UNL     1      32.697   8.942  47.019  1.00  0.00     0.193 C 
HETATM   28  C20 UNL     1      33.996   8.832  47.651  1.00  0.00     0.193 C 
HETATM   29  O4  UNL     1      34.735   7.765  47.127  1.00  0.00    -0.387 OA
HETATM   30  C21 UNL     1      34.212   6.529  47.117  1.00  0.00     0.193 C 
HETATM   31  C22 UNL     1      33.808   5.842  48.367  1.00  0.00     0.193 C 
HETATM   32  O5  UNL     1      32.847   6.362  49.126  1.00  0.00    -0.387 OA
HETATM   33  C23 UNL     1      31.609   6.033  49.302  1.00  0.00     0.187 C 
HETATM   34  C24 UNL     1      30.370   5.908  48.592  1.00  0.00     0.143 C 
ENDBRANCH  22  23
ENDBRANCH  21  22
ENDBRANCH  20  21
ENDBRANCH  17  20
ENDBRANCH  12  16
BRANCH   1  35
HETATM   35  O1  UNL     1      27.657   2.272  52.325  1.00  0.00    -0.349 OA
BRANCH  35  36
HETATM   36  C2  UNL     1      28.384   2.327  53.541  1.00  0.00     0.171 C 
HETATM   37  C1  UNL     1      29.278   1.124  53.694  1.00  0.00     0.034 C 
ENDBRANCH  35  36
ENDBRANCH   1  35
TORSDOF 8
ENDMDL
MODEL 5
REMARK VINA RESULT:      -8.6      1.563      2.751
REMARK  8 active torsions:
REMARK  status: ('A' for Active; 'I' for Inactive)
REMARK    1  A    between atoms: C2_2  and  O1_3 
REMARK    2  A    between atoms: O1_3  and  C3_4 
REMARK    3  A    between atoms: C9_12  and  N3_13 
REMARK    4  A    between atoms: C12_16  and  N4_17 
REMARK       I    between atoms: N4_17  and  C13_18 
REMARK    5  A    between atoms: C13_18  and  C14_20 
REMARK    6  A    between atoms: C14_20  and  C15_21 
REMARK    7  A    between atoms: C15_21  and  C16_22 
REMARK    8  A    between atoms: C16_22  and  N5_23 
ROOT
HETATM    1  C3  UNL     1      25.111   0.928  52.620  1.00  0.00     0.097 A 
HETATM    2  C4  UNL     1      24.520   0.045  53.508  1.00  0.00     0.071 A 
HETATM    3  C5  UNL     1      23.152  -0.194  53.499  1.00  0.00     0.071 A 
HETATM    4  N1  UNL     1      22.640  -1.073  54.396  1.00  0.00    -0.259 NA
HETATM    5  C6  UNL     1      21.331  -1.332  54.423  1.00  0.00     0.142 A 
HETATM    6  C7  UNL     1      20.501  -0.685  53.512  1.00  0.00     0.089 A 
HETATM    7  C8  UNL     1      19.089  -0.924  53.494  1.00  0.00     0.103 C 
HETATM    8  N2  UNL     1      17.935  -1.132  53.496  1.00  0.00    -0.191 NA
HETATM    9  C9  UNL     1      21.047   0.200  52.615  1.00  0.00     0.061 A 
HETATM   10  C10 UNL     1      22.391   0.497  52.555  1.00  0.00     0.023 A 
HETATM   11  C11 UNL     1      22.980   1.376  51.672  1.00  0.00     0.048 A 
HETATM   12  C12 UNL     1      24.336   1.611  51.681  1.00  0.00     0.069 A 
ENDROOT
BRANCH   9  13
HETATM   13  N3  UNL     1      20.199   0.873  51.674  1.00  0.00    -0.397 N 
HETATM   14  H8  UNL     1      19.195   1.217  51.698  1.00  0.00     0.156 HD
HETATM   15  H9  UNL     1      20.242   1.248  50.698  1.00  0.00     0.156 HD
ENDBRANCH   9  13
BRANCH  12  16
HETATM   16  N4  UNL     1      24.869   2.531  50.740  1.00  0.00    -0.321 N 
HETATM   17  C13 UNL     1      24.633   3.929  50.763  1.00  0.00     0.245 C 
HETATM   18  O2  UNL     1      23.988   4.717  51.489  1.00  0.00    -0.268 OA
HETATM   19  H11 UNL     1      25.456   2.099  50.015  1.00  0.00     0.169 HD
BRANCH  17  20
HETATM   20  C14 UNL     1      25.271   4.695  49.705  1.00  0.00     0.072 C 
BRANCH  20  21
HETATM   21  C15 UNL     1      26.373   4.946  49.029  1.00  0.00    -0.002 C 
BRANCH  21  22
HETATM   22  C16 UNL     1      27.794   4.901  48.608  1.00  0.00     0.144 C 
BRANCH  22  23
HETATM   23  N5  UNL     1      28.408   6.131  48.423  1.00  0.00    -0.405 N 
HETATM   24  C17 UNL     1      29.542   6.398  47.719  1.00  0.00     0.143 C 
HETATM   25  C18 UNL     1      30.885   5.806  48.090  1.00  0.00     0.187 C 
HETATM   26  O3  UNL     1      31.719   6.733  47.260  1.00  0.00    -0.387 OA
HETATM   27  C19 UNL     1      31.569   7.905  48.021  1.00  0.00     0.193 C 
HETATM   28  C20 UNL     1      31.718   9.245  47.490  1.00  0.00     0.193 C 
HETATM   29  O4  UNL     1      31.508  10.215  48.477  1.00  0.00    -0.387 OA
HETATM   30  C21 UNL     1      30.368  10.213  49.186  1.00  0.00     0.193 C 
HETATM   31  C22 UNL     1      29.044  10.359  48.537  1.00  0.00     0.193 C 
HETATM   32  O5  UNL     1      28.632   9.442  47.664  1.00  0.00    -0.387 OA
HETATM   33  C23 UNL     1      27.768   8.485  47.757  1.00  0.00     0.187 C 
HETATM   34  C24 UNL     1      27.509   7.273  48.478  1.00  0.00     0.143 C 
ENDBRANCH  22  23
ENDBRANCH  21  22
ENDBRANCH  20  21
ENDBRANCH  17  20
ENDBRANCH  12  16
BRANCH   1  35
HETATM   35  O1  UNL     1      26.494   1.170  52.628  1.00  0.00    -0.349 OA
BRANCH  35  36
HETATM   36  C2  UNL     1      27.258   0.575  53.663  1.00  0.00     0.171 C 
HETATM   37  C1  UNL     1      28.191  -0.474  53.116  1.00  0.00     0.034 C 
ENDBRANCH  35  36
ENDBRANCH   1  35
TORSDOF 8
ENDMDL
MODEL 6
REMARK VINA RESULT:      -8.2      6.343     11.540
REMARK  8 active torsions:
REMARK  status: ('A' for Active; 'I' for Inactive)
REMARK    1  A    between atoms: C2_2  and  O1_3 
REMARK    2  A    between atoms: O1_3  and  C3_4 
REMARK    3  A    between atoms: C9_12  and  N3_13 
REMARK    4  A    between atoms: C12_16  and  N4_17 
REMARK       I    between atoms: N4_17  and  C13_18 
REMARK    5  A    between atoms: C13_18  and  C14_20 
REMARK    6  A    between atoms: C14_20  and  C15_21 
REMARK    7  A    between atoms: C15_21  and  C16_22 
REMARK    8  A    between atoms: C16_22  and  N5_23 
ROOT
HETATM    1  C3  UNL     1      23.189   1.672  52.665  1.00  0.00     0.097 A 
HETATM    2  C4  UNL     1      24.401   2.340  52.671  1.00  0.00     0.071 A 
HETATM    3  C5  UNL     1      25.600   1.675  52.891  1.00  0.00     0.071 A 
HETATM    4  N1  UNL     1      26.752   2.391  52.883  1.00  0.00    -0.259 NA
HETATM    5  C6  UNL     1      27.927   1.792  53.090  1.00  0.00     0.142 A 
HETATM    6  C7  UNL     1      27.949   0.419  53.314  1.00  0.00     0.089 A 
HETATM    7  C8  UNL     1      29.179  -0.277  53.542  1.00  0.00     0.103 C 
HETATM    8  N2  UNL     1      30.197  -0.829  53.729  1.00  0.00    -0.191 NA
HETATM    9  C9  UNL     1      26.767  -0.281  53.318  1.00  0.00     0.061 A 
HETATM   10  C10 UNL     1      25.535   0.298  53.109  1.00  0.00     0.023 A 
HETATM   11  C11 UNL     1      24.326  -0.366  53.103  1.00  0.00     0.048 A 
HETATM   12  C12 UNL     1      23.139   0.294  52.883  1.00  0.00     0.069 A 
ENDROOT
BRANCH   9  13
HETATM   13  N3  UNL     1      26.780  -1.697  53.549  1.00  0.00    -0.397 N 
HETATM   14  H8  UNL     1      26.746  -2.304  54.419  1.00  0.00     0.156 HD
HETATM   15  H9  UNL     1      26.822  -2.587  53.001  1.00  0.00     0.156 HD
ENDBRANCH   9  13
BRANCH  12  16
HETATM   16  N4  UNL     1      21.936  -0.460  52.892  1.00  0.00    -0.321 N 
HETATM   17  C13 UNL     1      20.979  -0.431  53.938  1.00  0.00     0.245 C 
HETATM   18  O2  UNL     1      20.867   0.161  55.034  1.00  0.00    -0.268 OA
HETATM   19  H11 UNL     1      21.802  -1.048  52.060  1.00  0.00     0.169 HD
BRANCH  17  20
HETATM   20  C14 UNL     1      19.813  -1.280  53.753  1.00  0.00     0.072 C 
BRANCH  20  21
HETATM   21  C15 UNL     1      18.524  -1.351  53.490  1.00  0.00    -0.002 C 
BRANCH  21  22
HETATM   22  C16 UNL     1      17.260  -1.499  52.731  1.00  0.00     0.144 C 
BRANCH  22  23
HETATM   23  N5  UNL     1      16.706  -0.324  52.244  1.00  0.00    -0.405 N 
HETATM   24  C17 UNL     1      16.914   0.253  51.028  1.00  0.00     0.143 C 
HETATM   25  C18 UNL     1      18.278   0.732  50.580  1.00  0.00     0.187 C 
HETATM   26  O3  UNL     1      17.800   1.568  49.433  1.00  0.00    -0.387 OA
HETATM   27  C19 UNL     1      17.219   2.624  50.157  1.00  0.00     0.193 C 
HETATM   28  C20 UNL     1      16.169   3.482  49.645  1.00  0.00     0.193 C 
HETATM   29  O4  UNL     1      15.783   4.441  50.588  1.00  0.00    -0.387 OA
HETATM   30  C21 UNL     1      15.393   4.056  51.814  1.00  0.00     0.193 C 
HETATM   31  C22 UNL     1      14.232   3.157  52.018  1.00  0.00     0.193 C 
HETATM   32  O5  UNL     1      14.255   1.924  51.517  1.00  0.00    -0.387 OA
HETATM   33  C23 UNL     1      14.433   0.768  52.069  1.00  0.00     0.187 C 
HETATM   34  C24 UNL     1      15.406   0.012  52.802  1.00  0.00     0.143 C 
ENDBRANCH  22  23
ENDBRANCH  21  22
ENDBRANCH  20  21
ENDBRANCH  17  20
ENDBRANCH  12  16
BRANCH   1  35
HETATM   35  O1  UNL     1      21.975   2.343  52.442  1.00  0.00    -0.349 OA
BRANCH  35  36
HETATM   36  C2  UNL     1      22.039   3.717  52.100  1.00  0.00     0.171 C 
HETATM   37  C1  UNL     1      20.741   4.188  51.495  1.00  0.00     0.034 C 
ENDBRANCH  35  36
ENDBRANCH   1  35
TORSDOF 8
ENDMDL
MODEL 7
REMARK VINA RESULT:      -8.2      1.787      2.221
REMARK  8 active torsions:
REMARK  status: ('A' for Active; 'I' for Inactive)
REMARK    1  A    between atoms: C2_2  and  O1_3 
REMARK    2  A    between atoms: O1_3  and  C3_4 
REMARK    3  A    between atoms: C9_12  and  N3_13 
REMARK    4  A    between atoms: C12_16  and  N4_17 
REMARK       I    between atoms: N4_17  and  C13_18 
REMARK    5  A    between atoms: C13_18  and  C14_20 
REMARK    6  A    between atoms: C14_20  and  C15_21 
REMARK    7  A    between atoms: C15_21  and  C16_22 
REMARK    8  A    between atoms: C16_22  and  N5_23 
ROOT
HETATM    1  C3  UNL     1      25.024   1.872  52.179  1.00  0.00     0.097 A 
HETATM    2  C4  UNL     1      24.338   1.070  53.076  1.00  0.00     0.071 A 
HETATM    3  C5  UNL     1      23.000   0.748  52.892  1.00  0.00     0.071 A 
HETATM    4  N1  UNL     1      22.390  -0.043  53.809  1.00  0.00    -0.259 NA
HETATM    5  C6  UNL     1      21.105  -0.378  53.671  1.00  0.00     0.142 A 
HETATM    6  C7  UNL     1      20.402   0.100  52.569  1.00  0.00     0.089 A 
HETATM    7  C8  UNL     1      19.022  -0.226  52.369  1.00  0.00     0.103 C 
HETATM    8  N2  UNL     1      17.892  -0.502  52.224  1.00  0.00    -0.191 NA
HETATM    9  C9  UNL     1      21.045   0.900  51.656  1.00  0.00     0.061 A 
HETATM   10  C10 UNL     1      22.369   1.269  51.762  1.00  0.00     0.023 A 
HETATM   11  C11 UNL     1      23.053   2.068  50.870  1.00  0.00     0.048 A 
HETATM   12  C12 UNL     1      24.379   2.385  51.053  1.00  0.00     0.069 A 
ENDROOT
BRANCH   9  13
HETATM   13  N3  UNL     1      20.329   1.399  50.518  1.00  0.00    -0.397 N 
HETATM   14  H8  UNL     1      20.082   2.370  50.166  1.00  0.00     0.156 HD
HETATM   15  H9  UNL     1      19.825   1.031  49.678  1.00  0.00     0.156 HD
ENDBRANCH   9  13
BRANCH  12  16
HETATM   16  N4  UNL     1      25.014   3.213  50.090  1.00  0.00    -0.321 N 
HETATM   17  C13 UNL     1      24.987   4.630  50.108  1.00  0.00     0.245 C 
HETATM   18  O2  UNL     1      24.485   5.507  50.845  1.00  0.00    -0.268 OA
HETATM   19  H11 UNL     1      25.512   2.696  49.354  1.00  0.00     0.169 HD
BRANCH  17  20
HETATM   20  C14 UNL     1      25.701   5.291  49.028  1.00  0.00     0.072 C 
BRANCH  20  21
HETATM   21  C15 UNL     1      26.575   6.212  48.678  1.00  0.00    -0.002 C 
BRANCH  21  22
HETATM   22  C16 UNL     1      27.325   7.491  48.660  1.00  0.00     0.144 C 
BRANCH  22  23
HETATM   23  N5  UNL     1      28.669   7.398  48.328  1.00  0.00    -0.405 N 
HETATM   24  C17 UNL     1      29.691   8.182  48.769  1.00  0.00     0.143 C 
HETATM   25  C18 UNL     1      29.747   9.669  48.498  1.00  0.00     0.187 C 
HETATM   26  O3  UNL     1      31.191   9.856  48.850  1.00  0.00    -0.387 OA
HETATM   27  C19 UNL     1      31.773   9.221  47.739  1.00  0.00     0.193 C 
HETATM   28  C20 UNL     1      33.100   8.639  47.736  1.00  0.00     0.193 C 
HETATM   29  O4  UNL     1      33.410   8.072  46.495  1.00  0.00    -0.387 OA
HETATM   30  C21 UNL     1      32.593   7.154  45.954  1.00  0.00     0.193 C 
HETATM   31  C22 UNL     1      32.292   5.875  46.641  1.00  0.00     0.193 C 
HETATM   32  O5  UNL     1      31.678   5.888  47.822  1.00  0.00    -0.387 OA
HETATM   33  C23 UNL     1      30.461   5.622  48.168  1.00  0.00     0.187 C 
HETATM   34  C24 UNL     1      29.113   6.063  47.960  1.00  0.00     0.143 C 
ENDBRANCH  22  23
ENDBRANCH  21  22
ENDBRANCH  20  21
ENDBRANCH  17  20
ENDBRANCH  12  16
BRANCH   1  35
HETATM   35  O1  UNL     1      26.378   2.198  52.364  1.00  0.00    -0.349 OA
BRANCH  35  36
HETATM   36  C2  UNL     1      26.918   2.042  53.665  1.00  0.00     0.171 C 
HETATM   37  C1  UNL     1      28.389   2.367  53.685  1.00  0.00     0.034 C 
ENDBRANCH  35  36
ENDBRANCH   1  35
TORSDOF 8
ENDMDL
MODEL 8
REMARK VINA RESULT:      -8.2      3.791      6.815
REMARK  8 active torsions:
REMARK  status: ('A' for Active; 'I' for Inactive)
REMARK    1  A    between atoms: C2_2  and  O1_3 
REMARK    2  A    between atoms: O1_3  and  C3_4 
REMARK    3  A    between atoms: C9_12  and  N3_13 
REMARK    4  A    between atoms: C12_16  and  N4_17 
REMARK       I    between atoms: N4_17  and  C13_18 
REMARK    5  A    between atoms: C13_18  and  C14_20 
REMARK    6  A    between atoms: C14_20  and  C15_21 
REMARK    7  A    between atoms: C15_21  and  C16_22 
REMARK    8  A    between atoms: C16_22  and  N5_23 
ROOT
HETATM    1  C3  UNL     1      25.503   7.644  47.774  1.00  0.00     0.097 A 
HETATM    2  C4  UNL     1      24.335   6.901  47.828  1.00  0.00     0.071 A 
HETATM    3  C5  UNL     1      24.239   5.747  48.595  1.00  0.00     0.071 A 
HETATM    4  N1  UNL     1      23.065   5.068  48.604  1.00  0.00    -0.259 NA
HETATM    5  C6  UNL     1      22.928   3.955  49.326  1.00  0.00     0.142 A 
HETATM    6  C7  UNL     1      24.012   3.503  50.073  1.00  0.00     0.089 A 
HETATM    7  C8  UNL     1      23.924   2.315  50.867  1.00  0.00     0.103 C 
HETATM    8  N2  UNL     1      23.832   1.338  51.510  1.00  0.00    -0.191 NA
HETATM    9  C9  UNL     1      25.190   4.210  50.045  1.00  0.00     0.061 A 
HETATM   10  C10 UNL     1      25.372   5.362  49.312  1.00  0.00     0.023 A 
HETATM   11  C11 UNL     1      26.534   6.102  49.257  1.00  0.00     0.048 A 
HETATM   12  C12 UNL     1      26.628   7.246  48.498  1.00  0.00     0.069 A 
ENDROOT
BRANCH   9  13
HETATM   13  N3  UNL     1      26.313   3.751  50.810  1.00  0.00    -0.397 N 
HETATM   14  H8  UNL     1      26.460   3.501  51.831  1.00  0.00     0.156 HD
HETATM   15  H9  UNL     1      27.320   3.508  50.667  1.00  0.00     0.156 HD
ENDBRANCH   9  13
BRANCH  12  16
HETATM   16  N4  UNL     1      27.859   7.954  48.492  1.00  0.00    -0.321 N 
HETATM   17  C13 UNL     1      28.200   8.976  49.414  1.00  0.00     0.245 C 
HETATM   18  O2  UNL     1      27.644   9.525  50.390  1.00  0.00    -0.268 OA
HETATM   19  H11 UNL     1      28.506   7.666  47.748  1.00  0.00     0.169 HD
BRANCH  17  20
HETATM   20  C14 UNL     1      29.512   9.577  49.235  1.00  0.00     0.072 C 
BRANCH  20  21
HETATM   21  C15 UNL     1      30.781   9.397  48.934  1.00  0.00    -0.002 C 
BRANCH  21  22
HETATM   22  C16 UNL     1      32.000   9.089  48.148  1.00  0.00     0.144 C 
BRANCH  22  23
HETATM   23  N5  UNL     1      32.309   7.743  48.015  1.00  0.00    -0.405 N 
HETATM   24  C17 UNL     1      33.330   7.062  48.603  1.00  0.00     0.143 C 
HETATM   25  C18 UNL     1      34.783   7.399  48.350  1.00  0.00     0.187 C 
HETATM   26  O3  UNL     1      35.356   6.134  48.910  1.00  0.00    -0.387 OA
HETATM   27  C19 UNL     1      34.964   5.246  47.893  1.00  0.00     0.193 C 
HETATM   28  C20 UNL     1      34.785   3.820  48.082  1.00  0.00     0.193 C 
HETATM   29  O4  UNL     1      34.387   3.191  46.897  1.00  0.00    -0.387 OA
HETATM   30  C21 UNL     1      33.301   3.626  46.239  1.00  0.00     0.193 C 
HETATM   31  C22 UNL     1      31.959   3.638  46.869  1.00  0.00     0.193 C 
HETATM   32  O5  UNL     1      31.743   4.387  47.948  1.00  0.00    -0.387 OA
HETATM   33  C23 UNL     1      31.125   5.512  48.111  1.00  0.00     0.187 C 
HETATM   34  C24 UNL     1      31.174   6.887  47.710  1.00  0.00     0.143 C 
ENDBRANCH  22  23
ENDBRANCH  21  22
ENDBRANCH  20  21
ENDBRANCH  17  20
ENDBRANCH  12  16
BRANCH   1  35
HETATM   35  O1  UNL     1      25.601   8.811  46.999  1.00  0.00    -0.349 OA
BRANCH  35  36
HETATM   36  C2  UNL     1      24.403   9.512  46.713  1.00  0.00     0.171 C 
HETATM   37  C1  UNL     1      24.259  10.725  47.595  1.00  0.00     0.034 C 
ENDBRANCH  35  36
ENDBRANCH   1  35
TORSDOF 8
ENDMDL
MODEL 9
REMARK VINA RESULT:      -8.1      6.654     12.024
REMARK  8 active torsions:
REMARK  status: ('A' for Active; 'I' for Inactive)
REMARK    1  A    between atoms: C2_2  and  O1_3 
REMARK    2  A    between atoms: O1_3  and  C3_4 
REMARK    3  A    between atoms: C9_12  and  N3_13 
REMARK    4  A    between atoms: C12_16  and  N4_17 
REMARK       I    between atoms: N4_17  and  C13_18 
REMARK    5  A    between atoms: C13_18  and  C14_20 
REMARK    6  A    between atoms: C14_20  and  C15_21 
REMARK    7  A    between atoms: C15_21  and  C16_22 
REMARK    8  A    between atoms: C16_22  and  N5_23 
ROOT
HETATM    1  C3  UNL     1      21.678   0.170  52.400  1.00  0.00     0.097 A 
HETATM    2  C4  UNL     1      22.674  -0.366  53.198  1.00  0.00     0.071 A 
HETATM    3  C5  UNL     1      23.909   0.254  53.339  1.00  0.00     0.071 A 
HETATM    4  N1  UNL     1      24.840  -0.326  54.137  1.00  0.00    -0.259 NA
HETATM    5  C6  UNL     1      26.040   0.236  54.301  1.00  0.00     0.142 A 
HETATM    6  C7  UNL     1      26.318   1.427  53.639  1.00  0.00     0.089 A 
HETATM    7  C8  UNL     1      27.588   2.075  53.778  1.00  0.00     0.103 C 
HETATM    8  N2  UNL     1      28.634   2.589  53.902  1.00  0.00    -0.191 NA
HETATM    9  C9  UNL     1      25.357   1.991  52.836  1.00  0.00     0.061 A 
HETATM   10  C10 UNL     1      24.108   1.444  52.639  1.00  0.00     0.023 A 
HETATM   11  C11 UNL     1      23.115   1.976  51.845  1.00  0.00     0.048 A 
HETATM   12  C12 UNL     1      21.891   1.362  51.707  1.00  0.00     0.069 A 
ENDROOT
BRANCH   9  13
HETATM   13  N3  UNL     1      25.636   3.219  52.148  1.00  0.00    -0.397 N 
HETATM   14  H8  UNL     1      25.916   4.194  52.460  1.00  0.00     0.156 HD
HETATM   15  H9  UNL     1      25.668   3.587  51.169  1.00  0.00     0.156 HD
ENDBRANCH   9  13
BRANCH  12  16
HETATM   16  N4  UNL     1      20.919   1.973  50.871  1.00  0.00    -0.321 N 
HETATM   17  C13 UNL     1      20.806   1.747  49.476  1.00  0.00     0.245 C 
HETATM   18  O2  UNL     1      21.410   1.054  48.628  1.00  0.00    -0.268 OA
HETATM   19  H11 UNL     1      20.283   2.612  51.363  1.00  0.00     0.169 HD
BRANCH  17  20
HETATM   20  C14 UNL     1      19.742   2.473  48.801  1.00  0.00     0.072 C 
BRANCH  20  21
HETATM   21  C15 UNL     1      18.492   2.888  48.832  1.00  0.00    -0.002 C 
BRANCH  21  22
HETATM   22  C16 UNL     1      17.017   2.890  48.683  1.00  0.00     0.144 C 
BRANCH  22  23
HETATM   23  N5  UNL     1      16.292   2.836  49.865  1.00  0.00    -0.405 N 
HETATM   24  C17 UNL     1      16.046   1.745  50.641  1.00  0.00     0.143 C 
HETATM   25  C18 UNL     1      15.272   0.547  50.134  1.00  0.00     0.187 C 
HETATM   26  O3  UNL     1      15.010  -0.070  51.473  1.00  0.00    -0.387 OA
HETATM   27  C19 UNL     1      14.062   0.848  51.957  1.00  0.00     0.193 C 
HETATM   28  C20 UNL     1      13.799   1.082  53.363  1.00  0.00     0.193 C 
HETATM   29  O4  UNL     1      12.808   2.054  53.546  1.00  0.00    -0.387 OA
HETATM   30  C21 UNL     1      12.943   3.263  52.978  1.00  0.00     0.193 C 
HETATM   31  C22 UNL     1      14.091   4.148  53.289  1.00  0.00     0.193 C 
HETATM   32  O5  UNL     1      15.328   3.752  52.999  1.00  0.00    -0.387 OA
HETATM   33  C23 UNL     1      16.146   4.088  52.056  1.00  0.00     0.187 C 
HETATM   34  C24 UNL     1      16.282   4.073  50.629  1.00  0.00     0.143 C 
ENDBRANCH  22  23
ENDBRANCH  21  22
ENDBRANCH  20  21
ENDBRANCH  17  20
ENDBRANCH  12  16
BRANCH   1  35
HETATM   35  O1  UNL     1      20.428  -0.456  52.256  1.00  0.00    -0.349 OA
BRANCH  35  36
HETATM   36  C2  UNL     1      19.593  -0.524  53.400  1.00  0.00     0.171 C 
HETATM   37  C1  UNL     1      18.223  -1.040  53.042  1.00  0.00     0.034 C 
ENDBRANCH  35  36
ENDBRANCH   1  35
TORSDOF 8
ENDMDL
