MODEL 1
REMARK VINA RESULT:      -8.7      0.000      0.000
REMARK  3 active torsions:
REMARK  status: ('A' for Active; 'I' for Inactive)
REMARK    1  A    between atoms: C2_2  and  C3_3 
REMARK       I    between atoms: C3_3  and  N1_5 
REMARK    2  A    between atoms: N1_5  and  C4_6 
REMARK    3  A    between atoms: N2_9  and  C7_10 
ROOT
HETATM    1  C4  UNL     1      21.687   2.698  52.327  1.00  0.00     0.142 C 
HETATM    2  C5  UNL     1      22.849   2.127  52.702  1.00  0.00     0.049 C 
HETATM    3  C6  UNL     1      24.175   2.705  52.977  1.00  0.00     0.155 C 
HETATM    4  N2  UNL     1      25.250   2.319  52.147  1.00  0.00    -0.372 N 
HETATM    5  C13 UNL     1      25.060   2.873  50.802  1.00  0.00     0.167 C 
HETATM    6  P1  UNL     1      23.594   2.352  49.859  1.00  0.00    -0.029 P 
HETATM    7  C14 UNL     1      23.232   3.270  48.551  1.00  0.00    -0.017 C 
HETATM    8  C15 UNL     1      23.280   4.549  48.790  1.00  0.00    -0.006 C 
HETATM    9  C16 UNL     1      23.314   5.091  50.151  1.00  0.00     0.039 C 
HETATM   10  C17 UNL     1      24.173   6.341  50.131  1.00  0.00     0.176 C 
HETATM   11  O2  UNL     1      23.514   7.346  49.422  1.00  0.00    -0.390 OA
HETATM   12  C18 UNL     1      22.667   8.056  50.272  1.00  0.00     0.168 C 
HETATM   13  C19 UNL     1      21.917   6.993  51.055  1.00  0.00     0.034 C 
HETATM   14  C20 UNL     1      21.879   5.683  50.337  1.00  0.00     0.022 C 
HETATM   15  C21 UNL     1      21.009   4.744  51.151  1.00  0.00     0.182 C 
HETATM   16  O3  UNL     1      21.785   4.096  52.173  1.00  0.00    -0.335 OA
ENDROOT
BRANCH   4  17
HETATM   17  C7  UNL     1      26.360   1.533  52.546  1.00  0.00     0.032 A 
HETATM   18  C8  UNL     1      27.488   2.087  53.096  1.00  0.00     0.032 A 
HETATM   19  C9  UNL     1      28.599   1.395  53.519  1.00  0.00     0.046 A 
HETATM   20  C10 UNL     1      28.618   0.019  53.397  1.00  0.00     0.138 A 
HETATM   21  F1  UNL     1      29.682  -0.717  53.797  1.00  0.00    -0.204 F 
HETATM   22  C11 UNL     1      27.513  -0.610  52.850  1.00  0.00     0.074 A 
HETATM   23 CL1  UNL     1      27.543  -2.353  52.697  1.00  0.00    -0.081 Cl
HETATM   24  C12 UNL     1      26.447   0.163  52.453  1.00  0.00     0.056 A 
ENDBRANCH   4  17
BRANCH   1  25
HETATM   25  N1  UNL     1      20.760   1.629  52.223  1.00  0.00    -0.305 N 
HETATM   26  C3  UNL     1      20.608   0.817  53.344  1.00  0.00     0.243 C 
HETATM   27  O1  UNL     1      20.782   0.389  54.499  1.00  0.00    -0.269 OA
HETATM   28  H4  UNL     1      20.220   1.459  51.355  1.00  0.00     0.171 HD
BRANCH  26  29
HETATM   29  C2  UNL     1      19.656  -0.287  53.230  1.00  0.00     0.048 C 
HETATM   30  C1  UNL     1      18.621  -0.277  52.403  1.00  0.00     0.037 C 
ENDBRANCH  26  29
ENDBRANCH   1  25
TORSDOF 3
ENDMDL
MODEL 2
REMARK VINA RESULT:      -8.7      2.643      5.403
REMARK  3 active torsions:
REMARK  status: ('A' for Active; 'I' for Inactive)
REMARK    1  A    between atoms: C2_2  and  C3_3 
REMARK       I    between atoms: C3_3  and  N1_5 
REMARK    2  A    between atoms: N1_5  and  C4_6 
REMARK    3  A    between atoms: N2_9  and  C7_10 
ROOT
HETATM    1  C4  UNL     1      25.243   5.299  49.800  1.00  0.00     0.142 C 
HETATM    2  C5  UNL     1      26.022   4.364  50.377  1.00  0.00     0.049 C 
HETATM    3  C6  UNL     1      26.084   2.904  50.203  1.00  0.00     0.155 C 
HETATM    4  N2  UNL     1      25.773   2.092  51.316  1.00  0.00    -0.372 N 
HETATM    5  C13 UNL     1      24.343   2.202  51.625  1.00  0.00     0.167 C 
HETATM    6  P1  UNL     1      23.692   3.832  52.100  1.00  0.00    -0.029 P 
HETATM    7  C14 UNL     1      22.060   3.981  52.061  1.00  0.00    -0.017 C 
HETATM    8  C15 UNL     1      21.524   3.493  50.979  1.00  0.00    -0.006 C 
HETATM    9  C16 UNL     1      22.318   3.165  49.790  1.00  0.00     0.039 C 
HETATM   10  C17 UNL     1      21.694   1.946  49.139  1.00  0.00     0.176 C 
HETATM   11  O2  UNL     1      20.459   2.293  48.591  1.00  0.00    -0.390 OA
HETATM   12  C18 UNL     1      20.629   2.782  47.296  1.00  0.00     0.168 C 
HETATM   13  C19 UNL     1      21.777   3.771  47.398  1.00  0.00     0.034 C 
HETATM   14  C20 UNL     1      21.943   4.302  48.785  1.00  0.00     0.022 C 
HETATM   15  C21 UNL     1      23.029   5.360  48.739  1.00  0.00     0.182 C 
HETATM   16  O3  UNL     1      24.327   4.758  48.874  1.00  0.00    -0.335 OA
ENDROOT
BRANCH   4  17
HETATM   17  C7  UNL     1      26.690   1.275  52.023  1.00  0.00     0.032 A 
HETATM   18  C8  UNL     1      27.688   1.801  52.802  1.00  0.00     0.032 A 
HETATM   19  C9  UNL     1      28.608   1.079  53.528  1.00  0.00     0.046 A 
HETATM   20  C10 UNL     1      28.552  -0.301  53.495  1.00  0.00     0.138 A 
HETATM   21  F1  UNL     1      29.428  -1.066  54.189  1.00  0.00    -0.204 F 
HETATM   22  C11 UNL     1      27.569  -0.903  52.729  1.00  0.00     0.074 A 
HETATM   23 CL1  UNL     1      27.504  -2.652  52.692  1.00  0.00    -0.081 Cl
HETATM   24  C12 UNL     1      26.692  -0.101  52.036  1.00  0.00     0.056 A 
ENDBRANCH   4  17
BRANCH   1  25
HETATM   25  N1  UNL     1      25.653   6.533  50.367  1.00  0.00    -0.305 N 
HETATM   26  C3  UNL     1      26.141   7.497  49.489  1.00  0.00     0.243 C 
HETATM   27  O1  UNL     1      26.478   8.022  48.413  1.00  0.00    -0.269 OA
HETATM   28  H4  UNL     1      25.594   6.711  51.387  1.00  0.00     0.171 HD
BRANCH  26  29
HETATM   29  C2  UNL     1      26.570   8.764  50.079  1.00  0.00     0.048 C 
HETATM   30  C1  UNL     1      27.784   9.270  49.919  1.00  0.00     0.037 C 
ENDBRANCH  26  29
ENDBRANCH   1  25
TORSDOF 3
ENDMDL
MODEL 3
REMARK VINA RESULT:      -8.3      4.343      7.680
REMARK  3 active torsions:
REMARK  status: ('A' for Active; 'I' for Inactive)
REMARK    1  A    between atoms: C2_2  and  C3_3 
REMARK       I    between atoms: C3_3  and  N1_5 
REMARK    2  A    between atoms: N1_5  and  C4_6 
REMARK    3  A    between atoms: N2_9  and  C7_10 
ROOT
HETATM    1  C4  UNL     1      24.048   2.567  52.497  1.00  0.00     0.142 C 
HETATM    2  C5  UNL     1      23.759   3.820  52.094  1.00  0.00     0.049 C 
HETATM    3  C6  UNL     1      22.507   4.593  52.138  1.00  0.00     0.155 C 
HETATM    4  N2  UNL     1      21.932   4.990  50.910  1.00  0.00    -0.372 N 
HETATM    5  C13 UNL     1      21.421   3.812  50.200  1.00  0.00     0.167 C 
HETATM    6  P1  UNL     1      22.609   2.525  49.709  1.00  0.00    -0.029 P 
HETATM    7  C14 UNL     1      21.955   1.088  49.272  1.00  0.00    -0.017 C 
HETATM    8  C15 UNL     1      21.032   0.672  50.092  1.00  0.00    -0.006 C 
HETATM    9  C16 UNL     1      20.850   1.251  51.426  1.00  0.00     0.039 C 
HETATM   10  C17 UNL     1      19.367   1.231  51.741  1.00  0.00     0.176 C 
HETATM   11  O2  UNL     1      18.949  -0.088  51.924  1.00  0.00    -0.390 OA
HETATM   12  C18 UNL     1      19.140  -0.472  53.250  1.00  0.00     0.168 C 
HETATM   13  C19 UNL     1      20.547  -0.013  53.592  1.00  0.00     0.034 C 
HETATM   14  C20 UNL     1      21.402   0.140  52.377  1.00  0.00     0.022 C 
HETATM   15  C21 UNL     1      22.803   0.479  52.847  1.00  0.00     0.182 C 
HETATM   16  O3  UNL     1      22.938   1.896  53.050  1.00  0.00    -0.335 OA
ENDROOT
BRANCH   4  17
HETATM   17  C7  UNL     1      21.838   6.322  50.436  1.00  0.00     0.032 A 
HETATM   18  C8  UNL     1      22.943   7.113  50.253  1.00  0.00     0.032 A 
HETATM   19  C9  UNL     1      22.938   8.407  49.786  1.00  0.00     0.046 A 
HETATM   20  C10 UNL     1      21.732   8.997  49.461  1.00  0.00     0.138 A 
HETATM   21  F1  UNL     1      21.663  10.267  48.995  1.00  0.00    -0.204 F 
HETATM   22  C11 UNL     1      20.573   8.258  49.620  1.00  0.00     0.074 A 
HETATM   23 CL1  UNL     1      19.048   9.011  49.207  1.00  0.00    -0.081 Cl
HETATM   24  C12 UNL     1      20.673   6.971  50.093  1.00  0.00     0.056 A 
ENDBRANCH   4  17
BRANCH   1  25
HETATM   25  N1  UNL     1      25.423   2.385  52.200  1.00  0.00    -0.305 N 
HETATM   26  C3  UNL     1      26.262   2.076  53.267  1.00  0.00     0.243 C 
HETATM   27  O1  UNL     1      26.610   1.830  54.436  1.00  0.00    -0.269 OA
HETATM   28  H4  UNL     1      25.789   2.477  51.234  1.00  0.00     0.171 HD
BRANCH  26  29
HETATM   29  C2  UNL     1      27.680   1.897  52.958  1.00  0.00     0.048 C 
HETATM   30  C1  UNL     1      28.654   2.496  53.626  1.00  0.00     0.037 C 
ENDBRANCH  26  29
ENDBRANCH   1  25
TORSDOF 3
ENDMDL
MODEL 4
REMARK VINA RESULT:      -8.1      3.259      5.900
REMARK  3 active torsions:
REMARK  status: ('A' for Active; 'I' for Inactive)
REMARK    1  A    between atoms: C2_2  and  C3_3 
REMARK       I    between atoms: C3_3  and  N1_5 
REMARK    2  A    between atoms: N1_5  and  C4_6 
REMARK    3  A    between atoms: N2_9  and  C7_10 
ROOT
HETATM    1  C4  UNL     1      25.844   6.021  49.002  1.00  0.00     0.142 C 
HETATM    2  C5  UNL     1      25.994   4.871  49.687  1.00  0.00     0.049 C 
HETATM    3  C6  UNL     1      25.317   3.569  49.567  1.00  0.00     0.155 C 
HETATM    4  N2  UNL     1      24.552   3.117  50.664  1.00  0.00    -0.372 N 
HETATM    5  C13 UNL     1      23.358   3.956  50.814  1.00  0.00     0.167 C 
HETATM    6  P1  UNL     1      23.591   5.725  51.165  1.00  0.00    -0.029 P 
HETATM    7  C14 UNL     1      22.271   6.670  50.947  1.00  0.00    -0.017 C 
HETATM    8  C15 UNL     1      21.646   6.431  49.829  1.00  0.00    -0.006 C 
HETATM    9  C16 UNL     1      22.251   5.653  48.743  1.00  0.00     0.039 C 
HETATM   10  C17 UNL     1      21.147   4.865  48.067  1.00  0.00     0.176 C 
HETATM   11  O2  UNL     1      20.306   5.740  47.379  1.00  0.00    -0.390 OA
HETATM   12  C18 UNL     1      20.800   5.971  46.095  1.00  0.00     0.168 C 
HETATM   13  C19 UNL     1      22.280   6.253  46.289  1.00  0.00     0.034 C 
HETATM   14  C20 UNL     1      22.585   6.738  47.669  1.00  0.00     0.022 C 
HETATM   15  C21 UNL     1      24.058   7.100  47.707  1.00  0.00     0.182 C 
HETATM   16  O3  UNL     1      24.855   5.940  48.000  1.00  0.00    -0.335 OA
ENDROOT
BRANCH   4  17
HETATM   17  C7  UNL     1      24.869   2.010  51.491  1.00  0.00     0.032 A 
HETATM   18  C8  UNL     1      26.144   1.515  51.593  1.00  0.00     0.032 A 
HETATM   19  C9  UNL     1      26.535   0.457  52.379  1.00  0.00     0.046 A 
HETATM   20  C10 UNL     1      25.589  -0.192  53.150  1.00  0.00     0.138 A 
HETATM   21  F1  UNL     1      25.913  -1.239  53.945  1.00  0.00    -0.204 F 
HETATM   22  C11 UNL     1      24.279   0.254  53.097  1.00  0.00     0.074 A 
HETATM   23 CL1  UNL     1      23.085  -0.571  54.074  1.00  0.00    -0.081 Cl
HETATM   24  C12 UNL     1      23.980   1.320  52.282  1.00  0.00     0.056 A 
ENDBRANCH   4  17
BRANCH   1  25
HETATM   25  N1  UNL     1      26.780   6.923  49.571  1.00  0.00    -0.305 N 
HETATM   26  C3  UNL     1      26.350   8.231  49.774  1.00  0.00     0.243 C 
HETATM   27  O1  UNL     1      25.588   9.215  49.778  1.00  0.00    -0.269 OA
HETATM   28  H4  UNL     1      27.740   6.624  49.824  1.00  0.00     0.171 HD
BRANCH  26  29
HETATM   29  C2  UNL     1      27.320   9.158  50.354  1.00  0.00     0.048 C 
HETATM   30  C1  UNL     1      28.396   9.586  49.711  1.00  0.00     0.037 C 
ENDBRANCH  26  29
ENDBRANCH   1  25
TORSDOF 3
ENDMDL
MODEL 5
REMARK VINA RESULT:      -7.9      3.174      4.139
REMARK  3 active torsions:
REMARK  status: ('A' for Active; 'I' for Inactive)
REMARK    1  A    between atoms: C2_2  and  C3_3 
REMARK       I    between atoms: C3_3  and  N1_5 
REMARK    2  A    between atoms: N1_5  and  C4_6 
REMARK    3  A    between atoms: N2_9  and  C7_10 
ROOT
HETATM    1  C4  UNL     1      18.950   4.108  50.894  1.00  0.00     0.142 C 
HETATM    2  C5  UNL     1      19.516   3.243  51.758  1.00  0.00     0.049 C 
HETATM    3  C6  UNL     1      20.871   3.182  52.330  1.00  0.00     0.155 C 
HETATM    4  N2  UNL     1      21.669   2.058  52.023  1.00  0.00    -0.372 N 
HETATM    5  C13 UNL     1      22.044   2.090  50.605  1.00  0.00     0.167 C 
HETATM    6  P1  UNL     1      20.717   2.014  49.365  1.00  0.00    -0.029 P 
HETATM    7  C14 UNL     1      21.149   2.431  47.840  1.00  0.00    -0.017 C 
HETATM    8  C15 UNL     1      21.861   3.520  47.786  1.00  0.00    -0.006 C 
HETATM    9  C16 UNL     1      21.966   4.444  48.919  1.00  0.00     0.039 C 
HETATM   10  C17 UNL     1      23.364   5.030  48.911  1.00  0.00     0.176 C 
HETATM   11  O2  UNL     1      23.505   5.881  47.813  1.00  0.00    -0.390 OA
HETATM   12  C18 UNL     1      23.070   7.164  48.142  1.00  0.00     0.168 C 
HETATM   13  C19 UNL     1      21.739   6.960  48.843  1.00  0.00     0.034 C 
HETATM   14  C20 UNL     1      21.097   5.663  48.469  1.00  0.00     0.022 C 
HETATM   15  C21 UNL     1      19.732   5.625  49.129  1.00  0.00     0.182 C 
HETATM   16  O3  UNL     1      19.834   5.122  50.471  1.00  0.00    -0.335 OA
ENDROOT
BRANCH   4  17
HETATM   17  C7  UNL     1      22.069   1.055  52.941  1.00  0.00     0.032 A 
HETATM   18  C8  UNL     1      21.178   0.432  53.777  1.00  0.00     0.032 A 
HETATM   19  C9  UNL     1      21.482  -0.556  54.684  1.00  0.00     0.046 A 
HETATM   20  C10 UNL     1      22.791  -0.987  54.792  1.00  0.00     0.138 A 
HETATM   21  F1  UNL     1      23.152  -1.957  55.665  1.00  0.00    -0.204 F 
HETATM   22  C11 UNL     1      23.745  -0.403  53.978  1.00  0.00     0.074 A 
HETATM   23 CL1  UNL     1      25.401  -0.952  54.119  1.00  0.00    -0.081 Cl
HETATM   24  C12 UNL     1      23.350   0.579  53.100  1.00  0.00     0.056 A 
ENDBRANCH   4  17
BRANCH   1  25
HETATM   25  N1  UNL     1      17.617   3.652  50.725  1.00  0.00    -0.305 N 
HETATM   26  C3  UNL     1      16.705   3.991  51.721  1.00  0.00     0.243 C 
HETATM   27  O1  UNL     1      16.269   4.493  52.772  1.00  0.00    -0.269 OA
HETATM   28  H4  UNL     1      17.333   3.093  49.900  1.00  0.00     0.171 HD
BRANCH  26  29
HETATM   29  C2  UNL     1      15.335   3.513  51.547  1.00  0.00     0.048 C 
HETATM   30  C1  UNL     1      14.849   2.447  52.165  1.00  0.00     0.037 C 
ENDBRANCH  26  29
ENDBRANCH   1  25
TORSDOF 3
ENDMDL
MODEL 6
REMARK VINA RESULT:      -7.8      3.287      5.919
REMARK  3 active torsions:
REMARK  status: ('A' for Active; 'I' for Inactive)
REMARK    1  A    between atoms: C2_2  and  C3_3 
REMARK       I    between atoms: C3_3  and  N1_5 
REMARK    2  A    between atoms: N1_5  and  C4_6 
REMARK    3  A    between atoms: N2_9  and  C7_10 
ROOT
HETATM    1  C4  UNL     1      24.596   3.249  50.375  1.00  0.00     0.142 C 
HETATM    2  C5  UNL     1      23.780   2.309  50.890  1.00  0.00     0.049 C 
HETATM    3  C6  UNL     1      22.490   1.776  50.424  1.00  0.00     0.155 C 
HETATM    4  N2  UNL     1      21.357   1.976  51.243  1.00  0.00    -0.372 N 
HETATM    5  C13 UNL     1      21.000   3.399  51.255  1.00  0.00     0.167 C 
HETATM    6  P1  UNL     1      22.211   4.581  51.919  1.00  0.00    -0.029 P 
HETATM    7  C14 UNL     1      21.930   6.156  51.565  1.00  0.00    -0.017 C 
HETATM    8  C15 UNL     1      21.626   6.356  50.314  1.00  0.00    -0.006 C 
HETATM    9  C16 UNL     1      21.850   5.340  49.281  1.00  0.00     0.039 C 
HETATM   10  C17 UNL     1      20.731   5.459  48.265  1.00  0.00     0.176 C 
HETATM   11  O2  UNL     1      20.874   6.650  47.553  1.00  0.00    -0.390 OA
HETATM   12  C18 UNL     1      21.719   6.458  46.461  1.00  0.00     0.168 C 
HETATM   13  C19 UNL     1      22.911   5.698  47.016  1.00  0.00     0.034 C 
HETATM   14  C20 UNL     1      23.074   5.901  48.487  1.00  0.00     0.022 C 
HETATM   15  C21 UNL     1      24.353   5.200  48.903  1.00  0.00     0.182 C 
HETATM   16  O3  UNL     1      24.101   3.812  49.180  1.00  0.00    -0.335 OA
ENDROOT
BRANCH   4  17
HETATM   17  C7  UNL     1      20.652   0.961  51.938  1.00  0.00     0.032 A 
HETATM   18  C8  UNL     1      19.333   0.683  51.684  1.00  0.00     0.032 A 
HETATM   19  C9  UNL     1      18.583  -0.290  52.302  1.00  0.00     0.046 A 
HETATM   20  C10 UNL     1      19.175  -1.079  53.271  1.00  0.00     0.138 A 
HETATM   21  F1  UNL     1      18.489  -2.053  53.914  1.00  0.00    -0.204 F 
HETATM   22  C11 UNL     1      20.505  -0.854  53.579  1.00  0.00     0.074 A 
HETATM   23 CL1  UNL     1      21.250  -1.855  54.807  1.00  0.00    -0.081 Cl
HETATM   24  C12 UNL     1      21.177   0.141  52.910  1.00  0.00     0.056 A 
ENDBRANCH   4  17
BRANCH   1  25
HETATM   25  N1  UNL     1      25.695   3.324  51.268  1.00  0.00    -0.305 N 
HETATM   26  C3  UNL     1      26.409   2.149  51.487  1.00  0.00     0.243 C 
HETATM   27  O1  UNL     1      26.733   0.952  51.385  1.00  0.00    -0.269 OA
HETATM   28  H4  UNL     1      25.957   4.211  51.737  1.00  0.00     0.171 HD
BRANCH  26  29
HETATM   29  C2  UNL     1      27.537   2.229  52.414  1.00  0.00     0.048 C 
HETATM   30  C1  UNL     1      27.399   2.250  53.731  1.00  0.00     0.037 C 
ENDBRANCH  26  29
ENDBRANCH   1  25
TORSDOF 3
ENDMDL
MODEL 7
REMARK VINA RESULT:      -7.7      3.624      5.787
REMARK  3 active torsions:
REMARK  status: ('A' for Active; 'I' for Inactive)
REMARK    1  A    between atoms: C2_2  and  C3_3 
REMARK       I    between atoms: C3_3  and  N1_5 
REMARK    2  A    between atoms: N1_5  and  C4_6 
REMARK    3  A    between atoms: N2_9  and  C7_10 
ROOT
HETATM    1  C4  UNL     1      23.638   2.293  52.206  1.00  0.00     0.142 C 
HETATM    2  C5  UNL     1      24.406   3.339  51.843  1.00  0.00     0.049 C 
HETATM    3  C6  UNL     1      24.069   4.745  51.564  1.00  0.00     0.155 C 
HETATM    4  N2  UNL     1      24.297   5.232  50.258  1.00  0.00    -0.372 N 
HETATM    5  C13 UNL     1      23.354   4.606  49.325  1.00  0.00     0.167 C 
HETATM    6  P1  UNL     1      23.426   2.801  49.117  1.00  0.00    -0.029 P 
HETATM    7  C14 UNL     1      22.132   2.122  48.375  1.00  0.00    -0.017 C 
HETATM    8  C15 UNL     1      20.991   2.557  48.830  1.00  0.00    -0.006 C 
HETATM    9  C16 UNL     1      20.882   3.303  50.087  1.00  0.00     0.039 C 
HETATM   10  C17 UNL     1      19.774   4.325  49.924  1.00  0.00     0.176 C 
HETATM   11  O2  UNL     1      18.544   3.669  49.854  1.00  0.00    -0.390 OA
HETATM   12  C18 UNL     1      18.037   3.462  51.136  1.00  0.00     0.168 C 
HETATM   13  C19 UNL     1      19.204   2.910  51.935  1.00  0.00     0.034 C 
HETATM   14  C20 UNL     1      20.233   2.268  51.062  1.00  0.00     0.022 C 
HETATM   15  C21 UNL     1      21.280   1.652  51.970  1.00  0.00     0.182 C 
HETATM   16  O3  UNL     1      22.274   2.627  52.327  1.00  0.00    -0.335 OA
ENDROOT
BRANCH   4  17
HETATM   17  C7  UNL     1      25.272   6.195  49.895  1.00  0.00     0.032 A 
HETATM   18  C8  UNL     1      25.246   7.479  50.378  1.00  0.00     0.032 A 
HETATM   19  C9  UNL     1      26.158   8.466  50.086  1.00  0.00     0.046 A 
HETATM   20  C10 UNL     1      27.208   8.178  49.234  1.00  0.00     0.138 A 
HETATM   21  F1  UNL     1      28.138   9.107  48.910  1.00  0.00    -0.204 F 
HETATM   22  C11 UNL     1      27.298   6.901  48.708  1.00  0.00     0.074 A 
HETATM   23 CL1  UNL     1      28.629   6.542  47.630  1.00  0.00    -0.081 Cl
HETATM   24  C12 UNL     1      26.340   5.978  49.056  1.00  0.00     0.056 A 
ENDBRANCH   4  17
BRANCH   1  25
HETATM   25  N1  UNL     1      24.532   1.198  52.335  1.00  0.00    -0.305 N 
HETATM   26  C3  UNL     1      25.513   1.299  53.316  1.00  0.00     0.243 C 
HETATM   27  O1  UNL     1      26.173   1.787  54.251  1.00  0.00    -0.269 OA
HETATM   28  H4  UNL     1      24.458   0.361  51.727  1.00  0.00     0.171 HD
BRANCH  26  29
HETATM   29  C2  UNL     1      26.436   0.172  53.440  1.00  0.00     0.048 C 
HETATM   30  C1  UNL     1      26.824  -0.570  52.413  1.00  0.00     0.037 C 
ENDBRANCH  26  29
ENDBRANCH   1  25
TORSDOF 3
ENDMDL
MODEL 8
REMARK VINA RESULT:      -7.5      7.935      9.620
REMARK  3 active torsions:
REMARK  status: ('A' for Active; 'I' for Inactive)
REMARK    1  A    between atoms: C2_2  and  C3_3 
REMARK       I    between atoms: C3_3  and  N1_5 
REMARK    2  A    between atoms: N1_5  and  C4_6 
REMARK    3  A    between atoms: N2_9  and  C7_10 
ROOT
HETATM    1  C4  UNL     1      28.637   7.908  48.956  1.00  0.00     0.142 C 
HETATM    2  C5  UNL     1      29.663   7.135  48.551  1.00  0.00     0.049 C 
HETATM    3  C6  UNL     1      31.057   7.465  48.214  1.00  0.00     0.155 C 
HETATM    4  N2  UNL     1      31.490   7.234  46.890  1.00  0.00    -0.372 N 
HETATM    5  C13 UNL     1      30.830   8.179  45.982  1.00  0.00     0.167 C 
HETATM    6  P1  UNL     1      29.017   8.117  45.849  1.00  0.00    -0.029 P 
HETATM    7  C14 UNL     1      28.315   9.414  45.135  1.00  0.00    -0.017 C 
HETATM    8  C15 UNL     1      28.774  10.552  45.570  1.00  0.00    -0.006 C 
HETATM    9  C16 UNL     1      29.572  10.659  46.795  1.00  0.00     0.039 C 
HETATM   10  C17 UNL     1      30.591  11.762  46.590  1.00  0.00     0.176 C 
HETATM   11  O2  UNL     1      29.940  12.995  46.546  1.00  0.00    -0.390 OA
HETATM   12  C18 UNL     1      29.788  13.504  47.835  1.00  0.00     0.168 C 
HETATM   13  C19 UNL     1      29.264  12.339  48.657  1.00  0.00     0.034 C 
HETATM   14  C20 UNL     1      28.581  11.314  47.812  1.00  0.00     0.022 C 
HETATM   15  C21 UNL     1      27.998  10.270  48.746  1.00  0.00     0.182 C 
HETATM   16  O3  UNL     1      28.982   9.271  49.063  1.00  0.00    -0.335 OA
ENDROOT
BRANCH   4  17
HETATM   17  C7  UNL     1      32.432   6.255  46.488  1.00  0.00     0.032 A 
HETATM   18  C8  UNL     1      32.868   6.147  45.192  1.00  0.00     0.032 A 
HETATM   19  C9  UNL     1      33.786   5.236  44.725  1.00  0.00     0.046 A 
HETATM   20  C10 UNL     1      34.343   4.332  45.610  1.00  0.00     0.138 A 
HETATM   21  F1  UNL     1      35.253   3.413  45.211  1.00  0.00    -0.204 F 
HETATM   22  C11 UNL     1      33.950   4.382  46.936  1.00  0.00     0.074 A 
HETATM   23 CL1  UNL     1      34.657   3.234  48.052  1.00  0.00    -0.081 Cl
HETATM   24  C12 UNL     1      33.025   5.327  47.313  1.00  0.00     0.056 A 
ENDBRANCH   4  17
BRANCH   1  25
HETATM   25  N1  UNL     1      27.543   7.021  49.131  1.00  0.00    -0.305 N 
HETATM   26  C3  UNL     1      27.752   5.690  48.782  1.00  0.00     0.243 C 
HETATM   27  O1  UNL     1      28.349   4.677  48.375  1.00  0.00    -0.269 OA
HETATM   28  H4  UNL     1      26.631   7.346  49.501  1.00  0.00     0.171 HD
BRANCH  26  29
HETATM   29  C2  UNL     1      26.620   4.780  48.956  1.00  0.00     0.048 C 
HETATM   30  C1  UNL     1      26.721   3.590  49.530  1.00  0.00     0.037 C 
ENDBRANCH  26  29
ENDBRANCH   1  25
TORSDOF 3
ENDMDL
MODEL 9
REMARK VINA RESULT:      -7.4      4.439      6.965
REMARK  3 active torsions:
REMARK  status: ('A' for Active; 'I' for Inactive)
REMARK    1  A    between atoms: C2_2  and  C3_3 
REMARK       I    between atoms: C3_3  and  N1_5 
REMARK    2  A    between atoms: N1_5  and  C4_6 
REMARK    3  A    between atoms: N2_9  and  C7_10 
ROOT
HETATM    1  C4  UNL     1      20.969   1.012  51.380  1.00  0.00     0.142 C 
HETATM    2  C5  UNL     1      21.000   1.647  50.193  1.00  0.00     0.049 C 
HETATM    3  C6  UNL     1      22.065   1.777  49.185  1.00  0.00     0.155 C 
HETATM    4  N2  UNL     1      22.564   3.070  48.913  1.00  0.00    -0.372 N 
HETATM    5  C13 UNL     1      23.317   3.562  50.072  1.00  0.00     0.167 C 
HETATM    6  P1  UNL     1      22.428   3.777  51.644  1.00  0.00    -0.029 P 
HETATM    7  C14 UNL     1      23.371   3.956  52.972  1.00  0.00    -0.017 C 
HETATM    8  C15 UNL     1      24.347   3.096  53.030  1.00  0.00    -0.006 C 
HETATM    9  C16 UNL     1      24.386   1.897  52.188  1.00  0.00     0.039 C 
HETATM   10  C17 UNL     1      25.836   1.619  51.844  1.00  0.00     0.176 C 
HETATM   11  O2  UNL     1      26.514   1.205  52.991  1.00  0.00    -0.390 OA
HETATM   12  C18 UNL     1      26.386  -0.174  53.152  1.00  0.00     0.168 C 
HETATM   13  C19 UNL     1      24.910  -0.459  52.937  1.00  0.00     0.034 C 
HETATM   14  C20 UNL     1      24.061   0.744  53.192  1.00  0.00     0.022 C 
HETATM   15  C21 UNL     1      22.612   0.311  53.066  1.00  0.00     0.182 C 
HETATM   16  O3  UNL     1      22.185   0.371  51.694  1.00  0.00    -0.335 OA
ENDROOT
BRANCH   4  17
HETATM   17  C7  UNL     1      22.389   3.785  47.702  1.00  0.00     0.032 A 
HETATM   18  C8  UNL     1      21.969   3.175  46.548  1.00  0.00     0.032 A 
HETATM   19  C9  UNL     1      21.762   3.798  45.339  1.00  0.00     0.046 A 
HETATM   20  C10 UNL     1      21.987   5.158  45.238  1.00  0.00     0.138 A 
HETATM   21  F1  UNL     1      21.800   5.827  44.076  1.00  0.00    -0.204 F 
HETATM   22  C11 UNL     1      22.413   5.840  46.365  1.00  0.00     0.074 A 
HETATM   23 CL1  UNL     1      22.697   7.562  46.232  1.00  0.00    -0.081 Cl
HETATM   24  C12 UNL     1      22.594   5.135  47.532  1.00  0.00     0.056 A 
ENDBRANCH   4  17
BRANCH   1  25
HETATM   25  N1  UNL     1      19.665   1.237  51.893  1.00  0.00    -0.305 N 
HETATM   26  C3  UNL     1      18.616   0.582  51.255  1.00  0.00     0.243 C 
HETATM   27  O1  UNL     1      18.033  -0.154  50.438  1.00  0.00    -0.269 OA
HETATM   28  H4  UNL     1      19.500   1.861  52.705  1.00  0.00     0.171 HD
BRANCH  26  29
HETATM   29  C2  UNL     1      17.274   0.823  51.782  1.00  0.00     0.048 C 
HETATM   30  C1  UNL     1      16.263   1.246  51.038  1.00  0.00     0.037 C 
ENDBRANCH  26  29
ENDBRANCH   1  25
TORSDOF 3
ENDMDL
