MODEL 1
REMARK VINA RESULT:      -9.4      0.000      0.000
REMARK  4 active torsions:
REMARK  status: ('A' for Active; 'I' for Inactive)
REMARK    1  A    between atoms: C3_3  and  C4_4 
REMARK       I    between atoms: C4_4  and  N1_6 
REMARK    2  A    between atoms: N1_6  and  C5_7 
REMARK    3  A    between atoms: C19_25  and  O2_26 
REMARK    4  A    between atoms: O2_26  and  C20_27 
ROOT
HETATM    1  C5  UNL     1      25.832   1.589  52.151  1.00  0.00     0.066 C 
HETATM    2  C6  UNL     1      24.699   1.088  52.691  1.00  0.00     0.030 C 
HETATM    3  C7  UNL     1      23.309   0.765  53.076  1.00  0.00     0.102 C 
HETATM    4  C8  UNL     1      22.392   1.877  53.193  1.00  0.00     0.044 C 
HETATM    5  C9  UNL     1      21.942   2.527  51.832  1.00  0.00     0.049 A 
HETATM    6  C10 UNL     1      22.432   1.675  50.875  1.00  0.00     0.050 A 
HETATM    7  C11 UNL     1      21.190   0.976  51.081  1.00  0.00     0.027 C 
HETATM    8  C12 UNL     1      20.232   0.270  51.541  1.00  0.00     0.110 C 
HETATM    9  F1  UNL     1      19.066   0.087  50.898  1.00  0.00    -0.209 F 
HETATM   10  C13 UNL     1      20.213  -0.573  52.835  1.00  0.00     0.079 C 
HETATM   11 CL1  UNL     1      18.681  -1.223  53.359  1.00  0.00    -0.117 Cl
HETATM   12  C14 UNL     1      20.801  -1.092  53.991  1.00  0.00     0.104 C 
HETATM   13  C15 UNL     1      22.197  -0.919  54.549  1.00  0.00     0.122 C 
HETATM   14  N2  UNL     1      23.200  -0.432  53.777  1.00  0.00    -0.413 N 
HETATM   15  C16 UNL     1      23.081   3.047  51.240  1.00  0.00     0.239 A 
HETATM   16  N3  UNL     1      22.889   4.227  52.121  1.00  0.00     0.321 N 
HETATM   17  C17 UNL     1      21.276   3.875  52.064  1.00  0.00     0.329 C 
HETATM   18  C18 UNL     1      24.387   3.415  50.680  1.00  0.00     0.058 C 
HETATM   19  C19 UNL     1      25.139   2.618  51.303  1.00  0.00     0.094 C 
HETATM   20  H15 UNL     1      23.806  -1.213  53.368  1.00  0.00     0.153 HD
ENDROOT
BRANCH   1  21
HETATM   21  N1  UNL     1      27.204   1.305  52.337  1.00  0.00    -0.321 N 
HETATM   22  C4  UNL     1      27.859   1.224  53.565  1.00  0.00     0.245 C 
HETATM   23  O1  UNL     1      27.029   1.446  54.498  1.00  0.00    -0.268 OA
HETATM   24  H6  UNL     1      27.693   1.155  51.416  1.00  0.00     0.169 HD
BRANCH  22  25
HETATM   25  C3  UNL     1      29.274   0.929  53.675  1.00  0.00     0.070 C 
HETATM   26  C2  UNL     1      29.807  -0.277  53.591  1.00  0.00    -0.026 C 
HETATM   27  C1  UNL     1      28.806  -1.382  53.357  1.00  0.00     0.036 C 
ENDBRANCH  22  25
ENDBRANCH   1  21
BRANCH  19  28
HETATM   28  O2  UNL     1      26.370   3.054  50.733  1.00  0.00    -0.349 OA
BRANCH  28  29
HETATM   29  C20 UNL     1      26.473   3.253  49.346  1.00  0.00     0.171 C 
HETATM   30  C21 UNL     1      27.268   4.496  49.012  1.00  0.00     0.034 C 
ENDBRANCH  28  29
ENDBRANCH  19  28
TORSDOF 4
ENDMDL
MODEL 2
REMARK VINA RESULT:      -9.1      3.615      6.599
REMARK  4 active torsions:
REMARK  status: ('A' for Active; 'I' for Inactive)
REMARK    1  A    between atoms: C3_3  and  C4_4 
REMARK       I    between atoms: C4_4  and  N1_6 
REMARK    2  A    between atoms: N1_6  and  C5_7 
REMARK    3  A    between atoms: C19_25  and  O2_26 
REMARK    4  A    between atoms: O2_26  and  C20_27 
ROOT
HETATM    1  C5  UNL     1      24.018   2.716  51.793  1.00  0.00     0.066 C 
HETATM    2  C6  UNL     1      25.191   2.381  52.372  1.00  0.00     0.030 C 
HETATM    3  C7  UNL     1      26.320   1.716  53.057  1.00  0.00     0.102 C 
HETATM    4  C8  UNL     1      25.989   0.855  54.170  1.00  0.00     0.044 C 
HETATM    5  C9  UNL     1      25.317  -0.516  53.787  1.00  0.00     0.049 A 
HETATM    6  C10 UNL     1      25.426  -0.572  52.420  1.00  0.00     0.050 A 
HETATM    7  C11 UNL     1      26.714  -1.154  52.700  1.00  0.00     0.027 C 
HETATM    8  C12 UNL     1      27.928  -1.364  53.032  1.00  0.00     0.110 C 
HETATM    9  F1  UNL     1      28.515  -2.571  52.983  1.00  0.00    -0.209 F 
HETATM   10  C13 UNL     1      28.986  -0.324  53.461  1.00  0.00     0.079 C 
HETATM   11 CL1  UNL     1      30.490  -0.918  54.116  1.00  0.00    -0.117 Cl
HETATM   12  C14 UNL     1      29.418   0.980  53.717  1.00  0.00     0.104 C 
HETATM   13  C15 UNL     1      28.687   2.300  53.602  1.00  0.00     0.122 C 
HETATM   14  N2  UNL     1      27.526   2.395  52.909  1.00  0.00    -0.413 N 
HETATM   15  C16 UNL     1      24.109  -0.215  53.179  1.00  0.00     0.239 A 
HETATM   16  N3  UNL     1      23.559  -0.077  54.551  1.00  0.00     0.321 N 
HETATM   17  C17 UNL     1      24.699  -1.182  55.007  1.00  0.00     0.329 C 
HETATM   18  C18 UNL     1      22.939   0.265  52.434  1.00  0.00     0.058 C 
HETATM   19  C19 UNL     1      23.337   1.410  52.089  1.00  0.00     0.094 C 
HETATM   20  H15 UNL     1      27.681   2.760  51.915  1.00  0.00     0.153 HD
ENDROOT
BRANCH   1  21
HETATM   21  N1  UNL     1      23.544   3.893  51.168  1.00  0.00    -0.321 N 
HETATM   22  C4  UNL     1      23.212   5.081  51.816  1.00  0.00     0.245 C 
HETATM   23  O1  UNL     1      23.401   4.945  53.063  1.00  0.00    -0.268 OA
HETATM   24  H6  UNL     1      23.470   3.769  50.125  1.00  0.00     0.169 HD
BRANCH  22  25
HETATM   25  C3  UNL     1      22.731   6.248  51.104  1.00  0.00     0.070 C 
HETATM   26  C2  UNL     1      23.499   7.179  50.564  1.00  0.00    -0.026 C 
HETATM   27  C1  UNL     1      24.979   6.938  50.737  1.00  0.00     0.036 C 
ENDBRANCH  22  25
ENDBRANCH   1  21
BRANCH  19  28
HETATM   28  O2  UNL     1      22.152   1.812  51.409  1.00  0.00    -0.349 OA
BRANCH  28  29
HETATM   29  C20 UNL     1      21.420   0.878  50.656  1.00  0.00     0.171 C 
HETATM   30  C21 UNL     1      21.248   1.321  49.220  1.00  0.00     0.034 C 
ENDBRANCH  28  29
ENDBRANCH  19  28
TORSDOF 4
ENDMDL
MODEL 3
REMARK VINA RESULT:      -9.1      1.062      1.178
REMARK  4 active torsions:
REMARK  status: ('A' for Active; 'I' for Inactive)
REMARK    1  A    between atoms: C3_3  and  C4_4 
REMARK       I    between atoms: C4_4  and  N1_6 
REMARK    2  A    between atoms: N1_6  and  C5_7 
REMARK    3  A    between atoms: C19_25  and  O2_26 
REMARK    4  A    between atoms: O2_26  and  C20_27 
ROOT
HETATM    1  C5  UNL     1      25.575   2.516  51.728  1.00  0.00     0.066 C 
HETATM    2  C6  UNL     1      24.400   1.996  52.146  1.00  0.00     0.030 C 
HETATM    3  C7  UNL     1      22.984   1.641  52.375  1.00  0.00     0.102 C 
HETATM    4  C8  UNL     1      22.028   2.726  52.342  1.00  0.00     0.044 C 
HETATM    5  C9  UNL     1      21.727   3.317  50.915  1.00  0.00     0.049 A 
HETATM    6  C10 UNL     1      22.352   2.451  50.054  1.00  0.00     0.050 A 
HETATM    7  C11 UNL     1      21.114   1.719  50.135  1.00  0.00     0.027 C 
HETATM    8  C12 UNL     1      20.128   0.998  50.503  1.00  0.00     0.110 C 
HETATM    9  F1  UNL     1      19.054   0.757  49.733  1.00  0.00    -0.209 F 
HETATM   10  C13 UNL     1      19.978   0.197  51.814  1.00  0.00     0.079 C 
HETATM   11 CL1  UNL     1      18.413  -0.486  52.175  1.00  0.00    -0.117 Cl
HETATM   12  C14 UNL     1      20.437  -0.266  53.050  1.00  0.00     0.104 C 
HETATM   13  C15 UNL     1      21.751  -0.030  53.764  1.00  0.00     0.122 C 
HETATM   14  N2  UNL     1      22.825   0.464  53.100  1.00  0.00    -0.413 N 
HETATM   15  C16 UNL     1      22.913   3.855  50.444  1.00  0.00     0.239 A 
HETATM   16  N3  UNL     1      22.584   5.055  51.254  1.00  0.00     0.321 N 
HETATM   17  C17 UNL     1      21.000   4.650  51.018  1.00  0.00     0.329 C 
HETATM   18  C18 UNL     1      24.267   4.246  50.031  1.00  0.00     0.058 C 
HETATM   19  C19 UNL     1      24.960   3.495  50.768  1.00  0.00     0.094 C 
HETATM   20  H15 UNL     1      23.498  -0.310  52.794  1.00  0.00     0.153 HD
ENDROOT
BRANCH   1  21
HETATM   21  N1  UNL     1      26.923   2.283  52.086  1.00  0.00    -0.321 N 
HETATM   22  C4  UNL     1      27.405   2.137  53.385  1.00  0.00     0.245 C 
HETATM   23  O1  UNL     1      26.443   2.246  54.204  1.00  0.00    -0.268 OA
HETATM   24  H6  UNL     1      27.541   2.228  51.236  1.00  0.00     0.169 HD
BRANCH  22  25
HETATM   25  C3  UNL     1      28.806   1.900  53.674  1.00  0.00     0.070 C 
HETATM   26  C2  UNL     1      29.360   0.710  53.824  1.00  0.00    -0.026 C 
HETATM   27  C1  UNL     1      28.401  -0.445  53.665  1.00  0.00     0.036 C 
ENDBRANCH  22  25
ENDBRANCH   1  21
BRANCH  19  28
HETATM   28  O2  UNL     1      26.238   3.951  50.333  1.00  0.00    -0.349 OA
BRANCH  28  29
HETATM   29  C20 UNL     1      26.340   4.812  49.226  1.00  0.00     0.171 C 
HETATM   30  C21 UNL     1      27.739   4.824  48.649  1.00  0.00     0.034 C 
ENDBRANCH  28  29
ENDBRANCH  19  28
TORSDOF 4
ENDMDL
MODEL 4
REMARK VINA RESULT:      -9.0      3.404      5.681
REMARK  4 active torsions:
REMARK  status: ('A' for Active; 'I' for Inactive)
REMARK    1  A    between atoms: C3_3  and  C4_4 
REMARK       I    between atoms: C4_4  and  N1_6 
REMARK    2  A    between atoms: N1_6  and  C5_7 
REMARK    3  A    between atoms: C19_25  and  O2_26 
REMARK    4  A    between atoms: O2_26  and  C20_27 
ROOT
HETATM    1  C5  UNL     1      25.381   1.387  52.208  1.00  0.00     0.066 C 
HETATM    2  C6  UNL     1      25.634   2.317  51.260  1.00  0.00     0.030 C 
HETATM    3  C7  UNL     1      25.573   3.366  50.221  1.00  0.00     0.102 C 
HETATM    4  C8  UNL     1      24.495   3.269  49.262  1.00  0.00     0.044 C 
HETATM    5  C9  UNL     1      23.066   3.629  49.815  1.00  0.00     0.049 A 
HETATM    6  C10 UNL     1      23.309   4.142  51.064  1.00  0.00     0.050 A 
HETATM    7  C11 UNL     1      23.470   5.385  50.354  1.00  0.00     0.027 C 
HETATM    8  C12 UNL     1      23.890   6.347  49.630  1.00  0.00     0.110 C 
HETATM    9  F1  UNL     1      23.214   7.495  49.450  1.00  0.00    -0.209 F 
HETATM   10  C13 UNL     1      25.245   6.460  48.897  1.00  0.00     0.079 C 
HETATM   11 CL1  UNL     1      25.448   7.769  47.761  1.00  0.00    -0.117 Cl
HETATM   12  C14 UNL     1      26.512   5.990  48.543  1.00  0.00     0.104 C 
HETATM   13  C15 UNL     1      27.232   4.715  48.929  1.00  0.00     0.122 C 
HETATM   14  N2  UNL     1      26.805   3.963  49.973  1.00  0.00    -0.413 N 
HETATM   15  C16 UNL     1      22.770   2.701  50.799  1.00  0.00     0.239 A 
HETATM   16  N3  UNL     1      22.358   1.798  49.695  1.00  0.00     0.321 N 
HETATM   17  C17 UNL     1      21.978   3.169  48.856  1.00  0.00     0.329 C 
HETATM   18  C18 UNL     1      22.667   1.740  51.905  1.00  0.00     0.058 C 
HETATM   19  C19 UNL     1      23.885   1.507  52.124  1.00  0.00     0.094 C 
HETATM   20  H15 UNL     1      27.358   4.167  50.867  1.00  0.00     0.153 HD
ENDROOT
BRANCH   1  21
HETATM   21  N1  UNL     1      26.206   0.542  52.984  1.00  0.00    -0.321 N 
HETATM   22  C4  UNL     1      26.908   0.916  54.128  1.00  0.00     0.245 C 
HETATM   23  O1  UNL     1      26.693   2.142  54.369  1.00  0.00    -0.268 OA
HETATM   24  H6  UNL     1      26.231  -0.435  52.591  1.00  0.00     0.169 HD
BRANCH  22  25
HETATM   25  C3  UNL     1      27.737  -0.011  54.871  1.00  0.00     0.070 C 
HETATM   26  C2  UNL     1      29.011  -0.260  54.621  1.00  0.00    -0.026 C 
HETATM   27  C1  UNL     1      29.579   0.522  53.462  1.00  0.00     0.036 C 
ENDBRANCH  22  25
ENDBRANCH   1  21
BRANCH  19  28
HETATM   28  O2  UNL     1      23.699   0.560  53.172  1.00  0.00    -0.349 OA
BRANCH  28  29
HETATM   29  C20 UNL     1      22.609  -0.328  53.135  1.00  0.00     0.171 C 
HETATM   30  C21 UNL     1      22.287  -0.883  54.504  1.00  0.00     0.034 C 
ENDBRANCH  28  29
ENDBRANCH  19  28
TORSDOF 4
ENDMDL
MODEL 5
REMARK VINA RESULT:      -8.9      3.665      6.659
REMARK  4 active torsions:
REMARK  status: ('A' for Active; 'I' for Inactive)
REMARK    1  A    between atoms: C3_3  and  C4_4 
REMARK       I    between atoms: C4_4  and  N1_6 
REMARK    2  A    between atoms: N1_6  and  C5_7 
REMARK    3  A    between atoms: C19_25  and  O2_26 
REMARK    4  A    between atoms: O2_26  and  C20_27 
ROOT
HETATM    1  C5  UNL     1      22.741   0.329  52.635  1.00  0.00     0.066 C 
HETATM    2  C6  UNL     1      24.041  -0.035  52.603  1.00  0.00     0.030 C 
HETATM    3  C7  UNL     1      25.516  -0.101  52.534  1.00  0.00     0.102 C 
HETATM    4  C8  UNL     1      26.164   0.793  51.600  1.00  0.00     0.044 C 
HETATM    5  C9  UNL     1      26.176   2.311  52.016  1.00  0.00     0.049 A 
HETATM    6  C10 UNL     1      25.711   2.309  53.308  1.00  0.00     0.050 A 
HETATM    7  C11 UNL     1      27.094   2.090  53.643  1.00  0.00     0.027 C 
HETATM    8  C12 UNL     1      28.258   1.599  53.822  1.00  0.00     0.110 C 
HETATM    9  F1  UNL     1      29.284   2.290  54.348  1.00  0.00    -0.209 F 
HETATM   10  C13 UNL     1      28.723   0.147  53.577  1.00  0.00     0.079 C 
HETATM   11 CL1  UNL     1      30.435  -0.182  53.653  1.00  0.00    -0.117 Cl
HETATM   12  C14 UNL     1      28.509  -1.182  53.206  1.00  0.00     0.104 C 
HETATM   13  C15 UNL     1      27.249  -1.888  52.753  1.00  0.00     0.122 C 
HETATM   14  N2  UNL     1      26.029  -1.327  52.946  1.00  0.00    -0.413 N 
HETATM   15  C16 UNL     1      24.855   2.724  52.069  1.00  0.00     0.239 A 
HETATM   16  N3  UNL     1      24.947   2.898  50.598  1.00  0.00     0.321 N 
HETATM   17  C17 UNL     1      26.554   3.197  50.839  1.00  0.00     0.329 C 
HETATM   18  C18 UNL     1      23.415   2.967  52.219  1.00  0.00     0.058 C 
HETATM   19  C19 UNL     1      23.001   1.793  52.417  1.00  0.00     0.094 C 
HETATM   20  H15 UNL     1      25.546  -1.710  53.821  1.00  0.00     0.153 HD
ENDROOT
BRANCH   1  21
HETATM   21  N1  UNL     1      21.532  -0.393  52.768  1.00  0.00    -0.321 N 
HETATM   22  C4  UNL     1      20.901  -0.708  53.970  1.00  0.00     0.245 C 
HETATM   23  O1  UNL     1      21.583  -0.247  54.934  1.00  0.00    -0.268 OA
HETATM   24  H6  UNL     1      21.147  -0.672  51.828  1.00  0.00     0.169 HD
BRANCH  22  25
HETATM   25  C3  UNL     1      19.660  -1.455  54.025  1.00  0.00     0.070 C 
HETATM   26  C2  UNL     1      18.606  -1.233  53.259  1.00  0.00    -0.026 C 
HETATM   27  C1  UNL     1      18.782  -0.105  52.273  1.00  0.00     0.036 C 
ENDBRANCH  22  25
ENDBRANCH   1  21
BRANCH  19  28
HETATM   28  O2  UNL     1      21.616   2.109  52.521  1.00  0.00    -0.349 OA
BRANCH  28  29
HETATM   29  C20 UNL     1      21.141   3.353  52.072  1.00  0.00     0.171 C 
HETATM   30  C21 UNL     1      19.970   3.202  51.126  1.00  0.00     0.034 C 
ENDBRANCH  28  29
ENDBRANCH  19  28
TORSDOF 4
ENDMDL
MODEL 6
REMARK VINA RESULT:      -8.3      4.392      6.903
REMARK  4 active torsions:
REMARK  status: ('A' for Active; 'I' for Inactive)
REMARK    1  A    between atoms: C3_3  and  C4_4 
REMARK       I    between atoms: C4_4  and  N1_6 
REMARK    2  A    between atoms: N1_6  and  C5_7 
REMARK    3  A    between atoms: C19_25  and  O2_26 
REMARK    4  A    between atoms: O2_26  and  C20_27 
ROOT
HETATM    1  C5  UNL     1      25.390   2.800  51.186  1.00  0.00     0.066 C 
HETATM    2  C6  UNL     1      25.983   3.722  50.397  1.00  0.00     0.030 C 
HETATM    3  C7  UNL     1      26.348   4.906  49.591  1.00  0.00     0.102 C 
HETATM    4  C8  UNL     1      25.290   5.518  48.818  1.00  0.00     0.044 C 
HETATM    5  C9  UNL     1      24.223   6.321  49.652  1.00  0.00     0.049 A 
HETATM    6  C10 UNL     1      24.750   6.365  50.918  1.00  0.00     0.050 A 
HETATM    7  C11 UNL     1      25.421   7.543  50.431  1.00  0.00     0.027 C 
HETATM    8  C12 UNL     1      26.192   8.368  49.838  1.00  0.00     0.110 C 
HETATM    9  F1  UNL     1      26.109   9.702  49.983  1.00  0.00    -0.209 F 
HETATM   10  C13 UNL     1      27.399   8.051  48.928  1.00  0.00     0.079 C 
HETATM   11 CL1  UNL     1      28.111   9.370  48.034  1.00  0.00    -0.117 Cl
HETATM   12  C14 UNL     1      28.283   7.176  48.294  1.00  0.00     0.104 C 
HETATM   13  C15 UNL     1      28.359   5.664  48.317  1.00  0.00     0.122 C 
HETATM   14  N2  UNL     1      27.699   4.949  49.261  1.00  0.00    -0.413 N 
HETATM   15  C16 UNL     1      23.594   5.409  50.484  1.00  0.00     0.239 A 
HETATM   16  N3  UNL     1      22.747   5.065  49.314  1.00  0.00     0.321 N 
HETATM   17  C17 UNL     1      22.989   6.621  48.814  1.00  0.00     0.329 C 
HETATM   18  C18 UNL     1      23.129   4.358  51.397  1.00  0.00     0.058 C 
HETATM   19  C19 UNL     1      24.114   3.573  51.369  1.00  0.00     0.094 C 
HETATM   20  H15 UNL     1      28.338   4.674  50.075  1.00  0.00     0.153 HD
ENDROOT
BRANCH   1  21
HETATM   21  N1  UNL     1      25.780   1.522  51.649  1.00  0.00    -0.321 N 
HETATM   22  C4  UNL     1      27.013   1.203  52.214  1.00  0.00     0.245 C 
HETATM   23  O1  UNL     1      27.740   2.242  52.248  1.00  0.00    -0.268 OA
HETATM   24  H6  UNL     1      25.009   0.816  51.519  1.00  0.00     0.169 HD
BRANCH  22  25
HETATM   25  C3  UNL     1      27.340  -0.135  52.666  1.00  0.00     0.070 C 
HETATM   26  C2  UNL     1      27.149  -0.590  53.892  1.00  0.00    -0.026 C 
HETATM   27  C1  UNL     1      26.535   0.414  54.837  1.00  0.00     0.036 C 
ENDBRANCH  22  25
ENDBRANCH   1  21
BRANCH  19  28
HETATM   28  O2  UNL     1      23.578   2.584  52.242  1.00  0.00    -0.349 OA
BRANCH  28  29
HETATM   29  C20 UNL     1      22.217   2.240  52.166  1.00  0.00     0.171 C 
HETATM   30  C21 UNL     1      22.017   0.839  51.632  1.00  0.00     0.034 C 
ENDBRANCH  28  29
ENDBRANCH  19  28
TORSDOF 4
ENDMDL
MODEL 7
REMARK VINA RESULT:      -8.1      3.494      5.470
REMARK  4 active torsions:
REMARK  status: ('A' for Active; 'I' for Inactive)
REMARK    1  A    between atoms: C3_3  and  C4_4 
REMARK       I    between atoms: C4_4  and  N1_6 
REMARK    2  A    between atoms: N1_6  and  C5_7 
REMARK    3  A    between atoms: C19_25  and  O2_26 
REMARK    4  A    between atoms: O2_26  and  C20_27 
ROOT
HETATM    1  C5  UNL     1      24.793   2.836  52.223  1.00  0.00     0.066 C 
HETATM    2  C6  UNL     1      24.547   4.014  51.610  1.00  0.00     0.030 C 
HETATM    3  C7  UNL     1      24.009   5.138  50.816  1.00  0.00     0.102 C 
HETATM    4  C8  UNL     1      23.447   4.812  49.524  1.00  0.00     0.044 C 
HETATM    5  C9  UNL     1      22.058   4.073  49.558  1.00  0.00     0.049 A 
HETATM    6  C10 UNL     1      21.679   4.133  50.876  1.00  0.00     0.050 A 
HETATM    7  C11 UNL     1      21.120   5.405  50.498  1.00  0.00     0.027 C 
HETATM    8  C12 UNL     1      20.936   6.620  50.156  1.00  0.00     0.110 C 
HETATM    9  F1  UNL     1      19.724   7.157  49.935  1.00  0.00    -0.209 F 
HETATM   10  C13 UNL     1      21.996   7.733  50.010  1.00  0.00     0.079 C 
HETATM   11 CL1  UNL     1      21.501   9.235  49.270  1.00  0.00    -0.117 Cl
HETATM   12  C14 UNL     1      23.302   8.226  50.078  1.00  0.00     0.104 C 
HETATM   13  C15 UNL     1      24.592   7.545  50.481  1.00  0.00     0.122 C 
HETATM   14  N2  UNL     1      24.576   6.365  51.149  1.00  0.00    -0.413 N 
HETATM   15  C16 UNL     1      22.265   2.858  50.190  1.00  0.00     0.239 A 
HETATM   16  N3  UNL     1      22.746   2.362  48.876  1.00  0.00     0.321 N 
HETATM   17  C17 UNL     1      21.725   3.472  48.201  1.00  0.00     0.329 C 
HETATM   18  C18 UNL     1      22.612   1.683  50.998  1.00  0.00     0.058 C 
HETATM   19  C19 UNL     1      23.625   2.114  51.612  1.00  0.00     0.094 C 
HETATM   20  H15 UNL     1      24.691   6.500  52.204  1.00  0.00     0.153 HD
ENDROOT
BRANCH   1  21
HETATM   21  N1  UNL     1      25.812   2.388  53.095  1.00  0.00    -0.321 N 
HETATM   22  C4  UNL     1      27.142   2.163  52.744  1.00  0.00     0.245 C 
HETATM   23  O1  UNL     1      27.300   2.422  51.513  1.00  0.00    -0.268 OA
HETATM   24  H6  UNL     1      25.444   2.241  54.071  1.00  0.00     0.169 HD
BRANCH  22  25
HETATM   25  C3  UNL     1      28.131   1.702  53.698  1.00  0.00     0.070 C 
HETATM   26  C2  UNL     1      28.462   0.437  53.897  1.00  0.00    -0.026 C 
HETATM   27  C1  UNL     1      27.717  -0.543  53.024  1.00  0.00     0.036 C 
ENDBRANCH  22  25
ENDBRANCH   1  21
BRANCH  19  28
HETATM   28  O2  UNL     1      23.912   0.923  52.338  1.00  0.00    -0.349 OA
BRANCH  28  29
HETATM   29  C20 UNL     1      22.889   0.260  53.038  1.00  0.00     0.171 C 
HETATM   30  C21 UNL     1      23.442  -0.696  54.073  1.00  0.00     0.034 C 
ENDBRANCH  28  29
ENDBRANCH  19  28
TORSDOF 4
ENDMDL
MODEL 8
REMARK VINA RESULT:      -8.1      2.947      4.916
REMARK  4 active torsions:
REMARK  status: ('A' for Active; 'I' for Inactive)
REMARK    1  A    between atoms: C3_3  and  C4_4 
REMARK       I    between atoms: C4_4  and  N1_6 
REMARK    2  A    between atoms: N1_6  and  C5_7 
REMARK    3  A    between atoms: C19_25  and  O2_26 
REMARK    4  A    between atoms: O2_26  and  C20_27 
ROOT
HETATM    1  C5  UNL     1      25.044   4.770  49.381  1.00  0.00     0.066 C 
HETATM    2  C6  UNL     1      25.152   4.000  50.486  1.00  0.00     0.030 C 
HETATM    3  C7  UNL     1      24.935   3.127  51.659  1.00  0.00     0.102 C 
HETATM    4  C8  UNL     1      23.745   3.376  52.443  1.00  0.00     0.044 C 
HETATM    5  C9  UNL     1      22.391   2.938  51.772  1.00  0.00     0.049 A 
HETATM    6  C10 UNL     1      22.779   2.235  50.659  1.00  0.00     0.050 A 
HETATM    7  C11 UNL     1      22.819   1.118  51.568  1.00  0.00     0.027 C 
HETATM    8  C12 UNL     1      23.121   0.280  52.482  1.00  0.00     0.110 C 
HETATM    9  F1  UNL     1      22.400  -0.823  52.748  1.00  0.00    -0.209 F 
HETATM   10  C13 UNL     1      24.368   0.279  53.392  1.00  0.00     0.079 C 
HETATM   11 CL1  UNL     1      24.393  -0.836  54.734  1.00  0.00    -0.117 Cl
HETATM   12  C14 UNL     1      25.589   0.796  53.831  1.00  0.00     0.104 C 
HETATM   13  C15 UNL     1      26.383   1.992  53.349  1.00  0.00     0.122 C 
HETATM   14  N2  UNL     1      26.111   2.572  52.154  1.00  0.00    -0.413 N 
HETATM   15  C16 UNL     1      22.245   3.702  50.626  1.00  0.00     0.239 A 
HETATM   16  N3  UNL     1      21.717   4.768  51.514  1.00  0.00     0.321 N 
HETATM   17  C17 UNL     1      21.200   3.546  52.498  1.00  0.00     0.329 C 
HETATM   18  C18 UNL     1      22.306   4.477  49.381  1.00  0.00     0.058 C 
HETATM   19  C19 UNL     1      23.548   4.670  49.288  1.00  0.00     0.094 C 
HETATM   20  H15 UNL     1      26.769   2.228  51.383  1.00  0.00     0.153 HD
ENDROOT
BRANCH   1  21
HETATM   21  N1  UNL     1      25.982   5.481  48.598  1.00  0.00    -0.321 N 
HETATM   22  C4  UNL     1      26.557   6.706  48.929  1.00  0.00     0.245 C 
HETATM   23  O1  UNL     1      26.106   7.090  50.051  1.00  0.00    -0.268 OA
HETATM   24  H6  UNL     1      26.207   4.964  47.708  1.00  0.00     0.169 HD
BRANCH  22  25
HETATM   25  C3  UNL     1      27.513   7.376  48.070  1.00  0.00     0.070 C 
HETATM   26  C2  UNL     1      28.702   6.901  47.742  1.00  0.00    -0.026 C 
HETATM   27  C1  UNL     1      29.017   5.551  48.340  1.00  0.00     0.036 C 
ENDBRANCH  22  25
ENDBRANCH   1  21
BRANCH  19  28
HETATM   28  O2  UNL     1      23.519   5.441  48.091  1.00  0.00    -0.349 OA
BRANCH  28  29
HETATM   29  C20 UNL     1      22.540   6.435  47.915  1.00  0.00     0.171 C 
HETATM   30  C21 UNL     1      23.147   7.819  47.848  1.00  0.00     0.034 C 
ENDBRANCH  28  29
ENDBRANCH  19  28
TORSDOF 4
ENDMDL
MODEL 9
REMARK VINA RESULT:      -8.0      3.193      5.245
REMARK  4 active torsions:
REMARK  status: ('A' for Active; 'I' for Inactive)
REMARK    1  A    between atoms: C3_3  and  C4_4 
REMARK       I    between atoms: C4_4  and  N1_6 
REMARK    2  A    between atoms: N1_6  and  C5_7 
REMARK    3  A    between atoms: C19_25  and  O2_26 
REMARK    4  A    between atoms: O2_26  and  C20_27 
ROOT
HETATM    1  C5  UNL     1      25.946   5.849  49.304  1.00  0.00     0.066 C 
HETATM    2  C6  UNL     1      25.486   4.946  50.198  1.00  0.00     0.030 C 
HETATM    3  C7  UNL     1      24.695   3.988  50.998  1.00  0.00     0.102 C 
HETATM    4  C8  UNL     1      23.313   4.333  51.247  1.00  0.00     0.044 C 
HETATM    5  C9  UNL     1      22.352   4.206  50.008  1.00  0.00     0.049 A 
HETATM    6  C10 UNL     1      23.117   3.585  49.052  1.00  0.00     0.050 A 
HETATM    7  C11 UNL     1      22.648   2.377  49.681  1.00  0.00     0.027 C 
HETATM    8  C12 UNL     1      22.439   1.399  50.473  1.00  0.00     0.110 C 
HETATM    9  F1  UNL     1      21.572   0.405  50.215  1.00  0.00    -0.209 F 
HETATM   10  C13 UNL     1      23.157   1.087  51.804  1.00  0.00     0.079 C 
HETATM   11 CL1  UNL     1      22.486  -0.169  52.813  1.00  0.00    -0.117 Cl
HETATM   12  C14 UNL     1      24.108   1.341  52.794  1.00  0.00     0.104 C 
HETATM   13  C15 UNL     1      25.143   2.439  52.907  1.00  0.00     0.122 C 
HETATM   14  N2  UNL     1      25.478   3.194  51.831  1.00  0.00    -0.413 N 
HETATM   15  C16 UNL     1      22.796   5.113  49.060  1.00  0.00     0.239 A 
HETATM   16  N3  UNL     1      22.038   6.138  49.821  1.00  0.00     0.321 N 
HETATM   17  C17 UNL     1      21.028   4.910  50.268  1.00  0.00     0.329 C 
HETATM   18  C18 UNL     1      23.468   6.010  48.112  1.00  0.00     0.058 C 
HETATM   19  C19 UNL     1      24.638   6.007  48.580  1.00  0.00     0.094 C 
HETATM   20  H15 UNL     1      26.370   2.841  51.355  1.00  0.00     0.153 HD
ENDROOT
BRANCH   1  21
HETATM   21  N1  UNL     1      27.195   6.485  49.121  1.00  0.00    -0.321 N 
HETATM   22  C4  UNL     1      28.324   5.910  48.540  1.00  0.00     0.245 C 
HETATM   23  O1  UNL     1      28.058   4.718  48.200  1.00  0.00    -0.268 OA
HETATM   24  H6  UNL     1      27.177   7.475  49.480  1.00  0.00     0.169 HD
BRANCH  22  25
HETATM   25  C3  UNL     1      29.573   6.629  48.388  1.00  0.00     0.070 C 
HETATM   26  C2  UNL     1      29.829   7.514  47.440  1.00  0.00    -0.026 C 
HETATM   27  C1  UNL     1      28.685   7.746  46.484  1.00  0.00     0.036 C 
ENDBRANCH  22  25
ENDBRANCH   1  21
BRANCH  19  28
HETATM   28  O2  UNL     1      25.209   6.909  47.637  1.00  0.00    -0.349 OA
BRANCH  28  29
HETATM   29  C20 UNL     1      24.396   7.847  46.977  1.00  0.00     0.171 C 
HETATM   30  C21 UNL     1      25.033   8.344  45.698  1.00  0.00     0.034 C 
ENDBRANCH  28  29
ENDBRANCH  19  28
TORSDOF 4
ENDMDL
