MODEL 1
REMARK VINA RESULT:      -7.3      0.000      0.000
REMARK  2 active torsions:
REMARK  status: ('A' for Active; 'I' for Inactive)
REMARK    1  A    between atoms: O1_2  and  C2_3 
REMARK    2  A    between atoms: N3_14  and  C10_15 
ROOT
HETATM    1  C2  UNL     1      26.583   1.941  53.214  1.00  0.00     0.125 C 
HETATM    2  C3  UNL     1      26.677   0.457  53.437  1.00  0.00     0.058 C 
HETATM    3  C4  UNL     1      25.140   2.415  53.394  1.00  0.00     0.049 C 
HETATM    4  C5  UNL     1      24.735   1.848  52.246  1.00  0.00     0.061 C 
HETATM    5  C6  UNL     1      25.725   1.734  51.147  1.00  0.00     0.068 C 
HETATM    6  C7  UNL     1      26.757   2.342  51.788  1.00  0.00     0.094 C 
HETATM    7  O2  UNL     1      27.230   2.920  50.564  1.00  0.00    -0.304 OA
HETATM    8  C8  UNL     1      26.204   3.762  49.981  1.00  0.00     0.431 C 
HETATM    9  N1  UNL     1      24.928   3.854  49.768  1.00  0.00    -0.360 NA
HETATM   10  C9  UNL     1      23.915   2.958  50.120  1.00  0.00     0.221 C 
HETATM   11  N2  UNL     1      23.081   2.077  50.629  1.00  0.00    -0.163 NA
HETATM   12  N3  UNL     1      23.394   1.477  51.860  1.00  0.00    -0.225 N 
ENDROOT
BRANCH  12  13
HETATM   13  C10 UNL     1      22.604   0.658  52.694  1.00  0.00     0.113 A 
HETATM   14  C11 UNL     1      21.472   1.266  53.011  1.00  0.00     0.046 A 
HETATM   15 BR1  UNL     1      21.111   3.020  52.341  1.00  0.00    -0.048 Br
HETATM   16  C12 UNL     1      20.465   0.620  53.878  1.00  0.00     0.019 A 
HETATM   17  C13 UNL     1      20.665  -0.593  54.368  1.00  0.00    -0.015 A 
HETATM   18  C14 UNL     1      21.757  -1.596  54.268  1.00  0.00     0.108 A 
HETATM   19  S1  UNL     1      23.122  -0.969  53.215  1.00  0.00    -0.105 SA
ENDBRANCH  12  13
BRANCH   1  20
HETATM   20  O1  UNL     1      27.406   2.585  54.094  1.00  0.00    -0.374 OA
HETATM   21  C1  UNL     1      28.728   2.452  53.765  1.00  0.00     0.203 C 
ENDBRANCH   1  20
TORSDOF 2
ENDMDL
MODEL 2
REMARK VINA RESULT:      -7.1      2.620      4.962
REMARK  2 active torsions:
REMARK  status: ('A' for Active; 'I' for Inactive)
REMARK    1  A    between atoms: O1_2  and  C2_3 
REMARK    2  A    between atoms: N3_14  and  C10_15 
ROOT
HETATM    1  C2  UNL     1      27.944   1.074  53.423  1.00  0.00     0.125 C 
HETATM    2  C3  UNL     1      28.308   2.490  53.772  1.00  0.00     0.058 C 
HETATM    3  C4  UNL     1      27.231   1.027  52.070  1.00  0.00     0.049 C 
HETATM    4  C5  UNL     1      26.110   1.581  52.560  1.00  0.00     0.061 C 
HETATM    5  C6  UNL     1      25.782   1.326  53.984  1.00  0.00     0.068 C 
HETATM    6  C7  UNL     1      26.839   0.518  54.258  1.00  0.00     0.094 C 
HETATM    7  O2  UNL     1      26.055  -0.270  55.163  1.00  0.00    -0.304 OA
HETATM    8  C8  UNL     1      24.922  -0.849  54.468  1.00  0.00     0.431 C 
HETATM    9  N1  UNL     1      24.017  -0.609  53.572  1.00  0.00    -0.360 NA
HETATM   10  C9  UNL     1      23.809   0.555  52.828  1.00  0.00     0.221 C 
HETATM   11  N2  UNL     1      23.828   1.670  52.129  1.00  0.00    -0.163 NA
HETATM   12  N3  UNL     1      25.066   2.267  51.837  1.00  0.00    -0.225 N 
ENDROOT
BRANCH  12  13
HETATM   13  C10 UNL     1      25.371   3.338  50.972  1.00  0.00     0.113 A 
HETATM   14  C11 UNL     1      24.660   4.410  51.284  1.00  0.00     0.046 A 
HETATM   15 BR1  UNL     1      23.428   4.345  52.744  1.00  0.00    -0.048 Br
HETATM   16  C12 UNL     1      24.793   5.671  50.526  1.00  0.00     0.019 A 
HETATM   17  C13 UNL     1      25.630   5.770  49.507  1.00  0.00    -0.015 A 
HETATM   18  C14 UNL     1      26.585   4.845  48.842  1.00  0.00     0.108 A 
HETATM   19  S1  UNL     1      26.565   3.198  49.652  1.00  0.00    -0.105 SA
ENDBRANCH  12  13
BRANCH   1  20
HETATM   20  O1  UNL     1      29.075   0.309  53.388  1.00  0.00    -0.374 OA
HETATM   21  C1  UNL     1      28.798  -1.029  53.318  1.00  0.00     0.203 C 
ENDBRANCH   1  20
TORSDOF 2
ENDMDL
MODEL 3
REMARK VINA RESULT:      -7.0      3.307      5.351
REMARK  2 active torsions:
REMARK  status: ('A' for Active; 'I' for Inactive)
REMARK    1  A    between atoms: O1_2  and  C2_3 
REMARK    2  A    between atoms: N3_14  and  C10_15 
ROOT
HETATM    1  C2  UNL     1      21.135   1.486  50.293  1.00  0.00     0.125 C 
HETATM    2  C3  UNL     1      20.952   0.302  51.201  1.00  0.00     0.058 C 
HETATM    3  C4  UNL     1      22.620   1.823  50.152  1.00  0.00     0.049 C 
HETATM    4  C5  UNL     1      22.703   2.307  51.402  1.00  0.00     0.061 C 
HETATM    5  C6  UNL     1      21.485   2.925  51.983  1.00  0.00     0.068 C 
HETATM    6  C7  UNL     1      20.686   2.775  50.895  1.00  0.00     0.094 C 
HETATM    7  O2  UNL     1      20.009   4.008  51.170  1.00  0.00    -0.304 OA
HETATM    8  C8  UNL     1      20.955   5.108  51.169  1.00  0.00     0.431 C 
HETATM    9  N1  UNL     1      22.153   5.451  51.525  1.00  0.00    -0.360 NA
HETATM   10  C9  UNL     1      23.129   4.684  52.168  1.00  0.00     0.221 C 
HETATM   11  N2  UNL     1      23.967   3.798  52.659  1.00  0.00    -0.163 NA
HETATM   12  N3  UNL     1      23.881   2.466  52.220  1.00  0.00    -0.225 N 
ENDROOT
BRANCH  12  13
HETATM   13  C10 UNL     1      24.756   1.382  52.444  1.00  0.00     0.113 A 
HETATM   14  C11 UNL     1      25.874   1.531  51.752  1.00  0.00     0.046 A 
HETATM   15 BR1  UNL     1      26.112   3.071  50.645  1.00  0.00    -0.048 Br
HETATM   16  C12 UNL     1      26.958   0.529  51.811  1.00  0.00     0.019 A 
HETATM   17  C13 UNL     1      26.845  -0.555  52.561  1.00  0.00    -0.015 A 
HETATM   18  C14 UNL     1      25.797  -1.098  53.466  1.00  0.00     0.108 A 
HETATM   19  S1  UNL     1      24.346   0.023  53.527  1.00  0.00    -0.105 SA
ENDBRANCH  12  13
BRANCH   1  20
HETATM   20  O1  UNL     1      20.595   1.208  49.070  1.00  0.00    -0.374 OA
HETATM   21  C1  UNL     1      20.764   2.233  48.179  1.00  0.00     0.203 C 
ENDBRANCH   1  20
TORSDOF 2
ENDMDL
MODEL 4
REMARK VINA RESULT:      -6.9      2.493      4.996
REMARK  2 active torsions:
REMARK  status: ('A' for Active; 'I' for Inactive)
REMARK    1  A    between atoms: O1_2  and  C2_3 
REMARK    2  A    between atoms: N3_14  and  C10_15 
ROOT
HETATM    1  C2  UNL     1      25.732   0.804  53.293  1.00  0.00     0.125 C 
HETATM    2  C3  UNL     1      26.115   2.082  53.984  1.00  0.00     0.058 C 
HETATM    3  C4  UNL     1      25.587   1.036  51.788  1.00  0.00     0.049 C 
HETATM    4  C5  UNL     1      24.446   1.729  51.931  1.00  0.00     0.061 C 
HETATM    5  C6  UNL     1      23.571   1.384  53.080  1.00  0.00     0.068 C 
HETATM    6  C7  UNL     1      24.331   0.372  53.571  1.00  0.00     0.094 C 
HETATM    7  O2  UNL     1      23.167  -0.354  53.989  1.00  0.00    -0.304 OA
HETATM    8  C8  UNL     1      22.319  -0.636  52.847  1.00  0.00     0.431 C 
HETATM    9  N1  UNL     1      21.861  -0.138  51.742  1.00  0.00    -0.360 NA
HETATM   10  C9  UNL     1      22.103   1.119  51.181  1.00  0.00     0.221 C 
HETATM   11  N2  UNL     1      22.530   2.281  50.736  1.00  0.00    -0.163 NA
HETATM   12  N3  UNL     1      23.852   2.669  51.011  1.00  0.00    -0.225 N 
ENDROOT
BRANCH  12  13
HETATM   13  C10 UNL     1      24.599   3.755  50.507  1.00  0.00     0.113 A 
HETATM   14  C11 UNL     1      24.125   4.903  50.965  1.00  0.00     0.046 A 
HETATM   15 BR1  UNL     1      22.621   4.911  52.146  1.00  0.00    -0.048 Br
HETATM   16  C12 UNL     1      24.732   6.195  50.585  1.00  0.00     0.019 A 
HETATM   17  C13 UNL     1      25.773   6.246  49.770  1.00  0.00    -0.015 A 
HETATM   18  C14 UNL     1      26.592   5.234  49.052  1.00  0.00     0.108 A 
HETATM   19  S1  UNL     1      25.985   3.539  49.403  1.00  0.00    -0.105 SA
ENDBRANCH  12  13
BRANCH   1  20
HETATM   20  O1  UNL     1      26.682  -0.147  53.536  1.00  0.00    -0.374 OA
HETATM   21  C1  UNL     1      26.503  -1.270  52.775  1.00  0.00     0.203 C 
ENDBRANCH   1  20
TORSDOF 2
ENDMDL
MODEL 5
REMARK VINA RESULT:      -6.7      2.923      3.545
REMARK  2 active torsions:
REMARK  status: ('A' for Active; 'I' for Inactive)
REMARK    1  A    between atoms: O1_2  and  C2_3 
REMARK    2  A    between atoms: N3_14  and  C10_15 
ROOT
HETATM    1  C2  UNL     1      23.066   4.229  51.464  1.00  0.00     0.125 C 
HETATM    2  C3  UNL     1      24.196   3.663  52.278  1.00  0.00     0.058 C 
HETATM    3  C4  UNL     1      21.801   3.391  51.656  1.00  0.00     0.049 C 
HETATM    4  C5  UNL     1      22.286   2.363  50.940  1.00  0.00     0.061 C 
HETATM    5  C6  UNL     1      23.243   2.675  49.850  1.00  0.00     0.068 C 
HETATM    6  C7  UNL     1      23.228   4.025  49.995  1.00  0.00     0.094 C 
HETATM    7  O2  UNL     1      23.382   4.220  48.583  1.00  0.00    -0.304 OA
HETATM    8  C8  UNL     1      22.280   3.603  47.871  1.00  0.00     0.431 C 
HETATM    9  N1  UNL     1      21.506   2.562  47.849  1.00  0.00    -0.360 NA
HETATM   10  C9  UNL     1      21.497   1.460  48.708  1.00  0.00     0.221 C 
HETATM   11  N2  UNL     1      21.543   0.564  49.670  1.00  0.00    -0.163 NA
HETATM   12  N3  UNL     1      21.871   0.981  50.971  1.00  0.00    -0.225 N 
ENDROOT
BRANCH  12  13
HETATM   13  C10 UNL     1      21.812   0.272  52.189  1.00  0.00     0.113 A 
HETATM   14  C11 UNL     1      20.557   0.024  52.527  1.00  0.00     0.046 A 
HETATM   15 BR1  UNL     1      19.131   0.618  51.400  1.00  0.00    -0.048 Br
HETATM   16  C12 UNL     1      20.221  -0.707  53.766  1.00  0.00     0.019 A 
HETATM   17  C13 UNL     1      21.169  -1.138  54.582  1.00  0.00    -0.015 A 
HETATM   18  C14 UNL     1      22.654  -1.079  54.585  1.00  0.00     0.108 A 
HETATM   19  S1  UNL     1      23.273  -0.195  53.102  1.00  0.00    -0.105 SA
ENDBRANCH  12  13
BRANCH   1  20
HETATM   20  O1  UNL     1      22.839   5.522  51.840  1.00  0.00    -0.374 OA
HETATM   21  C1  UNL     1      23.784   6.382  51.350  1.00  0.00     0.203 C 
ENDBRANCH   1  20
TORSDOF 2
ENDMDL
MODEL 6
REMARK VINA RESULT:      -6.6      2.762      4.752
REMARK  2 active torsions:
REMARK  status: ('A' for Active; 'I' for Inactive)
REMARK    1  A    between atoms: O1_2  and  C2_3 
REMARK    2  A    between atoms: N3_14  and  C10_15 
ROOT
HETATM    1  C2  UNL     1      22.859  -0.483  53.810  1.00  0.00     0.125 C 
HETATM    2  C3  UNL     1      22.334  -1.140  52.563  1.00  0.00     0.058 C 
HETATM    3  C4  UNL     1      22.736   1.037  53.702  1.00  0.00     0.049 C 
HETATM    4  C5  UNL     1      23.726   1.126  52.799  1.00  0.00     0.061 C 
HETATM    5  C6  UNL     1      24.808   0.112  52.864  1.00  0.00     0.068 C 
HETATM    6  C7  UNL     1      24.342  -0.562  53.947  1.00  0.00     0.094 C 
HETATM    7  O2  UNL     1      25.674  -0.835  54.402  1.00  0.00    -0.304 OA
HETATM    8  C8  UNL     1      26.387   0.406  54.631  1.00  0.00     0.431 C 
HETATM    9  N1  UNL     1      26.573   1.602  54.167  1.00  0.00    -0.360 NA
HETATM   10  C9  UNL     1      26.009   2.199  53.036  1.00  0.00     0.221 C 
HETATM   11  N2  UNL     1      25.302   2.647  52.021  1.00  0.00    -0.163 NA
HETATM   12  N3  UNL     1      23.983   2.190  51.859  1.00  0.00    -0.225 N 
ENDROOT
BRANCH  12  13
HETATM   13  C10 UNL     1      22.972   2.640  50.984  1.00  0.00     0.113 A 
HETATM   14  C11 UNL     1      22.586   3.865  51.303  1.00  0.00     0.046 A 
HETATM   15 BR1  UNL     1      23.396   4.765  52.783  1.00  0.00    -0.048 Br
HETATM   16  C12 UNL     1      21.535   4.566  50.539  1.00  0.00     0.019 A 
HETATM   17  C13 UNL     1      20.941   3.989  49.507  1.00  0.00    -0.015 A 
HETATM   18  C14 UNL     1      21.065   2.671  48.831  1.00  0.00     0.108 A 
HETATM   19  S1  UNL     1      22.343   1.638  49.647  1.00  0.00    -0.105 SA
ENDBRANCH  12  13
BRANCH   1  20
HETATM   20  O1  UNL     1      22.160  -0.939  54.891  1.00  0.00    -0.374 OA
HETATM   21  C1  UNL     1      21.078  -1.697  54.533  1.00  0.00     0.203 C 
ENDBRANCH   1  20
TORSDOF 2
ENDMDL
MODEL 7
REMARK VINA RESULT:      -6.2      3.444      4.875
REMARK  2 active torsions:
REMARK  status: ('A' for Active; 'I' for Inactive)
REMARK    1  A    between atoms: O1_2  and  C2_3 
REMARK    2  A    between atoms: N3_14  and  C10_15 
ROOT
HETATM    1  C2  UNL     1      21.090   2.728  49.032  1.00  0.00     0.125 C 
HETATM    2  C3  UNL     1      19.813   2.256  49.669  1.00  0.00     0.058 C 
HETATM    3  C4  UNL     1      22.297   2.101  49.733  1.00  0.00     0.049 C 
HETATM    4  C5  UNL     1      22.140   2.854  50.834  1.00  0.00     0.061 C 
HETATM    5  C6  UNL     1      21.544   4.203  50.666  1.00  0.00     0.068 C 
HETATM    6  C7  UNL     1      21.406   4.158  49.316  1.00  0.00     0.094 C 
HETATM    7  O2  UNL     1      21.680   5.561  49.200  1.00  0.00    -0.304 OA
HETATM    8  C8  UNL     1      22.994   5.858  49.737  1.00  0.00     0.431 C 
HETATM    9  N1  UNL     1      23.816   5.569  50.697  1.00  0.00    -0.360 NA
HETATM   10  C9  UNL     1      23.648   4.671  51.754  1.00  0.00     0.221 C 
HETATM   11  N2  UNL     1      23.379   3.706  52.606  1.00  0.00    -0.163 NA
HETATM   12  N3  UNL     1      22.633   2.600  52.166  1.00  0.00    -0.225 N 
ENDROOT
BRANCH  12  13
HETATM   13  C10 UNL     1      22.370   1.373  52.811  1.00  0.00     0.113 A 
HETATM   14  C11 UNL     1      23.472   0.648  52.908  1.00  0.00     0.046 A 
HETATM   15 BR1  UNL     1      25.122   1.323  52.216  1.00  0.00    -0.048 Br
HETATM   16  C12 UNL     1      23.466  -0.685  53.545  1.00  0.00     0.019 A 
HETATM   17  C13 UNL     1      22.352  -1.200  54.040  1.00  0.00    -0.015 A 
HETATM   18  C14 UNL     1      20.942  -0.742  54.139  1.00  0.00     0.108 A 
HETATM   19  S1  UNL     1      20.743   0.921  53.391  1.00  0.00    -0.105 SA
ENDBRANCH  12  13
BRANCH   1  20
HETATM   20  O1  UNL     1      21.087   2.395  47.708  1.00  0.00    -0.374 OA
HETATM   21  C1  UNL     1      22.094   3.008  47.013  1.00  0.00     0.203 C 
ENDBRANCH   1  20
TORSDOF 2
ENDMDL
MODEL 8
REMARK VINA RESULT:      -6.2      3.780      6.810
REMARK  2 active torsions:
REMARK  status: ('A' for Active; 'I' for Inactive)
REMARK    1  A    between atoms: O1_2  and  C2_3 
REMARK    2  A    between atoms: N3_14  and  C10_15 
ROOT
HETATM    1  C2  UNL     1      21.448   2.805  49.165  1.00  0.00     0.125 C 
HETATM    2  C3  UNL     1      22.328   2.947  47.955  1.00  0.00     0.058 C 
HETATM    3  C4  UNL     1      21.735   3.926  50.165  1.00  0.00     0.049 C 
HETATM    4  C5  UNL     1      22.923   3.408  50.516  1.00  0.00     0.061 C 
HETATM    5  C6  UNL     1      23.079   1.934  50.442  1.00  0.00     0.068 C 
HETATM    6  C7  UNL     1      21.814   1.651  50.037  1.00  0.00     0.094 C 
HETATM    7  O2  UNL     1      21.805   0.427  50.783  1.00  0.00    -0.304 OA
HETATM    8  C8  UNL     1      22.021   0.699  52.191  1.00  0.00     0.431 C 
HETATM    9  N1  UNL     1      22.695   1.435  53.018  1.00  0.00    -0.360 NA
HETATM   10  C9  UNL     1      23.642   2.424  52.738  1.00  0.00     0.221 C 
HETATM   11  N2  UNL     1      24.410   3.400  52.303  1.00  0.00    -0.163 NA
HETATM   12  N3  UNL     1      24.043   4.080  51.130  1.00  0.00    -0.225 N 
ENDROOT
BRANCH  12  13
HETATM   13  C10 UNL     1      24.578   5.255  50.562  1.00  0.00     0.113 A 
HETATM   14  C11 UNL     1      25.652   4.980  49.839  1.00  0.00     0.046 A 
HETATM   15 BR1  UNL     1      26.262   3.174  49.688  1.00  0.00    -0.048 Br
HETATM   16  C12 UNL     1      26.403   6.040  49.136  1.00  0.00     0.019 A 
HETATM   17  C13 UNL     1      26.024   7.306  49.208  1.00  0.00    -0.015 A 
HETATM   18  C14 UNL     1      24.917   8.031  49.884  1.00  0.00     0.108 A 
HETATM   19  S1  UNL     1      23.855   6.866  50.824  1.00  0.00    -0.105 SA
ENDBRANCH  12  13
BRANCH   1  20
HETATM   20  O1  UNL     1      20.138   2.838  48.781  1.00  0.00    -0.374 OA
HETATM   21  C1  UNL     1      19.994   3.025  47.433  1.00  0.00     0.203 C 
ENDBRANCH   1  20
TORSDOF 2
ENDMDL
MODEL 9
REMARK VINA RESULT:      -6.1      4.750      7.103
REMARK  2 active torsions:
REMARK  status: ('A' for Active; 'I' for Inactive)
REMARK    1  A    between atoms: O1_2  and  C2_3 
REMARK    2  A    between atoms: N3_14  and  C10_15 
ROOT
HETATM    1  C2  UNL     1      17.632   0.281  50.719  1.00  0.00     0.125 C 
HETATM    2  C3  UNL     1      17.400  -0.516  51.972  1.00  0.00     0.058 C 
HETATM    3  C4  UNL     1      19.120   0.600  50.560  1.00  0.00     0.049 C 
HETATM    4  C5  UNL     1      19.109   1.493  51.563  1.00  0.00     0.061 C 
HETATM    5  C6  UNL     1      17.847   2.232  51.813  1.00  0.00     0.068 C 
HETATM    6  C7  UNL     1      17.128   1.683  50.801  1.00  0.00     0.094 C 
HETATM    7  O2  UNL     1      16.418   2.909  50.583  1.00  0.00    -0.304 OA
HETATM    8  C8  UNL     1      17.349   3.971  50.253  1.00  0.00     0.431 C 
HETATM    9  N1  UNL     1      18.516   4.460  50.538  1.00  0.00    -0.360 NA
HETATM   10  C9  UNL     1      19.453   4.002  51.468  1.00  0.00     0.221 C 
HETATM   11  N2  UNL     1      20.266   3.374  52.290  1.00  0.00    -0.163 NA
HETATM   12  N3  UNL     1      20.226   1.971  52.343  1.00  0.00    -0.225 N 
ENDROOT
BRANCH  12  13
HETATM   13  C10 UNL     1      21.095   1.065  52.987  1.00  0.00     0.113 A 
HETATM   14  C11 UNL     1      22.262   1.012  52.364  1.00  0.00     0.046 A 
HETATM   15 BR1  UNL     1      22.564   2.086  50.811  1.00  0.00    -0.048 Br
HETATM   16  C12 UNL     1      23.352   0.135  52.840  1.00  0.00     0.019 A 
HETATM   17  C13 UNL     1      23.195  -0.629  53.908  1.00  0.00    -0.015 A 
HETATM   18  C14 UNL     1      22.088  -0.869  54.871  1.00  0.00     0.108 A 
HETATM   19  S1  UNL     1      20.621   0.146  54.442  1.00  0.00    -0.105 SA
ENDBRANCH  12  13
BRANCH   1  20
HETATM   20  O1  UNL     1      17.182  -0.427  49.641  1.00  0.00    -0.374 OA
HETATM   21  C1  UNL     1      15.816  -0.478  49.584  1.00  0.00     0.203 C 
ENDBRANCH   1  20
TORSDOF 2
ENDMDL
