MODEL 1
REMARK VINA RESULT:      -8.5      0.000      0.000
REMARK  7 active torsions:
REMARK  status: ('A' for Active; 'I' for Inactive)
REMARK    1  A    between atoms: C3_3  and  C4_4 
REMARK       I    between atoms: C4_4  and  N1_6 
REMARK    2  A    between atoms: N1_6  and  C5_7 
REMARK    3  A    between atoms: C10_13  and  N3_14 
REMARK    4  A    between atoms: C11_15  and  N4_16 
REMARK    5  A    between atoms: N4_16  and  C12_17 
REMARK    6  A    between atoms: C13_18  and  C14_19 
REMARK    7  A    between atoms: C16_21  and  C17_22 
ROOT
HETATM    1  C1  UNL     1      26.884   6.742  47.920  1.00  0.00     0.112 C 
HETATM    2  C2  UNL     1      26.644   5.584  48.782  1.00  0.00    -0.101 C 
HETATM    3  C3  UNL     1      26.427   4.608  49.492  1.00  0.00    -0.006 C 
ENDROOT
BRANCH   3   4
HETATM    4  C4  UNL     1      26.186   3.451  50.322  1.00  0.00     0.300 C 
HETATM    5  O1  UNL     1      27.133   2.819  50.859  1.00  0.00    -0.258 OA
HETATM    6  N1  UNL     1      24.814   3.101  50.472  1.00  0.00    -0.316 N 
HETATM    7  H4  UNL     1      24.036   3.644  50.015  1.00  0.00     0.170 HD
BRANCH   6   8
HETATM    8  C5  UNL     1      24.026   2.111  51.138  1.00  0.00     0.036 A 
HETATM    9  C6  UNL     1      22.760   1.698  50.761  1.00  0.00     0.032 A 
HETATM   10  C7  UNL     1      22.104   0.736  51.487  1.00  0.00     0.035 A 
HETATM   11  C8  UNL     1      22.746   0.200  52.596  1.00  0.00     0.069 A 
HETATM   12  N2  UNL     1      22.047  -0.739  53.263  1.00  0.00    -0.258 NA
HETATM   13  C18 UNL     1      24.010   0.586  53.005  1.00  0.00     0.024 A 
HETATM   14  C9  UNL     1      22.605  -1.310  54.354  1.00  0.00     0.148 A 
HETATM   15  C10 UNL     1      23.861  -0.962  54.806  1.00  0.00     0.071 A 
HETATM   16  C11 UNL     1      24.588  -0.003  54.134  1.00  0.00     0.069 A 
HETATM   17  C19 UNL     1      24.648   1.570  52.240  1.00  0.00     0.045 A 
BRANCH  15  18
HETATM   18  N3  UNL     1      24.500  -1.518  55.936  1.00  0.00    -0.396 N 
HETATM   19  H8  UNL     1      25.466  -1.539  56.334  1.00  0.00     0.156 HD
HETATM   20  H9  UNL     1      23.656  -1.973  56.349  1.00  0.00     0.156 HD
ENDBRANCH  15  18
BRANCH  16  21
HETATM   21  N4  UNL     1      25.896   0.483  54.452  1.00  0.00    -0.371 N 
HETATM   22  H10 UNL     1      25.879   1.261  55.123  1.00  0.00     0.161 HD
BRANCH  21  23
HETATM   23  C12 UNL     1      26.827  -0.262  53.738  1.00  0.00     0.093 A 
HETATM   24  C13 UNL     1      27.911  -0.652  53.586  1.00  0.00    -0.038 A 
HETATM   25  C17 UNL     1      28.026   0.110  54.712  1.00  0.00     0.062 A 
BRANCH  24  26
HETATM   26  C14 UNL     1      28.917  -1.001  53.463  1.00  0.00    -0.063 A 
HETATM   27  C15 UNL     1      30.013  -1.355  53.336  1.00  0.00     0.033 A 
HETATM   28  C16 UNL     1      29.621   0.151  53.703  1.00  0.00     0.035 A 
ENDBRANCH  24  26
ENDBRANCH  21  23
ENDBRANCH  16  21
ENDBRANCH   6   8
ENDBRANCH   3   4
TORSDOF 7
ENDMDL
MODEL 2
REMARK VINA RESULT:      -8.0      1.437      1.685
REMARK  7 active torsions:
REMARK  status: ('A' for Active; 'I' for Inactive)
REMARK    1  A    between atoms: C3_3  and  C4_4 
REMARK       I    between atoms: C4_4  and  N1_6 
REMARK    2  A    between atoms: N1_6  and  C5_7 
REMARK    3  A    between atoms: C10_13  and  N3_14 
REMARK    4  A    between atoms: C11_15  and  N4_16 
REMARK    5  A    between atoms: N4_16  and  C12_17 
REMARK    6  A    between atoms: C13_18  and  C14_19 
REMARK    7  A    between atoms: C16_21  and  C17_22 
ROOT
HETATM    1  C1  UNL     1      29.014   6.892  48.144  1.00  0.00     0.112 C 
HETATM    2  C2  UNL     1      27.704   6.326  48.466  1.00  0.00    -0.101 C 
HETATM    3  C3  UNL     1      26.597   5.868  48.729  1.00  0.00    -0.006 C 
ENDROOT
BRANCH   3   4
HETATM    4  C4  UNL     1      25.296   5.318  49.025  1.00  0.00     0.300 C 
HETATM    5  O1  UNL     1      24.239   5.939  48.737  1.00  0.00    -0.258 OA
HETATM    6  N1  UNL     1      25.318   4.042  49.656  1.00  0.00    -0.316 N 
HETATM    7  H4  UNL     1      26.213   3.539  49.889  1.00  0.00     0.170 HD
BRANCH   6   8
HETATM    8  C5  UNL     1      24.390   3.074  50.152  1.00  0.00     0.036 A 
HETATM    9  C6  UNL     1      23.151   2.786  49.605  1.00  0.00     0.032 A 
HETATM   10  C7  UNL     1      22.349   1.830  50.176  1.00  0.00     0.035 A 
HETATM   11  C8  UNL     1      22.818   1.173  51.306  1.00  0.00     0.069 A 
HETATM   12  N2  UNL     1      21.982   0.247  51.817  1.00  0.00    -0.258 NA
HETATM   13  C18 UNL     1      24.049   1.431  51.883  1.00  0.00     0.024 A 
HETATM   14  C9  UNL     1      22.367  -0.438  52.917  1.00  0.00     0.148 A 
HETATM   15  C10 UNL     1      23.582  -0.220  53.532  1.00  0.00     0.071 A 
HETATM   16  C11 UNL     1      24.448   0.724  53.022  1.00  0.00     0.069 A 
HETATM   17  C19 UNL     1      24.839   2.412  51.273  1.00  0.00     0.045 A 
BRANCH  15  18
HETATM   18  N3  UNL     1      24.044  -0.899  54.682  1.00  0.00    -0.396 N 
HETATM   19  H8  UNL     1      23.842  -0.889  55.707  1.00  0.00     0.156 HD
HETATM   20  H9  UNL     1      24.741  -1.507  54.199  1.00  0.00     0.156 HD
ENDBRANCH  15  18
BRANCH  16  21
HETATM   21  N4  UNL     1      25.740   1.084  53.521  1.00  0.00    -0.371 N 
HETATM   22  H10 UNL     1      25.742   1.993  54.000  1.00  0.00     0.161 HD
BRANCH  21  23
HETATM   23  C12 UNL     1      26.634   0.069  53.200  1.00  0.00     0.093 A 
HETATM   24  C13 UNL     1      27.690  -0.409  53.268  1.00  0.00    -0.038 A 
HETATM   25  C17 UNL     1      27.829   0.723  54.017  1.00  0.00     0.062 A 
BRANCH  24  26
HETATM   26  C14 UNL     1      28.671  -0.834  53.342  1.00  0.00    -0.063 A 
HETATM   27  C15 UNL     1      29.741  -1.272  53.433  1.00  0.00     0.033 A 
HETATM   28  C16 UNL     1      29.379   0.233  53.834  1.00  0.00     0.035 A 
ENDBRANCH  24  26
ENDBRANCH  21  23
ENDBRANCH  16  21
ENDBRANCH   6   8
ENDBRANCH   3   4
TORSDOF 7
ENDMDL
MODEL 3
REMARK VINA RESULT:      -7.9      2.109      5.988
REMARK  7 active torsions:
REMARK  status: ('A' for Active; 'I' for Inactive)
REMARK    1  A    between atoms: C3_3  and  C4_4 
REMARK       I    between atoms: C4_4  and  N1_6 
REMARK    2  A    between atoms: N1_6  and  C5_7 
REMARK    3  A    between atoms: C10_13  and  N3_14 
REMARK    4  A    between atoms: C11_15  and  N4_16 
REMARK    5  A    between atoms: N4_16  and  C12_17 
REMARK    6  A    between atoms: C13_18  and  C14_19 
REMARK    7  A    between atoms: C16_21  and  C17_22 
ROOT
HETATM    1  C1  UNL     1      30.166  -0.895  53.716  1.00  0.00     0.112 C 
HETATM    2  C2  UNL     1      28.801  -0.400  53.899  1.00  0.00    -0.101 C 
HETATM    3  C3  UNL     1      27.656   0.019  54.033  1.00  0.00    -0.006 C 
ENDROOT
BRANCH   3   4
HETATM    4  C4  UNL     1      26.303   0.497  54.192  1.00  0.00     0.300 C 
HETATM    5  O1  UNL     1      26.062   1.680  54.548  1.00  0.00    -0.258 OA
HETATM    6  N1  UNL     1      25.294  -0.469  53.917  1.00  0.00    -0.316 N 
HETATM    7  H4  UNL     1      25.517  -1.454  53.619  1.00  0.00     0.170 HD
BRANCH   6   8
HETATM    8  C5  UNL     1      23.867  -0.557  53.907  1.00  0.00     0.036 A 
HETATM    9  C6  UNL     1      23.087  -1.155  54.881  1.00  0.00     0.032 A 
HETATM   10  C7  UNL     1      21.721  -1.175  54.756  1.00  0.00     0.035 A 
HETATM   11  C8  UNL     1      21.158  -0.583  53.633  1.00  0.00     0.069 A 
HETATM   12  N2  UNL     1      19.813  -0.637  53.572  1.00  0.00    -0.258 NA
HETATM   13  C18 UNL     1      21.902   0.025  52.637  1.00  0.00     0.024 A 
HETATM   14  C9  UNL     1      19.189  -0.082  52.509  1.00  0.00     0.148 A 
HETATM   15  C10 UNL     1      19.882   0.536  51.489  1.00  0.00     0.071 A 
HETATM   16  C11 UNL     1      21.258   0.600  51.537  1.00  0.00     0.069 A 
HETATM   17  C19 UNL     1      23.292   0.026  52.800  1.00  0.00     0.045 A 
BRANCH  15  18
HETATM   18  N3  UNL     1      19.293   1.134  50.353  1.00  0.00    -0.396 N 
HETATM   19  H8  UNL     1      19.533   1.257  49.343  1.00  0.00     0.156 HD
HETATM   20  H9  UNL     1      18.428   1.481  50.825  1.00  0.00     0.156 HD
ENDBRANCH  15  18
BRANCH  16  21
HETATM   21  N4  UNL     1      22.139   1.195  50.579  1.00  0.00    -0.371 N 
HETATM   22  H10 UNL     1      22.516   0.513  49.909  1.00  0.00     0.161 HD
BRANCH  21  23
HETATM   23  C12 UNL     1      22.225   2.556  50.847  1.00  0.00     0.093 A 
HETATM   24  C13 UNL     1      22.819   3.555  50.840  1.00  0.00    -0.038 A 
HETATM   25  C17 UNL     1      23.712   2.675  50.300  1.00  0.00     0.062 A 
BRANCH  24  26
HETATM   26  C14 UNL     1      23.384   4.465  50.824  1.00  0.00    -0.063 A 
HETATM   27  C15 UNL     1      23.993   5.451  50.832  1.00  0.00     0.033 A 
HETATM   28  C16 UNL     1      23.442   4.756  52.162  1.00  0.00     0.035 A 
ENDBRANCH  24  26
ENDBRANCH  21  23
ENDBRANCH  16  21
ENDBRANCH   6   8
ENDBRANCH   3   4
TORSDOF 7
ENDMDL
MODEL 4
REMARK VINA RESULT:      -7.9      2.290      2.482
REMARK  7 active torsions:
REMARK  status: ('A' for Active; 'I' for Inactive)
REMARK    1  A    between atoms: C3_3  and  C4_4 
REMARK       I    between atoms: C4_4  and  N1_6 
REMARK    2  A    between atoms: N1_6  and  C5_7 
REMARK    3  A    between atoms: C10_13  and  N3_14 
REMARK    4  A    between atoms: C11_15  and  N4_16 
REMARK    5  A    between atoms: N4_16  and  C12_17 
REMARK    6  A    between atoms: C13_18  and  C14_19 
REMARK    7  A    between atoms: C16_21  and  C17_22 
ROOT
HETATM    1  C1  UNL     1      23.049   5.748  47.495  1.00  0.00     0.112 C 
HETATM    2  C2  UNL     1      22.740   4.450  48.095  1.00  0.00    -0.101 C 
HETATM    3  C3  UNL     1      22.463   3.362  48.589  1.00  0.00    -0.006 C 
ENDROOT
BRANCH   3   4
HETATM    4  C4  UNL     1      22.148   2.074  49.160  1.00  0.00     0.300 C 
HETATM    5  O1  UNL     1      21.848   1.090  48.435  1.00  0.00    -0.258 OA
HETATM    6  N1  UNL     1      22.209   2.022  50.581  1.00  0.00    -0.316 N 
HETATM    7  H4  UNL     1      22.463   2.857  51.171  1.00  0.00     0.170 HD
BRANCH   6   8
HETATM    8  C5  UNL     1      22.010   1.070  51.630  1.00  0.00     0.036 A 
HETATM    9  C6  UNL     1      20.836   0.383  51.887  1.00  0.00     0.032 A 
HETATM   10  C7  UNL     1      20.771  -0.508  52.928  1.00  0.00     0.035 A 
HETATM   11  C8  UNL     1      21.909  -0.693  53.703  1.00  0.00     0.069 A 
HETATM   12  N2  UNL     1      21.778  -1.582  54.708  1.00  0.00    -0.258 NA
HETATM   13  C18 UNL     1      23.101  -0.027  53.478  1.00  0.00     0.024 A 
HETATM   14  C9  UNL     1      22.843  -1.818  55.506  1.00  0.00     0.148 A 
HETATM   15  C10 UNL     1      24.054  -1.182  55.328  1.00  0.00     0.071 A 
HETATM   16  C11 UNL     1      24.203  -0.271  54.304  1.00  0.00     0.069 A 
HETATM   17  C19 UNL     1      23.129   0.874  52.407  1.00  0.00     0.045 A 
BRANCH  15  18
HETATM   18  N3  UNL     1      25.202  -1.383  56.125  1.00  0.00    -0.396 N 
HETATM   19  H8  UNL     1      25.441  -1.895  57.005  1.00  0.00     0.156 HD
HETATM   20  H9  UNL     1      25.860  -0.816  55.546  1.00  0.00     0.156 HD
ENDBRANCH  15  18
BRANCH  16  21
HETATM   21  N4  UNL     1      25.374   0.480  53.967  1.00  0.00    -0.371 N 
HETATM   22  H10 UNL     1      25.263   1.487  54.140  1.00  0.00     0.161 HD
BRANCH  21  23
HETATM   23  C12 UNL     1      26.340  -0.400  53.494  1.00  0.00     0.093 A 
HETATM   24  C13 UNL     1      27.449  -0.732  53.400  1.00  0.00    -0.038 A 
HETATM   25  C17 UNL     1      27.541   0.400  54.157  1.00  0.00     0.062 A 
BRANCH  24  26
HETATM   26  C14 UNL     1      28.479  -1.020  53.324  1.00  0.00    -0.063 A 
HETATM   27  C15 UNL     1      29.599  -1.310  53.252  1.00  0.00     0.033 A 
HETATM   28  C16 UNL     1      29.097   0.096  53.825  1.00  0.00     0.035 A 
ENDBRANCH  24  26
ENDBRANCH  21  23
ENDBRANCH  16  21
ENDBRANCH   6   8
ENDBRANCH   3   4
TORSDOF 7
ENDMDL
MODEL 5
REMARK VINA RESULT:      -7.4      3.363      6.989
REMARK  7 active torsions:
REMARK  status: ('A' for Active; 'I' for Inactive)
REMARK    1  A    between atoms: C3_3  and  C4_4 
REMARK       I    between atoms: C4_4  and  N1_6 
REMARK    2  A    between atoms: N1_6  and  C5_7 
REMARK    3  A    between atoms: C10_13  and  N3_14 
REMARK    4  A    between atoms: C11_15  and  N4_16 
REMARK    5  A    between atoms: N4_16  and  C12_17 
REMARK    6  A    between atoms: C13_18  and  C14_19 
REMARK    7  A    between atoms: C16_21  and  C17_22 
ROOT
HETATM    1  C1  UNL     1      15.876   0.640  51.032  1.00  0.00     0.112 C 
HETATM    2  C2  UNL     1      16.930  -0.025  51.799  1.00  0.00    -0.101 C 
HETATM    3  C3  UNL     1      17.824  -0.566  52.441  1.00  0.00    -0.006 C 
ENDROOT
BRANCH   3   4
HETATM    4  C4  UNL     1      18.867  -1.201  53.211  1.00  0.00     0.300 C 
HETATM    5  O1  UNL     1      18.662  -2.277  53.832  1.00  0.00    -0.258 OA
HETATM    6  N1  UNL     1      20.115  -0.517  53.203  1.00  0.00    -0.316 N 
HETATM    7  H4  UNL     1      20.266   0.383  52.676  1.00  0.00     0.170 HD
BRANCH   6   8
HETATM    8  C5  UNL     1      21.426  -0.668  53.753  1.00  0.00     0.036 A 
HETATM    9  C6  UNL     1      21.750  -1.404  54.880  1.00  0.00     0.032 A 
HETATM   10  C7  UNL     1      23.051  -1.471  55.310  1.00  0.00     0.035 A 
HETATM   11  C8  UNL     1      24.017  -0.785  54.584  1.00  0.00     0.069 A 
HETATM   12  N2  UNL     1      25.273  -0.894  55.059  1.00  0.00    -0.258 NA
HETATM   13  C18 UNL     1      23.734  -0.040  53.453  1.00  0.00     0.024 A 
HETATM   14  C9  UNL     1      26.270  -0.255  54.407  1.00  0.00     0.148 A 
HETATM   15  C10 UNL     1      26.044   0.502  53.276  1.00  0.00     0.071 A 
HETATM   16  C11 UNL     1      24.764   0.622  52.778  1.00  0.00     0.069 A 
HETATM   17  C19 UNL     1      22.396   0.006  53.046  1.00  0.00     0.045 A 
BRANCH  15  18
HETATM   18  N3  UNL     1      27.039   1.193  52.550  1.00  0.00    -0.396 N 
HETATM   19  H8  UNL     1      27.756   1.928  52.745  1.00  0.00     0.156 HD
HETATM   20  H9  UNL     1      26.867   0.733  51.629  1.00  0.00     0.156 HD
ENDBRANCH  15  18
BRANCH  16  21
HETATM   21  N4  UNL     1      24.341   1.358  51.626  1.00  0.00    -0.371 N 
HETATM   22  H10 UNL     1      24.313   0.783  50.774  1.00  0.00     0.161 HD
BRANCH  21  23
HETATM   23  C12 UNL     1      24.085   2.668  52.011  1.00  0.00     0.093 A 
HETATM   24  C13 UNL     1      23.549   3.686  51.849  1.00  0.00    -0.038 A 
HETATM   25  C17 UNL     1      23.091   2.939  50.802  1.00  0.00     0.062 A 
BRANCH  24  26
HETATM   26  C14 UNL     1      23.045   4.617  51.681  1.00  0.00    -0.063 A 
HETATM   27  C15 UNL     1      22.480   5.615  51.511  1.00  0.00     0.033 A 
HETATM   28  C16 UNL     1      21.822   4.354  52.242  1.00  0.00     0.035 A 
ENDBRANCH  24  26
ENDBRANCH  21  23
ENDBRANCH  16  21
ENDBRANCH   6   8
ENDBRANCH   3   4
TORSDOF 7
ENDMDL
MODEL 6
REMARK VINA RESULT:      -7.3      2.715      6.003
REMARK  7 active torsions:
REMARK  status: ('A' for Active; 'I' for Inactive)
REMARK    1  A    between atoms: C3_3  and  C4_4 
REMARK       I    between atoms: C4_4  and  N1_6 
REMARK    2  A    between atoms: N1_6  and  C5_7 
REMARK    3  A    between atoms: C10_13  and  N3_14 
REMARK    4  A    between atoms: C11_15  and  N4_16 
REMARK    5  A    between atoms: N4_16  and  C12_17 
REMARK    6  A    between atoms: C13_18  and  C14_19 
REMARK    7  A    between atoms: C16_21  and  C17_22 
ROOT
HETATM    1  C1  UNL     1      17.233   1.655  49.774  1.00  0.00     0.112 C 
HETATM    2  C2  UNL     1      18.089   1.012  50.771  1.00  0.00    -0.101 C 
HETATM    3  C3  UNL     1      18.820   0.489  51.605  1.00  0.00    -0.006 C 
ENDROOT
BRANCH   3   4
HETATM    4  C4  UNL     1      19.670  -0.123  52.599  1.00  0.00     0.300 C 
HETATM    5  O1  UNL     1      19.206  -0.906  53.468  1.00  0.00    -0.258 OA
HETATM    6  N1  UNL     1      21.046   0.233  52.507  1.00  0.00    -0.316 N 
HETATM    7  H4  UNL     1      21.415   0.891  51.771  1.00  0.00     0.170 HD
BRANCH   6   8
HETATM    8  C5  UNL     1      22.275  -0.048  53.181  1.00  0.00     0.036 A 
HETATM    9  C6  UNL     1      22.521  -1.144  53.990  1.00  0.00     0.032 A 
HETATM   10  C7  UNL     1      23.748  -1.302  54.584  1.00  0.00     0.035 A 
HETATM   11  C8  UNL     1      24.718  -0.337  54.349  1.00  0.00     0.069 A 
HETATM   12  N2  UNL     1      25.899  -0.552  54.961  1.00  0.00    -0.258 NA
HETATM   13  C18 UNL     1      24.512   0.773  53.547  1.00  0.00     0.024 A 
HETATM   14  C9  UNL     1      26.896   0.343  54.780  1.00  0.00     0.148 A 
HETATM   15  C10 UNL     1      26.744   1.465  53.993  1.00  0.00     0.071 A 
HETATM   16  C11 UNL     1      25.542   1.699  53.360  1.00  0.00     0.069 A 
HETATM   17  C19 UNL     1      23.248   0.899  52.959  1.00  0.00     0.045 A 
BRANCH  15  18
HETATM   18  N3  UNL     1      27.743   2.438  53.764  1.00  0.00    -0.396 N 
HETATM   19  H8  UNL     1      28.750   2.447  53.485  1.00  0.00     0.156 HD
HETATM   20  H9  UNL     1      27.154   3.275  53.970  1.00  0.00     0.156 HD
ENDBRANCH  15  18
BRANCH  16  21
HETATM   21  N4  UNL     1      25.201   2.800  52.511  1.00  0.00    -0.371 N 
HETATM   22  H10 UNL     1      24.356   3.295  52.822  1.00  0.00     0.161 HD
BRANCH  21  23
HETATM   23  C12 UNL     1      26.142   2.876  51.491  1.00  0.00     0.093 A 
HETATM   24  C13 UNL     1      26.542   3.364  50.516  1.00  0.00    -0.038 A 
HETATM   25  C17 UNL     1      25.415   4.090  50.770  1.00  0.00     0.062 A 
BRANCH  24  26
HETATM   26  C14 UNL     1      26.894   3.828  49.616  1.00  0.00    -0.063 A 
HETATM   27  C15 UNL     1      27.258   4.349  48.646  1.00  0.00     0.033 A 
HETATM   28  C16 UNL     1      26.066   4.919  49.547  1.00  0.00     0.035 A 
ENDBRANCH  24  26
ENDBRANCH  21  23
ENDBRANCH  16  21
ENDBRANCH   6   8
ENDBRANCH   3   4
TORSDOF 7
ENDMDL
MODEL 7
REMARK VINA RESULT:      -7.3      2.168      5.598
REMARK  7 active torsions:
REMARK  status: ('A' for Active; 'I' for Inactive)
REMARK    1  A    between atoms: C3_3  and  C4_4 
REMARK       I    between atoms: C4_4  and  N1_6 
REMARK    2  A    between atoms: N1_6  and  C5_7 
REMARK    3  A    between atoms: C10_13  and  N3_14 
REMARK    4  A    between atoms: C11_15  and  N4_16 
REMARK    5  A    between atoms: N4_16  and  C12_17 
REMARK    6  A    between atoms: C13_18  and  C14_19 
REMARK    7  A    between atoms: C16_21  and  C17_22 
ROOT
HETATM    1  C1  UNL     1      24.532   7.317  47.838  1.00  0.00     0.112 C 
HETATM    2  C2  UNL     1      25.008   6.136  48.559  1.00  0.00    -0.101 C 
HETATM    3  C3  UNL     1      25.418   5.141  49.147  1.00  0.00    -0.006 C 
ENDROOT
BRANCH   3   4
HETATM    4  C4  UNL     1      25.910   3.979  49.847  1.00  0.00     0.300 C 
HETATM    5  O1  UNL     1      27.070   3.533  49.647  1.00  0.00    -0.258 OA
HETATM    6  N1  UNL     1      24.986   3.399  50.763  1.00  0.00    -0.316 N 
HETATM    7  H4  UNL     1      24.020   3.788  50.917  1.00  0.00     0.170 HD
BRANCH   6   8
HETATM    8  C5  UNL     1      24.927   2.303  51.679  1.00  0.00     0.036 A 
HETATM    9  C6  UNL     1      26.010   1.571  52.135  1.00  0.00     0.032 A 
HETATM   10  C7  UNL     1      25.822   0.537  53.017  1.00  0.00     0.035 A 
HETATM   11  C8  UNL     1      24.525   0.255  53.428  1.00  0.00     0.069 A 
HETATM   12  N2  UNL     1      24.410  -0.772  54.294  1.00  0.00    -0.258 NA
HETATM   13  C18 UNL     1      23.417   0.962  52.996  1.00  0.00     0.024 A 
HETATM   14  C9  UNL     1      23.181  -1.107  54.742  1.00  0.00     0.148 A 
HETATM   15  C10 UNL     1      22.043  -0.437  54.343  1.00  0.00     0.071 A 
HETATM   16  C11 UNL     1      22.144   0.616  53.459  1.00  0.00     0.069 A 
HETATM   17  C19 UNL     1      23.649   2.010  52.097  1.00  0.00     0.045 A 
BRANCH  15  18
HETATM   18  N3  UNL     1      20.731  -0.737  54.772  1.00  0.00    -0.396 N 
HETATM   19  H8  UNL     1      20.064  -0.383  55.496  1.00  0.00     0.156 HD
HETATM   20  H9  UNL     1      20.550  -1.512  54.097  1.00  0.00     0.156 HD
ENDBRANCH  15  18
BRANCH  16  21
HETATM   21  N4  UNL     1      21.084   1.423  52.936  1.00  0.00    -0.371 N 
HETATM   22  H10 UNL     1      21.101   2.385  53.298  1.00  0.00     0.161 HD
BRANCH  21  23
HETATM   23  C12 UNL     1      20.324   0.644  52.071  1.00  0.00     0.093 A 
HETATM   24  C13 UNL     1      19.391   0.497  51.395  1.00  0.00    -0.038 A 
HETATM   25  C17 UNL     1      19.209   1.759  51.880  1.00  0.00     0.062 A 
BRANCH  24  26
HETATM   26  C14 UNL     1      18.524   0.381  50.776  1.00  0.00    -0.063 A 
HETATM   27  C15 UNL     1      17.575   0.242  50.125  1.00  0.00     0.033 A 
HETATM   28  C16 UNL     1      17.769  -0.466  51.546  1.00  0.00     0.035 A 
ENDBRANCH  24  26
ENDBRANCH  21  23
ENDBRANCH  16  21
ENDBRANCH   6   8
ENDBRANCH   3   4
TORSDOF 7
ENDMDL
MODEL 8
REMARK VINA RESULT:      -7.2      2.497      5.405
REMARK  7 active torsions:
REMARK  status: ('A' for Active; 'I' for Inactive)
REMARK    1  A    between atoms: C3_3  and  C4_4 
REMARK       I    between atoms: C4_4  and  N1_6 
REMARK    2  A    between atoms: N1_6  and  C5_7 
REMARK    3  A    between atoms: C10_13  and  N3_14 
REMARK    4  A    between atoms: C11_15  and  N4_16 
REMARK    5  A    between atoms: N4_16  and  C12_17 
REMARK    6  A    between atoms: C13_18  and  C14_19 
REMARK    7  A    between atoms: C16_21  and  C17_22 
ROOT
HETATM    1  C1  UNL     1      29.441   0.591  54.062  1.00  0.00     0.112 C 
HETATM    2  C2  UNL     1      28.438   1.302  53.270  1.00  0.00    -0.101 C 
HETATM    3  C3  UNL     1      27.593   1.881  52.595  1.00  0.00    -0.006 C 
ENDROOT
BRANCH   3   4
HETATM    4  C4  UNL     1      26.589   2.563  51.814  1.00  0.00     0.300 C 
HETATM    5  O1  UNL     1      26.832   2.985  50.654  1.00  0.00    -0.258 OA
HETATM    6  N1  UNL     1      25.329   2.710  52.462  1.00  0.00    -0.316 N 
HETATM    7  H4  UNL     1      25.145   2.349  53.434  1.00  0.00     0.170 HD
BRANCH   6   8
HETATM    8  C5  UNL     1      24.040   3.266  52.189  1.00  0.00     0.036 A 
HETATM    9  C6  UNL     1      23.751   4.614  52.064  1.00  0.00     0.032 A 
HETATM   10  C7  UNL     1      22.468   5.023  51.801  1.00  0.00     0.035 A 
HETATM   11  C8  UNL     1      21.485   4.050  51.667  1.00  0.00     0.069 A 
HETATM   12  N2  UNL     1      20.248   4.519  51.408  1.00  0.00    -0.258 NA
HETATM   13  C18 UNL     1      21.734   2.694  51.784  1.00  0.00     0.024 A 
HETATM   14  C9  UNL     1      19.237   3.635  51.263  1.00  0.00     0.148 A 
HETATM   15  C10 UNL     1      19.428   2.273  51.371  1.00  0.00     0.071 A 
HETATM   16  C11 UNL     1      20.688   1.777  51.634  1.00  0.00     0.069 A 
HETATM   17  C19 UNL     1      23.054   2.315  52.053  1.00  0.00     0.045 A 
BRANCH  15  18
HETATM   18  N3  UNL     1      18.417   1.296  51.230  1.00  0.00    -0.396 N 
HETATM   19  H8  UNL     1      17.376   1.283  51.134  1.00  0.00     0.156 HD
HETATM   20  H9  UNL     1      19.043   0.461  51.248  1.00  0.00     0.156 HD
ENDBRANCH  15  18
BRANCH  16  21
HETATM   21  N4  UNL     1      21.075   0.407  51.779  1.00  0.00    -0.371 N 
HETATM   22  H10 UNL     1      21.129  -0.088  50.880  1.00  0.00     0.161 HD
BRANCH  21  23
HETATM   23  C12 UNL     1      21.270   0.147  53.130  1.00  0.00     0.093 A 
HETATM   24  C13 UNL     1      21.807  -0.430  53.984  1.00  0.00    -0.038 A 
HETATM   25  C17 UNL     1      22.387  -0.951  52.863  1.00  0.00     0.062 A 
BRANCH  24  26
HETATM   26  C14 UNL     1      22.314  -0.973  54.756  1.00  0.00    -0.063 A 
HETATM   27  C15 UNL     1      22.884  -1.554  55.582  1.00  0.00     0.033 A 
HETATM   28  C16 UNL     1      23.621  -0.800  54.379  1.00  0.00     0.035 A 
ENDBRANCH  24  26
ENDBRANCH  21  23
ENDBRANCH  16  21
ENDBRANCH   6   8
ENDBRANCH   3   4
TORSDOF 7
ENDMDL
MODEL 9
REMARK VINA RESULT:      -7.2      3.465      7.186
REMARK  7 active torsions:
REMARK  status: ('A' for Active; 'I' for Inactive)
REMARK    1  A    between atoms: C3_3  and  C4_4 
REMARK       I    between atoms: C4_4  and  N1_6 
REMARK    2  A    between atoms: N1_6  and  C5_7 
REMARK    3  A    between atoms: C10_13  and  N3_14 
REMARK    4  A    between atoms: C11_15  and  N4_16 
REMARK    5  A    between atoms: N4_16  and  C12_17 
REMARK    6  A    between atoms: C13_18  and  C14_19 
REMARK    7  A    between atoms: C16_21  and  C17_22 
ROOT
HETATM    1  C1  UNL     1      15.307   0.792  51.125  1.00  0.00     0.112 C 
HETATM    2  C2  UNL     1      16.431   0.147  51.804  1.00  0.00    -0.101 C 
HETATM    3  C3  UNL     1      17.383  -0.376  52.373  1.00  0.00    -0.006 C 
ENDROOT
BRANCH   3   4
HETATM    4  C4  UNL     1      18.495  -0.991  53.057  1.00  0.00     0.300 C 
HETATM    5  O1  UNL     1      18.358  -2.064  53.701  1.00  0.00    -0.258 OA
HETATM    6  N1  UNL     1      19.729  -0.290  52.940  1.00  0.00    -0.316 N 
HETATM    7  H4  UNL     1      19.823   0.607  52.396  1.00  0.00     0.170 HD
BRANCH   6   8
HETATM    8  C5  UNL     1      21.083  -0.419  53.380  1.00  0.00     0.036 A 
HETATM    9  C6  UNL     1      21.582  -1.436  54.176  1.00  0.00     0.032 A 
HETATM   10  C7  UNL     1      22.907  -1.448  54.532  1.00  0.00     0.035 A 
HETATM   11  C8  UNL     1      23.717  -0.418  54.072  1.00  0.00     0.069 A 
HETATM   12  N2  UNL     1      25.007  -0.490  54.457  1.00  0.00    -0.258 NA
HETATM   13  C18 UNL     1      23.258   0.616  53.275  1.00  0.00     0.024 A 
HETATM   14  C9  UNL     1      25.860   0.475  54.049  1.00  0.00     0.148 A 
HETATM   15  C10 UNL     1      25.455   1.528  53.254  1.00  0.00     0.071 A 
HETATM   16  C11 UNL     1      24.140   1.616  52.852  1.00  0.00     0.069 A 
HETATM   17  C19 UNL     1      21.901   0.594  52.932  1.00  0.00     0.045 A 
BRANCH  15  18
HETATM   18  N3  UNL     1      26.294   2.568  52.794  1.00  0.00    -0.396 N 
HETATM   19  H8  UNL     1      26.233   3.605  52.681  1.00  0.00     0.156 HD
HETATM   20  H9  UNL     1      27.117   1.971  52.555  1.00  0.00     0.156 HD
ENDBRANCH  15  18
BRANCH  16  21
HETATM   21  N4  UNL     1      23.541   2.626  52.034  1.00  0.00    -0.371 N 
HETATM   22  H10 UNL     1      23.371   3.502  52.545  1.00  0.00     0.161 HD
BRANCH  21  23
HETATM   23  C12 UNL     1      23.363   2.109  50.756  1.00  0.00     0.093 A 
HETATM   24  C13 UNL     1      22.990   2.219  49.662  1.00  0.00    -0.038 A 
HETATM   25  C17 UNL     1      22.670   3.429  50.207  1.00  0.00     0.062 A 
BRANCH  24  26
HETATM   26  C14 UNL     1      22.638   2.341  48.657  1.00  0.00    -0.063 A 
HETATM   27  C15 UNL     1      22.241   2.454  47.574  1.00  0.00     0.033 A 
HETATM   28  C16 UNL     1      21.698   1.345  48.590  1.00  0.00     0.035 A 
ENDBRANCH  24  26
ENDBRANCH  21  23
ENDBRANCH  16  21
ENDBRANCH   6   8
ENDBRANCH   3   4
TORSDOF 7
ENDMDL
