MODEL 1
REMARK VINA RESULT:      -6.9      0.000      0.000
REMARK  8 active torsions:
REMARK  status: ('A' for Active; 'I' for Inactive)
REMARK    1  A    between atoms: O1_2  and  C2_3 
REMARK    2  A    between atoms: C5_6  and  C6_7 
REMARK    3  A    between atoms: C6_7  and  N1_8 
REMARK    4  A    between atoms: C6_7  and  C7_9 
REMARK    5  A    between atoms: C12_14  and  N2_15 
REMARK    6  A    between atoms: N2_15  and  P1_16 
REMARK    7  A    between atoms: P1_16  and  N3_17 
REMARK    8  A    between atoms: N3_17  and  C13_18 
ROOT
HETATM    1  C7  UNL     1      23.694   2.149  51.609  1.00  0.00     0.008 A 
HETATM    2  C8  UNL     1      24.349   3.044  50.797  1.00  0.00     0.012 A 
HETATM    3  C9  UNL     1      23.936   3.222  49.472  1.00  0.00     0.001 A 
HETATM    4  C10 UNL     1      22.864   2.482  49.008  1.00  0.00     0.002 A 
HETATM    5  C11 UNL     1      22.198   1.577  49.821  1.00  0.00     0.032 A 
HETATM    6  C12 UNL     1      22.608   1.401  51.136  1.00  0.00     0.067 A 
ENDROOT
BRANCH   1   7
HETATM    7  C6  UNL     1      24.185   2.032  52.997  1.00  0.00     0.286 C 
BRANCH   7   8
HETATM    8  C5  UNL     1      25.322   1.078  53.133  1.00  0.00    -0.021 A 
HETATM    9  C4  UNL     1      25.395  -0.165  52.545  1.00  0.00     0.012 A 
HETATM   10  C3  UNL     1      26.499  -0.969  52.729  1.00  0.00     0.037 A 
HETATM   11  C2  UNL     1      27.576  -0.553  53.511  1.00  0.00     0.068 A 
HETATM   12  C15 UNL     1      27.530   0.694  54.115  1.00  0.00     0.037 A 
HETATM   13  C14 UNL     1      26.410   1.467  53.908  1.00  0.00     0.012 A 
BRANCH  11  14
HETATM   14  O1  UNL     1      28.726  -1.277  53.759  1.00  0.00    -0.356 OA
HETATM   15  C1  UNL     1      30.043  -0.767  53.631  1.00  0.00     0.210 C 
ENDBRANCH  11  14
ENDBRANCH   7   8
BRANCH   7  16
HETATM   16  N1  UNL     1      24.670   3.326  53.490  1.00  0.00     0.091 N 
HETATM   17  H7  UNL     1      25.275   3.740  52.731  1.00  0.00     0.314 HD
HETATM   18  H8  UNL     1      25.351   3.077  54.271  1.00  0.00     0.314 HD
ENDBRANCH   7  16
ENDBRANCH   1   7
BRANCH   6  19
HETATM   19  N2  UNL     1      21.962   0.484  51.999  1.00  0.00    -0.231 NA
BRANCH  19  20
HETATM   20  P1  UNL     1      20.774   0.958  52.970  1.00  0.00     0.185 P 
BRANCH  20  21
HETATM   21  N3  UNL     1      20.549   0.271  54.628  1.00  0.00    -0.341 N 
HETATM   22  H13 UNL     1      19.919   0.860  55.181  1.00  0.00     0.166 HD
BRANCH  21  23
HETATM   23  C13 UNL     1      21.339  -0.927  54.679  1.00  0.00     0.171 C 
HETATM   24  S1  UNL     1      22.859  -1.255  55.193  1.00  0.00    -0.074 SA
ENDBRANCH  21  23
ENDBRANCH  20  21
ENDBRANCH  19  20
ENDBRANCH   6  19
TORSDOF 8
ENDMDL
MODEL 2
REMARK VINA RESULT:      -6.7      1.763      2.080
REMARK  8 active torsions:
REMARK  status: ('A' for Active; 'I' for Inactive)
REMARK    1  A    between atoms: O1_2  and  C2_3 
REMARK    2  A    between atoms: C5_6  and  C6_7 
REMARK    3  A    between atoms: C6_7  and  N1_8 
REMARK    4  A    between atoms: C6_7  and  C7_9 
REMARK    5  A    between atoms: C12_14  and  N2_15 
REMARK    6  A    between atoms: N2_15  and  P1_16 
REMARK    7  A    between atoms: P1_16  and  N3_17 
REMARK    8  A    between atoms: N3_17  and  C13_18 
ROOT
HETATM    1  C7  UNL     1      23.165   1.776  51.954  1.00  0.00     0.008 A 
HETATM    2  C8  UNL     1      23.493   2.198  50.688  1.00  0.00     0.012 A 
HETATM    3  C9  UNL     1      22.671   1.869  49.604  1.00  0.00     0.001 A 
HETATM    4  C10 UNL     1      21.535   1.116  49.840  1.00  0.00     0.002 A 
HETATM    5  C11 UNL     1      21.199   0.686  51.115  1.00  0.00     0.032 A 
HETATM    6  C12 UNL     1      22.014   1.014  52.189  1.00  0.00     0.067 A 
ENDROOT
BRANCH   1   7
HETATM    7  C6  UNL     1      24.079   2.179  53.042  1.00  0.00     0.286 C 
BRANCH   7   8
HETATM    8  C5  UNL     1      25.361   1.418  53.037  1.00  0.00    -0.021 A 
HETATM    9  C4  UNL     1      26.617   1.972  52.943  1.00  0.00     0.012 A 
HETATM   10  C3  UNL     1      27.742   1.177  52.955  1.00  0.00     0.037 A 
HETATM   11  C2  UNL     1      27.649  -0.210  53.063  1.00  0.00     0.068 A 
HETATM   12  C15 UNL     1      26.395  -0.797  53.159  1.00  0.00     0.037 A 
HETATM   13  C14 UNL     1      25.296   0.032  53.143  1.00  0.00     0.012 A 
BRANCH  11  14
HETATM   14  O1  UNL     1      28.708  -1.096  53.086  1.00  0.00    -0.356 OA
HETATM   15  C1  UNL     1      29.973  -0.825  53.666  1.00  0.00     0.210 C 
ENDBRANCH  11  14
ENDBRANCH   7   8
BRANCH   7  16
HETATM   16  N1  UNL     1      24.439   3.595  52.925  1.00  0.00     0.091 N 
HETATM   17  H7  UNL     1      23.788   4.023  52.212  1.00  0.00     0.314 HD
HETATM   18  H8  UNL     1      25.392   3.592  52.448  1.00  0.00     0.314 HD
ENDBRANCH   7  16
ENDBRANCH   1   7
BRANCH   6  19
HETATM   19  N2  UNL     1      21.712   0.591  53.506  1.00  0.00    -0.231 NA
BRANCH  19  20
HETATM   20  P1  UNL     1      21.515  -0.966  53.849  1.00  0.00     0.185 P 
BRANCH  20  21
HETATM   21  N3  UNL     1      19.890  -1.678  54.205  1.00  0.00    -0.341 N 
HETATM   22  H13 UNL     1      19.974  -2.455  54.868  1.00  0.00     0.166 HD
BRANCH  21  23
HETATM   23  C13 UNL     1      18.942  -0.925  53.433  1.00  0.00     0.171 C 
HETATM   24  S1  UNL     1      17.468  -1.271  52.809  1.00  0.00    -0.074 SA
ENDBRANCH  21  23
ENDBRANCH  20  21
ENDBRANCH  19  20
ENDBRANCH   6  19
TORSDOF 8
ENDMDL
MODEL 3
REMARK VINA RESULT:      -6.6      3.360      4.473
REMARK  8 active torsions:
REMARK  status: ('A' for Active; 'I' for Inactive)
REMARK    1  A    between atoms: O1_2  and  C2_3 
REMARK    2  A    between atoms: C5_6  and  C6_7 
REMARK    3  A    between atoms: C6_7  and  N1_8 
REMARK    4  A    between atoms: C6_7  and  C7_9 
REMARK    5  A    between atoms: C12_14  and  N2_15 
REMARK    6  A    between atoms: N2_15  and  P1_16 
REMARK    7  A    between atoms: P1_16  and  N3_17 
REMARK    8  A    between atoms: N3_17  and  C13_18 
ROOT
HETATM    1  C7  UNL     1      23.464   2.190  51.649  1.00  0.00     0.008 A 
HETATM    2  C8  UNL     1      22.294   1.500  51.443  1.00  0.00     0.012 A 
HETATM    3  C9  UNL     1      21.738   1.427  50.161  1.00  0.00     0.001 A 
HETATM    4  C10 UNL     1      22.391   2.062  49.120  1.00  0.00     0.002 A 
HETATM    5  C11 UNL     1      23.572   2.761  49.321  1.00  0.00     0.032 A 
HETATM    6  C12 UNL     1      24.123   2.832  50.592  1.00  0.00     0.067 A 
ENDROOT
BRANCH   1   7
HETATM    7  C6  UNL     1      23.989   2.206  53.029  1.00  0.00     0.286 C 
BRANCH   7   8
HETATM    8  C5  UNL     1      25.119   1.255  53.233  1.00  0.00    -0.021 A 
HETATM    9  C4  UNL     1      25.138  -0.059  52.825  1.00  0.00     0.012 A 
HETATM   10  C3  UNL     1      26.240  -0.853  53.056  1.00  0.00     0.037 A 
HETATM   11  C2  UNL     1      27.369  -0.356  53.707  1.00  0.00     0.068 A 
HETATM   12  C15 UNL     1      27.377   0.965  54.130  1.00  0.00     0.037 A 
HETATM   13  C14 UNL     1      26.257   1.725  53.880  1.00  0.00     0.012 A 
BRANCH  11  14
HETATM   14  O1  UNL     1      28.521  -1.063  53.987  1.00  0.00    -0.356 OA
HETATM   15  C1  UNL     1      29.820  -0.692  53.555  1.00  0.00     0.210 C 
ENDBRANCH  11  14
ENDBRANCH   7   8
BRANCH   7  16
HETATM   16  N1  UNL     1      24.499   3.536  53.379  1.00  0.00     0.091 N 
HETATM   17  H7  UNL     1      24.241   3.712  54.387  1.00  0.00     0.314 HD
HETATM   18  H8  UNL     1      23.889   4.212  52.825  1.00  0.00     0.314 HD
ENDBRANCH   7  16
ENDBRANCH   1   7
BRANCH   6  19
HETATM   19  N2  UNL     1      25.322   3.540  50.843  1.00  0.00    -0.231 NA
BRANCH  19  20
HETATM   20  P1  UNL     1      26.441   3.701  49.703  1.00  0.00     0.185 P 
BRANCH  20  21
HETATM   21  N3  UNL     1      27.227   5.289  49.337  1.00  0.00    -0.341 N 
HETATM   22  H13 UNL     1      28.231   5.167  49.174  1.00  0.00     0.166 HD
BRANCH  21  23
HETATM   23  C13 UNL     1      26.184   6.276  49.385  1.00  0.00     0.171 C 
HETATM   24  S1  UNL     1      26.127   7.832  49.890  1.00  0.00    -0.074 SA
ENDBRANCH  21  23
ENDBRANCH  20  21
ENDBRANCH  19  20
ENDBRANCH   6  19
TORSDOF 8
ENDMDL
MODEL 4
REMARK VINA RESULT:      -6.3      3.956      6.229
REMARK  8 active torsions:
REMARK  status: ('A' for Active; 'I' for Inactive)
REMARK    1  A    between atoms: O1_2  and  C2_3 
REMARK    2  A    between atoms: C5_6  and  C6_7 
REMARK    3  A    between atoms: C6_7  and  N1_8 
REMARK    4  A    between atoms: C6_7  and  C7_9 
REMARK    5  A    between atoms: C12_14  and  N2_15 
REMARK    6  A    between atoms: N2_15  and  P1_16 
REMARK    7  A    between atoms: P1_16  and  N3_17 
REMARK    8  A    between atoms: N3_17  and  C13_18 
ROOT
HETATM    1  C7  UNL     1      24.030   0.958  53.105  1.00  0.00     0.008 A 
HETATM    2  C8  UNL     1      22.679   1.183  52.997  1.00  0.00     0.012 A 
HETATM    3  C9  UNL     1      21.769   0.273  53.547  1.00  0.00     0.001 A 
HETATM    4  C10 UNL     1      22.262  -0.845  54.195  1.00  0.00     0.002 A 
HETATM    5  C11 UNL     1      23.624  -1.079  54.307  1.00  0.00     0.032 A 
HETATM    6  C12 UNL     1      24.526  -0.176  53.762  1.00  0.00     0.067 A 
ENDROOT
BRANCH   1   7
HETATM    7  C6  UNL     1      24.920   1.974  52.509  1.00  0.00     0.286 C 
BRANCH   7   8
HETATM    8  C5  UNL     1      24.181   3.016  51.741  1.00  0.00    -0.021 A 
HETATM    9  C4  UNL     1      23.863   2.946  50.404  1.00  0.00     0.012 A 
HETATM   10  C3  UNL     1      23.167   3.965  49.790  1.00  0.00     0.037 A 
HETATM   11  C2  UNL     1      22.762   5.096  50.498  1.00  0.00     0.068 A 
HETATM   12  C15 UNL     1      23.069   5.194  51.847  1.00  0.00     0.037 A 
HETATM   13  C14 UNL     1      23.766   4.156  52.423  1.00  0.00     0.012 A 
BRANCH  11  14
HETATM   14  O1  UNL     1      22.063   6.169  49.982  1.00  0.00    -0.356 OA
HETATM   15  C1  UNL     1      21.630   7.289  50.738  1.00  0.00     0.210 C 
ENDBRANCH  11  14
ENDBRANCH   7   8
BRANCH   7  16
HETATM   16  N1  UNL     1      25.674   2.683  53.548  1.00  0.00     0.091 N 
HETATM   17  H7  UNL     1      26.447   3.214  53.064  1.00  0.00     0.314 HD
HETATM   18  H8  UNL     1      26.176   1.914  54.088  1.00  0.00     0.314 HD
ENDBRANCH   7  16
ENDBRANCH   1   7
BRANCH   6  19
HETATM   19  N2  UNL     1      25.924  -0.379  53.849  1.00  0.00    -0.231 NA
BRANCH  19  20
HETATM   20  P1  UNL     1      26.713  -1.193  52.712  1.00  0.00     0.185 P 
BRANCH  20  21
HETATM   21  N3  UNL     1      27.664  -2.688  53.078  1.00  0.00    -0.341 N 
HETATM   22  H13 UNL     1      27.046  -3.502  53.147  1.00  0.00     0.166 HD
BRANCH  21  23
HETATM   23  C13 UNL     1      29.038  -2.280  53.166  1.00  0.00     0.171 C 
HETATM   24  S1  UNL     1      29.775  -0.893  53.630  1.00  0.00    -0.074 SA
ENDBRANCH  21  23
ENDBRANCH  20  21
ENDBRANCH  19  20
ENDBRANCH   6  19
TORSDOF 8
ENDMDL
MODEL 5
REMARK VINA RESULT:      -6.2      5.028      6.781
REMARK  8 active torsions:
REMARK  status: ('A' for Active; 'I' for Inactive)
REMARK    1  A    between atoms: O1_2  and  C2_3 
REMARK    2  A    between atoms: C5_6  and  C6_7 
REMARK    3  A    between atoms: C6_7  and  N1_8 
REMARK    4  A    between atoms: C6_7  and  C7_9 
REMARK    5  A    between atoms: C12_14  and  N2_15 
REMARK    6  A    between atoms: N2_15  and  P1_16 
REMARK    7  A    between atoms: P1_16  and  N3_17 
REMARK    8  A    between atoms: N3_17  and  C13_18 
ROOT
HETATM    1  C7  UNL     1      24.830   4.597  50.383  1.00  0.00     0.008 A 
HETATM    2  C8  UNL     1      25.537   3.424  50.270  1.00  0.00     0.012 A 
HETATM    3  C9  UNL     1      26.713   3.384  49.514  1.00  0.00     0.001 A 
HETATM    4  C10 UNL     1      27.139   4.542  48.890  1.00  0.00     0.002 A 
HETATM    5  C11 UNL     1      26.430   5.729  48.998  1.00  0.00     0.032 A 
HETATM    6  C12 UNL     1      25.264   5.769  49.750  1.00  0.00     0.067 A 
ENDROOT
BRANCH   1   7
HETATM    7  C6  UNL     1      23.608   4.556  51.211  1.00  0.00     0.286 C 
BRANCH   7   8
HETATM    8  C5  UNL     1      23.145   3.169  51.496  1.00  0.00    -0.021 A 
HETATM    9  C4  UNL     1      22.388   2.391  50.649  1.00  0.00     0.012 A 
HETATM   10  C3  UNL     1      22.018   1.113  51.007  1.00  0.00     0.037 A 
HETATM   11  C2  UNL     1      22.396   0.564  52.232  1.00  0.00     0.068 A 
HETATM   12  C15 UNL     1      23.158   1.326  53.106  1.00  0.00     0.037 A 
HETATM   13  C14 UNL     1      23.507   2.598  52.712  1.00  0.00     0.012 A 
BRANCH  11  14
HETATM   14  O1  UNL     1      22.081  -0.701  52.687  1.00  0.00    -0.356 OA
HETATM   15  C1  UNL     1      22.238  -1.139  54.027  1.00  0.00     0.210 C 
ENDBRANCH  11  14
ENDBRANCH   7   8
BRANCH   7  16
HETATM   16  N1  UNL     1      23.837   5.191  52.513  1.00  0.00     0.091 N 
HETATM   17  H7  UNL     1      24.700   5.792  52.417  1.00  0.00     0.314 HD
HETATM   18  H8  UNL     1      24.137   4.393  53.152  1.00  0.00     0.314 HD
ENDBRANCH   7  16
ENDBRANCH   1   7
BRANCH   6  19
HETATM   19  N2  UNL     1      24.506   6.958  49.882  1.00  0.00    -0.231 NA
BRANCH  19  20
HETATM   20  P1  UNL     1      25.226   8.387  50.007  1.00  0.00     0.185 P 
BRANCH  20  21
HETATM   21  N3  UNL     1      26.862   8.583  50.756  1.00  0.00    -0.341 N 
HETATM   22  H13 UNL     1      26.929   8.042  51.623  1.00  0.00     0.166 HD
BRANCH  21  23
HETATM   23  C13 UNL     1      27.599   9.461  49.890  1.00  0.00     0.171 C 
HETATM   24  S1  UNL     1      29.134   9.454  49.320  1.00  0.00    -0.074 SA
ENDBRANCH  21  23
ENDBRANCH  20  21
ENDBRANCH  19  20
ENDBRANCH   6  19
TORSDOF 8
ENDMDL
MODEL 6
REMARK VINA RESULT:      -6.2      2.163      2.507
REMARK  8 active torsions:
REMARK  status: ('A' for Active; 'I' for Inactive)
REMARK    1  A    between atoms: O1_2  and  C2_3 
REMARK    2  A    between atoms: C5_6  and  C6_7 
REMARK    3  A    between atoms: C6_7  and  N1_8 
REMARK    4  A    between atoms: C6_7  and  C7_9 
REMARK    5  A    between atoms: C12_14  and  N2_15 
REMARK    6  A    between atoms: N2_15  and  P1_16 
REMARK    7  A    between atoms: P1_16  and  N3_17 
REMARK    8  A    between atoms: N3_17  and  C13_18 
ROOT
HETATM    1  C7  UNL     1      23.837   2.275  51.525  1.00  0.00     0.008 A 
HETATM    2  C8  UNL     1      24.529   3.099  50.669  1.00  0.00     0.012 A 
HETATM    3  C9  UNL     1      24.117   3.234  49.339  1.00  0.00     0.001 A 
HETATM    4  C10 UNL     1      23.009   2.524  48.914  1.00  0.00     0.002 A 
HETATM    5  C11 UNL     1      22.307   1.690  49.771  1.00  0.00     0.032 A 
HETATM    6  C12 UNL     1      22.715   1.558  51.091  1.00  0.00     0.067 A 
ENDROOT
BRANCH   1   7
HETATM    7  C6  UNL     1      24.330   2.201  52.914  1.00  0.00     0.286 C 
BRANCH   7   8
HETATM    8  C5  UNL     1      25.620   1.463  53.036  1.00  0.00    -0.021 A 
HETATM    9  C4  UNL     1      26.824   2.017  53.404  1.00  0.00     0.012 A 
HETATM   10  C3  UNL     1      27.960   1.242  53.494  1.00  0.00     0.037 A 
HETATM   11  C2  UNL     1      27.929  -0.124  53.216  1.00  0.00     0.068 A 
HETATM   12  C15 UNL     1      26.729  -0.710  52.841  1.00  0.00     0.037 A 
HETATM   13  C14 UNL     1      25.618   0.099  52.763  1.00  0.00     0.012 A 
BRANCH  11  14
HETATM   14  O1  UNL     1      29.004  -0.989  53.275  1.00  0.00    -0.356 OA
HETATM   15  C1  UNL     1      28.921  -2.393  53.095  1.00  0.00     0.210 C 
ENDBRANCH  11  14
ENDBRANCH   7   8
BRANCH   7  16
HETATM   16  N1  UNL     1      24.570   3.543  53.456  1.00  0.00     0.091 N 
HETATM   17  H7  UNL     1      25.609   3.630  53.622  1.00  0.00     0.314 HD
HETATM   18  H8  UNL     1      24.145   3.518  54.433  1.00  0.00     0.314 HD
ENDBRANCH   7  16
ENDBRANCH   1   7
BRANCH   6  19
HETATM   19  N2  UNL     1      22.032   0.713  51.998  1.00  0.00    -0.231 NA
BRANCH  19  20
HETATM   20  P1  UNL     1      20.651   1.174  52.676  1.00  0.00     0.185 P 
BRANCH  20  21
HETATM   21  N3  UNL     1      19.318   1.945  51.726  1.00  0.00    -0.341 N 
HETATM   22  H13 UNL     1      18.698   1.231  51.329  1.00  0.00     0.166 HD
BRANCH  21  23
HETATM   23  C13 UNL     1      19.529   3.362  51.812  1.00  0.00     0.171 C 
HETATM   24  S1  UNL     1      20.081   4.486  50.756  1.00  0.00    -0.074 SA
ENDBRANCH  21  23
ENDBRANCH  20  21
ENDBRANCH  19  20
ENDBRANCH   6  19
TORSDOF 8
ENDMDL
MODEL 7
REMARK VINA RESULT:      -6.2      2.432      2.650
REMARK  8 active torsions:
REMARK  status: ('A' for Active; 'I' for Inactive)
REMARK    1  A    between atoms: O1_2  and  C2_3 
REMARK    2  A    between atoms: C5_6  and  C6_7 
REMARK    3  A    between atoms: C6_7  and  N1_8 
REMARK    4  A    between atoms: C6_7  and  C7_9 
REMARK    5  A    between atoms: C12_14  and  N2_15 
REMARK    6  A    between atoms: N2_15  and  P1_16 
REMARK    7  A    between atoms: P1_16  and  N3_17 
REMARK    8  A    between atoms: N3_17  and  C13_18 
ROOT
HETATM    1  C7  UNL     1      23.184   1.365  52.729  1.00  0.00     0.008 A 
HETATM    2  C8  UNL     1      24.000   2.442  52.979  1.00  0.00     0.012 A 
HETATM    3  C9  UNL     1      23.553   3.740  52.708  1.00  0.00     0.001 A 
HETATM    4  C10 UNL     1      22.283   3.907  52.188  1.00  0.00     0.002 A 
HETATM    5  C11 UNL     1      21.453   2.825  51.932  1.00  0.00     0.032 A 
HETATM    6  C12 UNL     1      21.897   1.538  52.202  1.00  0.00     0.067 A 
ENDROOT
BRANCH   1   7
HETATM    7  C6  UNL     1      23.728   0.032  53.056  1.00  0.00     0.286 C 
BRANCH   7   8
HETATM    8  C5  UNL     1      25.175   0.066  53.411  1.00  0.00    -0.021 A 
HETATM    9  C4  UNL     1      25.683   0.029  54.690  1.00  0.00     0.012 A 
HETATM   10  C3  UNL     1      27.042   0.057  54.911  1.00  0.00     0.037 A 
HETATM   11  C2  UNL     1      27.948   0.124  53.852  1.00  0.00     0.068 A 
HETATM   12  C15 UNL     1      27.464   0.163  52.552  1.00  0.00     0.037 A 
HETATM   13  C14 UNL     1      26.100   0.133  52.374  1.00  0.00     0.012 A 
BRANCH  11  14
HETATM   14  O1  UNL     1      29.324   0.156  53.961  1.00  0.00    -0.356 OA
HETATM   15  C1  UNL     1      30.170  -0.974  53.833  1.00  0.00     0.210 C 
ENDBRANCH  11  14
ENDBRANCH   7   8
BRANCH   7  16
HETATM   16  N1  UNL     1      23.032  -0.547  54.209  1.00  0.00     0.091 N 
HETATM   17  H7  UNL     1      23.765  -0.765  54.937  1.00  0.00     0.314 HD
HETATM   18  H8  UNL     1      22.700  -1.502  53.871  1.00  0.00     0.314 HD
ENDBRANCH   7  16
ENDBRANCH   1   7
BRANCH   6  19
HETATM   19  N2  UNL     1      21.086   0.405  51.951  1.00  0.00    -0.231 NA
BRANCH  19  20
HETATM   20  P1  UNL     1      19.661   0.234  52.670  1.00  0.00     0.185 P 
BRANCH  20  21
HETATM   21  N3  UNL     1      19.306  -1.137  53.797  1.00  0.00    -0.341 N 
HETATM   22  H13 UNL     1      20.094  -1.295  54.433  1.00  0.00     0.166 HD
BRANCH  21  23
HETATM   23  C13 UNL     1      17.993  -1.608  53.458  1.00  0.00     0.171 C 
HETATM   24  S1  UNL     1      16.857  -1.109  52.389  1.00  0.00    -0.074 SA
ENDBRANCH  21  23
ENDBRANCH  20  21
ENDBRANCH  19  20
ENDBRANCH   6  19
TORSDOF 8
ENDMDL
MODEL 8
REMARK VINA RESULT:      -6.0      3.981      6.533
REMARK  8 active torsions:
REMARK  status: ('A' for Active; 'I' for Inactive)
REMARK    1  A    between atoms: O1_2  and  C2_3 
REMARK    2  A    between atoms: C5_6  and  C6_7 
REMARK    3  A    between atoms: C6_7  and  N1_8 
REMARK    4  A    between atoms: C6_7  and  C7_9 
REMARK    5  A    between atoms: C12_14  and  N2_15 
REMARK    6  A    between atoms: N2_15  and  P1_16 
REMARK    7  A    between atoms: P1_16  and  N3_17 
REMARK    8  A    between atoms: N3_17  and  C13_18 
ROOT
HETATM    1  C7  UNL     1      22.766   1.971  51.775  1.00  0.00     0.008 A 
HETATM    2  C8  UNL     1      22.054   3.145  51.716  1.00  0.00     0.012 A 
HETATM    3  C9  UNL     1      22.558   4.302  52.320  1.00  0.00     0.001 A 
HETATM    4  C10 UNL     1      23.778   4.233  52.969  1.00  0.00     0.002 A 
HETATM    5  C11 UNL     1      24.501   3.052  53.032  1.00  0.00     0.032 A 
HETATM    6  C12 UNL     1      24.001   1.904  52.433  1.00  0.00     0.067 A 
ENDROOT
BRANCH   1   7
HETATM    7  C6  UNL     1      22.169   0.801  51.100  1.00  0.00     0.286 C 
BRANCH   7   8
HETATM    8  C5  UNL     1      20.959   0.282  51.800  1.00  0.00    -0.021 A 
HETATM    9  C4  UNL     1      20.942  -0.267  53.062  1.00  0.00     0.012 A 
HETATM   10  C3  UNL     1      19.764  -0.712  53.622  1.00  0.00     0.037 A 
HETATM   11  C2  UNL     1      18.555  -0.622  52.934  1.00  0.00     0.068 A 
HETATM   12  C15 UNL     1      18.542  -0.074  51.660  1.00  0.00     0.037 A 
HETATM   13  C14 UNL     1      19.739   0.358  51.136  1.00  0.00     0.012 A 
BRANCH  11  14
HETATM   14  O1  UNL     1      17.323  -1.035  53.401  1.00  0.00    -0.356 OA
HETATM   15  C1  UNL     1      16.087  -0.775  52.755  1.00  0.00     0.210 C 
ENDBRANCH  11  14
ENDBRANCH   7   8
BRANCH   7  16
HETATM   16  N1  UNL     1      21.745   1.143  49.739  1.00  0.00     0.091 N 
HETATM   17  H7  UNL     1      22.541   0.892  49.093  1.00  0.00     0.314 HD
HETATM   18  H8  UNL     1      21.716   2.208  49.726  1.00  0.00     0.314 HD
ENDBRANCH   7  16
ENDBRANCH   1   7
BRANCH   6  19
HETATM   19  N2  UNL     1      24.704   0.676  52.478  1.00  0.00    -0.231 NA
BRANCH  19  20
HETATM   20  P1  UNL     1      25.615   0.292  53.743  1.00  0.00     0.185 P 
BRANCH  20  21
HETATM   21  N3  UNL     1      26.863  -1.016  53.674  1.00  0.00    -0.341 N 
HETATM   22  H13 UNL     1      26.422  -1.928  53.517  1.00  0.00     0.166 HD
BRANCH  21  23
HETATM   23  C13 UNL     1      28.133  -0.372  53.863  1.00  0.00     0.171 C 
HETATM   24  S1  UNL     1      28.681   1.145  53.582  1.00  0.00    -0.074 SA
ENDBRANCH  21  23
ENDBRANCH  20  21
ENDBRANCH  19  20
ENDBRANCH   6  19
TORSDOF 8
ENDMDL
MODEL 9
REMARK VINA RESULT:      -6.0      3.665      6.275
REMARK  8 active torsions:
REMARK  status: ('A' for Active; 'I' for Inactive)
REMARK    1  A    between atoms: O1_2  and  C2_3 
REMARK    2  A    between atoms: C5_6  and  C6_7 
REMARK    3  A    between atoms: C6_7  and  N1_8 
REMARK    4  A    between atoms: C6_7  and  C7_9 
REMARK    5  A    between atoms: C12_14  and  N2_15 
REMARK    6  A    between atoms: N2_15  and  P1_16 
REMARK    7  A    between atoms: P1_16  and  N3_17 
REMARK    8  A    between atoms: N3_17  and  C13_18 
ROOT
HETATM    1  C7  UNL     1      23.507   1.326  52.699  1.00  0.00     0.008 A 
HETATM    2  C8  UNL     1      22.164   1.618  52.680  1.00  0.00     0.012 A 
HETATM    3  C9  UNL     1      21.245   0.728  53.247  1.00  0.00     0.001 A 
HETATM    4  C10 UNL     1      21.719  -0.437  53.821  1.00  0.00     0.002 A 
HETATM    5  C11 UNL     1      23.072  -0.738  53.843  1.00  0.00     0.032 A 
HETATM    6  C12 UNL     1      23.984   0.145  53.281  1.00  0.00     0.067 A 
ENDROOT
BRANCH   1   7
HETATM    7  C6  UNL     1      24.409   2.324  52.091  1.00  0.00     0.286 C 
BRANCH   7   8
HETATM    8  C5  UNL     1      23.720   3.212  51.112  1.00  0.00    -0.021 A 
HETATM    9  C4  UNL     1      23.147   4.429  51.405  1.00  0.00     0.012 A 
HETATM   10  C3  UNL     1      22.538   5.177  50.421  1.00  0.00     0.037 A 
HETATM   11  C2  UNL     1      22.482   4.731  49.101  1.00  0.00     0.068 A 
HETATM   12  C15 UNL     1      23.051   3.508  48.777  1.00  0.00     0.037 A 
HETATM   13  C14 UNL     1      23.648   2.791  49.788  1.00  0.00     0.012 A 
BRANCH  11  14
HETATM   14  O1  UNL     1      21.900   5.399  48.042  1.00  0.00    -0.356 OA
HETATM   15  C1  UNL     1      22.183   5.147  46.675  1.00  0.00     0.210 C 
ENDBRANCH  11  14
ENDBRANCH   7   8
BRANCH   7  16
HETATM   16  N1  UNL     1      24.981   3.205  53.116  1.00  0.00     0.091 N 
HETATM   17  H7  UNL     1      25.381   2.584  53.870  1.00  0.00     0.314 HD
HETATM   18  H8  UNL     1      24.137   3.669  53.572  1.00  0.00     0.314 HD
ENDBRANCH   7  16
ENDBRANCH   1   7
BRANCH   6  19
HETATM   19  N2  UNL     1      25.374  -0.125  53.277  1.00  0.00    -0.231 NA
BRANCH  19  20
HETATM   20  P1  UNL     1      26.227  -0.087  54.636  1.00  0.00     0.185 P 
BRANCH  20  21
HETATM   21  N3  UNL     1      27.669   0.986  54.842  1.00  0.00    -0.341 N 
HETATM   22  H13 UNL     1      27.378   1.951  55.027  1.00  0.00     0.166 HD
BRANCH  21  23
HETATM   23  C13 UNL     1      28.823   0.147  54.682  1.00  0.00     0.171 C 
HETATM   24  S1  UNL     1      29.276  -0.941  53.546  1.00  0.00    -0.074 SA
ENDBRANCH  21  23
ENDBRANCH  20  21
ENDBRANCH  19  20
ENDBRANCH   6  19
TORSDOF 8
ENDMDL
