MODEL 1
REMARK VINA RESULT:      -8.3      0.000      0.000
REMARK  4 active torsions:
REMARK  status: ('A' for Active; 'I' for Inactive)
REMARK    1  A    between atoms: O1_2  and  C2_3 
REMARK    2  A    between atoms: C5_6  and  C6_7 
REMARK    3  A    between atoms: C12_13  and  C13_14 
REMARK    4  A    between atoms: N2_18  and  C16_19 
ROOT
HETATM    1  C6  UNL     1      22.601   0.615  51.904  1.00  0.00    -0.017 A 
HETATM    2  C7  UNL     1      21.500  -0.095  52.370  1.00  0.00     0.019 A 
HETATM    3  C8  UNL     1      21.458  -0.818  53.530  1.00  0.00    -0.061 A 
HETATM    4  C9  UNL     1      20.203  -1.537  53.915  1.00  0.00     0.048 C 
HETATM    5  C10 UNL     1      22.599  -0.850  54.305  1.00  0.00     0.007 A 
HETATM    6  C11 UNL     1      23.714  -0.176  53.905  1.00  0.00     0.011 A 
HETATM    7  C12 UNL     1      23.702   0.537  52.726  1.00  0.00    -0.017 A 
ENDROOT
BRANCH   7   8
HETATM    8  C13 UNL     1      24.954   1.233  52.333  1.00  0.00     0.194 A 
HETATM    9  C14 UNL     1      25.202   2.392  53.229  1.00  0.00     0.058 A 
HETATM   10  C15 UNL     1      24.483   3.677  53.423  1.00  0.00     0.070 C 
HETATM   11  N1  UNL     1      26.245   1.839  53.738  1.00  0.00    -0.177 NA
HETATM   12  N2  UNL     1      26.148   0.685  52.966  1.00  0.00    -0.247 N 
BRANCH  12  13
HETATM   13  C16 UNL     1      26.974  -0.487  52.927  1.00  0.00     0.108 A 
HETATM   14  C17 UNL     1      28.214  -0.904  53.188  1.00  0.00     0.016 A 
HETATM   15  C18 UNL     1      29.637  -0.736  53.642  1.00  0.00     0.059 C 
HETATM   16  S1  UNL     1      27.183  -2.229  52.573  1.00  0.00    -0.072 SA
ENDBRANCH  12  13
ENDBRANCH   7   8
BRANCH   1  17
HETATM   17  C5  UNL     1      22.507   1.363  50.660  1.00  0.00    -0.025 A 
HETATM   18  C4  UNL     1      23.197   2.447  50.162  1.00  0.00     0.015 A 
HETATM   19  C3  UNL     1      22.900   2.943  48.933  1.00  0.00     0.037 A 
HETATM   20  C2  UNL     1      21.924   2.421  48.120  1.00  0.00     0.068 A 
HETATM   21  C20 UNL     1      21.222   1.340  48.593  1.00  0.00     0.037 A 
HETATM   22  C19 UNL     1      21.504   0.805  49.856  1.00  0.00     0.015 A 
BRANCH  20  23
HETATM   23  O1  UNL     1      21.766   3.055  46.911  1.00  0.00    -0.356 OA
HETATM   24  C1  UNL     1      21.936   4.446  46.820  1.00  0.00     0.210 C 
ENDBRANCH  20  23
ENDBRANCH   1  17
TORSDOF 4
ENDMDL
MODEL 2
REMARK VINA RESULT:      -8.0      3.898      7.246
REMARK  4 active torsions:
REMARK  status: ('A' for Active; 'I' for Inactive)
REMARK    1  A    between atoms: O1_2  and  C2_3 
REMARK    2  A    between atoms: C5_6  and  C6_7 
REMARK    3  A    between atoms: C12_13  and  C13_14 
REMARK    4  A    between atoms: N2_18  and  C16_19 
ROOT
HETATM    1  C6  UNL     1      26.153   3.087  50.764  1.00  0.00    -0.017 A 
HETATM    2  C7  UNL     1      27.024   3.746  49.905  1.00  0.00     0.019 A 
HETATM    3  C8  UNL     1      26.710   4.838  49.144  1.00  0.00    -0.061 A 
HETATM    4  C9  UNL     1      27.750   5.453  48.259  1.00  0.00     0.048 C 
HETATM    5  C10 UNL     1      25.425   5.330  49.232  1.00  0.00     0.007 A 
HETATM    6  C11 UNL     1      24.519   4.730  50.055  1.00  0.00     0.011 A 
HETATM    7  C12 UNL     1      24.888   3.630  50.800  1.00  0.00    -0.017 A 
ENDROOT
BRANCH   7   8
HETATM    8  C13 UNL     1      23.853   3.007  51.662  1.00  0.00     0.194 A 
HETATM    9  C14 UNL     1      23.229   4.030  52.540  1.00  0.00     0.058 A 
HETATM   10  C15 UNL     1      23.761   4.837  53.668  1.00  0.00     0.070 C 
HETATM   11  N1  UNL     1      22.097   3.927  51.940  1.00  0.00    -0.177 NA
HETATM   12  N2  UNL     1      22.533   2.958  51.043  1.00  0.00    -0.247 N 
BRANCH  12  13
HETATM   13  C16 UNL     1      21.838   2.279  49.987  1.00  0.00     0.108 A 
HETATM   14  C17 UNL     1      21.904   2.037  48.677  1.00  0.00     0.016 A 
HETATM   15  C18 UNL     1      22.512   2.133  47.306  1.00  0.00     0.059 C 
HETATM   16  S1  UNL     1      20.472   1.269  49.423  1.00  0.00    -0.072 SA
ENDBRANCH  12  13
ENDBRANCH   7   8
BRANCH   1  17
HETATM   17  C5  UNL     1      26.621   1.945  51.535  1.00  0.00    -0.025 A 
HETATM   18  C4  UNL     1      26.311   0.602  51.505  1.00  0.00     0.015 A 
HETATM   19  C3  UNL     1      26.926  -0.262  52.353  1.00  0.00     0.037 A 
HETATM   20  C2  UNL     1      27.872   0.121  53.273  1.00  0.00     0.068 A 
HETATM   21  C20 UNL     1      28.197   1.455  53.323  1.00  0.00     0.037 A 
HETATM   22  C19 UNL     1      27.581   2.371  52.462  1.00  0.00     0.015 A 
BRANCH  20  23
HETATM   23  O1  UNL     1      28.384  -0.893  54.045  1.00  0.00    -0.356 OA
HETATM   24  C1  UNL     1      29.644  -1.436  53.746  1.00  0.00     0.210 C 
ENDBRANCH  20  23
ENDBRANCH   1  17
TORSDOF 4
ENDMDL
MODEL 3
REMARK VINA RESULT:      -8.0      3.350      5.943
REMARK  4 active torsions:
REMARK  status: ('A' for Active; 'I' for Inactive)
REMARK    1  A    between atoms: O1_2  and  C2_3 
REMARK    2  A    between atoms: C5_6  and  C6_7 
REMARK    3  A    between atoms: C12_13  and  C13_14 
REMARK    4  A    between atoms: N2_18  and  C16_19 
ROOT
HETATM    1  C6  UNL     1      23.448   0.737  52.553  1.00  0.00    -0.017 A 
HETATM    2  C7  UNL     1      22.777  -0.084  53.452  1.00  0.00     0.019 A 
HETATM    3  C8  UNL     1      21.466  -0.460  53.354  1.00  0.00    -0.061 A 
HETATM    4  C9  UNL     1      20.868  -1.353  54.396  1.00  0.00     0.048 C 
HETATM    5  C10 UNL     1      20.745   0.012  52.278  1.00  0.00     0.007 A 
HETATM    6  C11 UNL     1      21.342   0.823  51.359  1.00  0.00     0.011 A 
HETATM    7  C12 UNL     1      22.668   1.171  51.506  1.00  0.00    -0.017 A 
ENDROOT
BRANCH   7   8
HETATM    8  C13 UNL     1      23.257   2.075  50.485  1.00  0.00     0.194 A 
HETATM    9  C14 UNL     1      22.328   2.226  49.335  1.00  0.00     0.058 A 
HETATM   10  C15 UNL     1      21.857   1.272  48.299  1.00  0.00     0.070 C 
HETATM   11  N1  UNL     1      22.118   3.466  49.604  1.00  0.00    -0.177 NA
HETATM   12  N2  UNL     1      22.958   3.484  50.713  1.00  0.00    -0.247 N 
BRANCH  12  13
HETATM   13  C16 UNL     1      23.292   4.546  51.617  1.00  0.00     0.108 A 
HETATM   14  C17 UNL     1      23.719   5.810  51.635  1.00  0.00     0.016 A 
HETATM   15  C18 UNL     1      24.174   7.100  51.013  1.00  0.00     0.059 C 
HETATM   16  S1  UNL     1      23.455   5.173  53.285  1.00  0.00    -0.072 SA
ENDBRANCH  12  13
ENDBRANCH   7   8
BRANCH   1  17
HETATM   17  C5  UNL     1      24.855   1.044  52.763  1.00  0.00    -0.025 A 
HETATM   18  C4  UNL     1      25.507   2.131  53.307  1.00  0.00     0.015 A 
HETATM   19  C3  UNL     1      26.863   2.144  53.390  1.00  0.00     0.037 A 
HETATM   20  C2  UNL     1      27.660   1.113  52.955  1.00  0.00     0.068 A 
HETATM   21  C20 UNL     1      27.034   0.020  52.409  1.00  0.00     0.037 A 
HETATM   22  C19 UNL     1      25.638  -0.025  52.309  1.00  0.00     0.015 A 
BRANCH  20  23
HETATM   23  O1  UNL     1      29.010   1.306  53.121  1.00  0.00    -0.356 OA
HETATM   24  C1  UNL     1      29.807   0.279  53.654  1.00  0.00     0.210 C 
ENDBRANCH  20  23
ENDBRANCH   1  17
TORSDOF 4
ENDMDL
MODEL 4
REMARK VINA RESULT:      -7.9      4.587      7.571
REMARK  4 active torsions:
REMARK  status: ('A' for Active; 'I' for Inactive)
REMARK    1  A    between atoms: O1_2  and  C2_3 
REMARK    2  A    between atoms: C5_6  and  C6_7 
REMARK    3  A    between atoms: C12_13  and  C13_14 
REMARK    4  A    between atoms: N2_18  and  C16_19 
ROOT
HETATM    1  C6  UNL     1      25.878   4.249  49.740  1.00  0.00    -0.017 A 
HETATM    2  C7  UNL     1      27.185   4.333  49.274  1.00  0.00     0.019 A 
HETATM    3  C8  UNL     1      27.696   5.360  48.530  1.00  0.00    -0.061 A 
HETATM    4  C9  UNL     1      29.127   5.323  48.093  1.00  0.00     0.048 C 
HETATM    5  C10 UNL     1      26.849   6.401  48.212  1.00  0.00     0.007 A 
HETATM    6  C11 UNL     1      25.554   6.382  48.636  1.00  0.00     0.011 A 
HETATM    7  C12 UNL     1      25.090   5.320  49.384  1.00  0.00    -0.017 A 
ENDROOT
BRANCH   7   8
HETATM    8  C13 UNL     1      23.665   5.345  49.800  1.00  0.00     0.194 A 
HETATM    9  C14 UNL     1      23.160   6.742  49.823  1.00  0.00     0.058 A 
HETATM   10  C15 UNL     1      23.487   7.908  50.683  1.00  0.00     0.070 C 
HETATM   11  N1  UNL     1      22.363   6.524  48.838  1.00  0.00    -0.177 NA
HETATM   12  N2  UNL     1      22.732   5.191  48.689  1.00  0.00    -0.247 N 
BRANCH  12  13
HETATM   13  C16 UNL     1      22.281   4.192  47.762  1.00  0.00     0.108 A 
HETATM   14  C17 UNL     1      21.985   2.894  47.685  1.00  0.00     0.016 A 
HETATM   15  C18 UNL     1      21.828   1.501  48.227  1.00  0.00     0.059 C 
HETATM   16  S1  UNL     1      21.758   3.722  46.117  1.00  0.00    -0.072 SA
ENDBRANCH  12  13
ENDBRANCH   7   8
BRANCH   1  17
HETATM   17  C5  UNL     1      25.466   3.107  50.542  1.00  0.00    -0.025 A 
HETATM   18  C4  UNL     1      24.233   2.577  50.856  1.00  0.00     0.015 A 
HETATM   19  C3  UNL     1      24.143   1.468  51.635  1.00  0.00     0.037 A 
HETATM   20  C2  UNL     1      25.234   0.812  52.151  1.00  0.00     0.068 A 
HETATM   21  C20 UNL     1      26.474   1.321  51.853  1.00  0.00     0.037 A 
HETATM   22  C19 UNL     1      26.601   2.463  51.052  1.00  0.00     0.015 A 
BRANCH  20  23
HETATM   23  O1  UNL     1      24.947  -0.292  52.917  1.00  0.00    -0.356 OA
HETATM   24  C1  UNL     1      23.692  -0.411  53.537  1.00  0.00     0.210 C 
ENDBRANCH  20  23
ENDBRANCH   1  17
TORSDOF 4
ENDMDL
MODEL 5
REMARK VINA RESULT:      -7.6      3.278      5.758
REMARK  4 active torsions:
REMARK  status: ('A' for Active; 'I' for Inactive)
REMARK    1  A    between atoms: O1_2  and  C2_3 
REMARK    2  A    between atoms: C5_6  and  C6_7 
REMARK    3  A    between atoms: C12_13  and  C13_14 
REMARK    4  A    between atoms: N2_18  and  C16_19 
ROOT
HETATM    1  C6  UNL     1      23.583   1.068  52.352  1.00  0.00    -0.017 A 
HETATM    2  C7  UNL     1      24.655   0.188  52.435  1.00  0.00     0.019 A 
HETATM    3  C8  UNL     1      25.973   0.534  52.331  1.00  0.00    -0.061 A 
HETATM    4  C9  UNL     1      27.031  -0.519  52.440  1.00  0.00     0.048 C 
HETATM    5  C10 UNL     1      26.270   1.866  52.126  1.00  0.00     0.007 A 
HETATM    6  C11 UNL     1      25.265   2.782  52.034  1.00  0.00     0.011 A 
HETATM    7  C12 UNL     1      23.952   2.379  52.146  1.00  0.00    -0.017 A 
ENDROOT
BRANCH   7   8
HETATM    8  C13 UNL     1      22.901   3.420  52.016  1.00  0.00     0.194 A 
HETATM    9  C14 UNL     1      23.412   4.730  52.495  1.00  0.00     0.058 A 
HETATM   10  C15 UNL     1      23.806   5.217  53.842  1.00  0.00     0.070 C 
HETATM   11  N1  UNL     1      23.372   5.234  51.313  1.00  0.00    -0.177 NA
HETATM   12  N2  UNL     1      22.889   4.075  50.713  1.00  0.00    -0.247 N 
BRANCH  12  13
HETATM   13  C16 UNL     1      22.560   3.796  49.345  1.00  0.00     0.108 A 
HETATM   14  C17 UNL     1      22.221   2.793  48.534  1.00  0.00     0.016 A 
HETATM   15  C18 UNL     1      21.906   1.362  48.201  1.00  0.00     0.059 C 
HETATM   16  S1  UNL     1      22.309   4.352  47.663  1.00  0.00    -0.072 SA
ENDBRANCH  12  13
ENDBRANCH   7   8
BRANCH   1  17
HETATM   17  C5  UNL     1      22.223   0.571  52.501  1.00  0.00    -0.025 A 
HETATM   18  C4  UNL     1      21.176   0.423  51.616  1.00  0.00     0.015 A 
HETATM   19  C3  UNL     1      19.992  -0.093  52.037  1.00  0.00     0.037 A 
HETATM   20  C2  UNL     1      19.755  -0.492  53.330  1.00  0.00     0.068 A 
HETATM   21  C20 UNL     1      20.782  -0.353  54.230  1.00  0.00     0.037 A 
HETATM   22  C19 UNL     1      22.015   0.174  53.828  1.00  0.00     0.015 A 
BRANCH  20  23
HETATM   23  O1  UNL     1      18.496  -0.989  53.568  1.00  0.00    -0.356 OA
HETATM   24  C1  UNL     1      17.469  -0.780  52.634  1.00  0.00     0.210 C 
ENDBRANCH  20  23
ENDBRANCH   1  17
TORSDOF 4
ENDMDL
MODEL 6
REMARK VINA RESULT:      -7.3      4.233      6.678
REMARK  4 active torsions:
REMARK  status: ('A' for Active; 'I' for Inactive)
REMARK    1  A    between atoms: O1_2  and  C2_3 
REMARK    2  A    between atoms: C5_6  and  C6_7 
REMARK    3  A    between atoms: C12_13  and  C13_14 
REMARK    4  A    between atoms: N2_18  and  C16_19 
ROOT
HETATM    1  C6  UNL     1      25.131   5.847  49.021  1.00  0.00    -0.017 A 
HETATM    2  C7  UNL     1      26.458   6.101  48.694  1.00  0.00     0.019 A 
HETATM    3  C8  UNL     1      27.464   5.175  48.693  1.00  0.00    -0.061 A 
HETATM    4  C9  UNL     1      28.854   5.586  48.318  1.00  0.00     0.048 C 
HETATM    5  C10 UNL     1      27.142   3.881  49.046  1.00  0.00     0.007 A 
HETATM    6  C11 UNL     1      25.859   3.564  49.379  1.00  0.00     0.011 A 
HETATM    7  C12 UNL     1      24.882   4.537  49.363  1.00  0.00    -0.017 A 
ENDROOT
BRANCH   7   8
HETATM    8  C13 UNL     1      23.508   4.136  49.756  1.00  0.00     0.194 A 
HETATM    9  C14 UNL     1      22.778   3.584  48.586  1.00  0.00     0.058 A 
HETATM   10  C15 UNL     1      22.296   4.206  47.326  1.00  0.00     0.070 C 
HETATM   11  N1  UNL     1      22.745   2.406  49.099  1.00  0.00    -0.177 NA
HETATM   12  N2  UNL     1      23.422   2.769  50.258  1.00  0.00    -0.247 N 
BRANCH  12  13
HETATM   13  C16 UNL     1      23.806   1.991  51.401  1.00  0.00     0.108 A 
HETATM   14  C17 UNL     1      24.849   1.346  51.925  1.00  0.00     0.016 A 
HETATM   15  C18 UNL     1      26.269   0.855  51.953  1.00  0.00     0.059 C 
HETATM   16  S1  UNL     1      23.404   1.234  52.972  1.00  0.00    -0.072 SA
ENDBRANCH  12  13
ENDBRANCH   7   8
BRANCH   1  17
HETATM   17  C5  UNL     1      24.152   6.922  48.962  1.00  0.00    -0.025 A 
HETATM   18  C4  UNL     1      23.381   7.543  49.921  1.00  0.00     0.015 A 
HETATM   19  C3  UNL     1      22.540   8.552  49.576  1.00  0.00     0.037 A 
HETATM   20  C2  UNL     1      22.397   9.015  48.291  1.00  0.00     0.068 A 
HETATM   21  C20 UNL     1      23.153   8.411  47.317  1.00  0.00     0.037 A 
HETATM   22  C19 UNL     1      24.031   7.369  47.639  1.00  0.00     0.015 A 
BRANCH  20  23
HETATM   23  O1  UNL     1      21.498  10.042  48.134  1.00  0.00    -0.356 OA
HETATM   24  C1  UNL     1      20.537  10.293  49.127  1.00  0.00     0.210 C 
ENDBRANCH  20  23
ENDBRANCH   1  17
TORSDOF 4
ENDMDL
MODEL 7
REMARK VINA RESULT:      -7.2      5.743      8.772
REMARK  4 active torsions:
REMARK  status: ('A' for Active; 'I' for Inactive)
REMARK    1  A    between atoms: O1_2  and  C2_3 
REMARK    2  A    between atoms: C5_6  and  C6_7 
REMARK    3  A    between atoms: C12_13  and  C13_14 
REMARK    4  A    between atoms: N2_18  and  C16_19 
ROOT
HETATM    1  C6  UNL     1      26.261   5.219  48.870  1.00  0.00    -0.017 A 
HETATM    2  C7  UNL     1      27.610   4.942  48.684  1.00  0.00     0.019 A 
HETATM    3  C8  UNL     1      28.532   5.808  48.166  1.00  0.00    -0.061 A 
HETATM    4  C9  UNL     1      29.959   5.378  48.022  1.00  0.00     0.048 C 
HETATM    5  C10 UNL     1      28.093   7.062  47.795  1.00  0.00     0.007 A 
HETATM    6  C11 UNL     1      26.782   7.399  47.949  1.00  0.00     0.011 A 
HETATM    7  C12 UNL     1      25.893   6.486  48.477  1.00  0.00    -0.017 A 
ENDROOT
BRANCH   7   8
HETATM    8  C13 UNL     1      24.473   6.904  48.601  1.00  0.00     0.194 A 
HETATM    9  C14 UNL     1      24.245   7.567  49.911  1.00  0.00     0.058 A 
HETATM   10  C15 UNL     1      24.274   7.059  51.306  1.00  0.00     0.070 C 
HETATM   11  N1  UNL     1      24.023   8.704  49.353  1.00  0.00    -0.177 NA
HETATM   12  N2  UNL     1      24.208   8.232  48.058  1.00  0.00    -0.247 N 
BRANCH  12  13
HETATM   13  C16 UNL     1      24.132   8.908  46.795  1.00  0.00     0.108 A 
HETATM   14  C17 UNL     1      24.407   8.741  45.500  1.00  0.00     0.016 A 
HETATM   15  C18 UNL     1      24.909   7.981  44.304  1.00  0.00     0.059 C 
HETATM   16  S1  UNL     1      23.696  10.348  45.827  1.00  0.00    -0.072 SA
ENDBRANCH  12  13
ENDBRANCH   7   8
BRANCH   1  17
HETATM   17  C5  UNL     1      25.387   4.212  49.452  1.00  0.00    -0.025 A 
HETATM   18  C4  UNL     1      24.114   3.781  49.143  1.00  0.00     0.015 A 
HETATM   19  C3  UNL     1      23.532   2.790  49.866  1.00  0.00     0.037 A 
HETATM   20  C2  UNL     1      24.143   2.163  50.924  1.00  0.00     0.068 A 
HETATM   21  C20 UNL     1      25.412   2.575  51.253  1.00  0.00     0.037 A 
HETATM   22  C19 UNL     1      26.040   3.593  50.526  1.00  0.00     0.015 A 
BRANCH  20  23
HETATM   23  O1  UNL     1      23.399   1.183  51.536  1.00  0.00    -0.356 OA
HETATM   24  C1  UNL     1      23.816   0.646  52.764  1.00  0.00     0.210 C 
ENDBRANCH  20  23
ENDBRANCH   1  17
TORSDOF 4
ENDMDL
MODEL 8
REMARK VINA RESULT:      -7.1      4.766      7.313
REMARK  4 active torsions:
REMARK  status: ('A' for Active; 'I' for Inactive)
REMARK    1  A    between atoms: O1_2  and  C2_3 
REMARK    2  A    between atoms: C5_6  and  C6_7 
REMARK    3  A    between atoms: C12_13  and  C13_14 
REMARK    4  A    between atoms: N2_18  and  C16_19 
ROOT
HETATM    1  C6  UNL     1      20.084   0.401  52.269  1.00  0.00    -0.017 A 
HETATM    2  C7  UNL     1      19.529  -0.671  52.957  1.00  0.00     0.019 A 
HETATM    3  C8  UNL     1      18.257  -1.145  52.791  1.00  0.00    -0.061 A 
HETATM    4  C9  UNL     1      17.785  -2.313  53.600  1.00  0.00     0.048 C 
HETATM    5  C10 UNL     1      17.455  -0.512  51.865  1.00  0.00     0.007 A 
HETATM    6  C11 UNL     1      17.937   0.547  51.155  1.00  0.00     0.011 A 
HETATM    7  C12 UNL     1      19.228   0.985  51.363  1.00  0.00    -0.017 A 
ENDROOT
BRANCH   7   8
HETATM    8  C13 UNL     1      19.689   2.157  50.576  1.00  0.00     0.194 A 
HETATM    9  C14 UNL     1      20.258   1.712  49.277  1.00  0.00     0.058 A 
HETATM   10  C15 UNL     1      21.474   0.933  48.934  1.00  0.00     0.070 C 
HETATM   11  N1  UNL     1      19.301   2.259  48.615  1.00  0.00    -0.177 NA
HETATM   12  N2  UNL     1      18.647   2.745  49.742  1.00  0.00    -0.247 N 
BRANCH  12  13
HETATM   13  C16 UNL     1      17.437   3.505  49.868  1.00  0.00     0.108 A 
HETATM   14  C17 UNL     1      16.593   3.985  50.782  1.00  0.00     0.016 A 
HETATM   15  C18 UNL     1      16.091   4.218  52.180  1.00  0.00     0.059 C 
HETATM   16  S1  UNL     1      16.086   4.410  49.121  1.00  0.00    -0.072 SA
ENDBRANCH  12  13
ENDBRANCH   7   8
BRANCH   1  17
HETATM   17  C5  UNL     1      21.461   0.793  52.527  1.00  0.00    -0.025 A 
HETATM   18  C4  UNL     1      22.100   2.015  52.554  1.00  0.00     0.015 A 
HETATM   19  C3  UNL     1      23.425   2.088  52.843  1.00  0.00     0.037 A 
HETATM   20  C2  UNL     1      24.203   0.991  53.122  1.00  0.00     0.068 A 
HETATM   21  C20 UNL     1      23.590  -0.237  53.101  1.00  0.00     0.037 A 
HETATM   22  C19 UNL     1      22.226  -0.348  52.806  1.00  0.00     0.015 A 
BRANCH  20  23
HETATM   23  O1  UNL     1      25.523   1.261  53.391  1.00  0.00    -0.356 OA
HETATM   24  C1  UNL     1      26.524   0.372  52.968  1.00  0.00     0.210 C 
ENDBRANCH  20  23
ENDBRANCH   1  17
TORSDOF 4
ENDMDL
MODEL 9
REMARK VINA RESULT:      -7.0      9.460     11.701
REMARK  4 active torsions:
REMARK  status: ('A' for Active; 'I' for Inactive)
REMARK    1  A    between atoms: O1_2  and  C2_3 
REMARK    2  A    between atoms: C5_6  and  C6_7 
REMARK    3  A    between atoms: C12_13  and  C13_14 
REMARK    4  A    between atoms: N2_18  and  C16_19 
ROOT
HETATM    1  C6  UNL     1      29.997   6.248  47.957  1.00  0.00    -0.017 A 
HETATM    2  C7  UNL     1      28.893   5.508  48.362  1.00  0.00     0.019 A 
HETATM    3  C8  UNL     1      27.611   5.976  48.441  1.00  0.00    -0.061 A 
HETATM    4  C9  UNL     1      26.512   5.066  48.894  1.00  0.00     0.048 C 
HETATM    5  C10 UNL     1      27.389   7.291  48.091  1.00  0.00     0.007 A 
HETATM    6  C11 UNL     1      28.428   8.074  47.685  1.00  0.00     0.011 A 
HETATM    7  C12 UNL     1      29.702   7.552  47.625  1.00  0.00    -0.017 A 
ENDROOT
BRANCH   7   8
HETATM    8  C13 UNL     1      30.796   8.459  47.196  1.00  0.00     0.194 A 
HETATM    9  C14 UNL     1      30.870   8.511  45.713  1.00  0.00     0.058 A 
HETATM   10  C15 UNL     1      31.239   7.495  44.695  1.00  0.00     0.070 C 
HETATM   11  N1  UNL     1      30.498   9.742  45.688  1.00  0.00    -0.177 NA
HETATM   12  N2  UNL     1      30.381   9.852  47.069  1.00  0.00    -0.247 N 
BRANCH  12  13
HETATM   13  C16 UNL     1      29.995  10.962  47.891  1.00  0.00     0.108 A 
HETATM   14  C17 UNL     1      28.918  11.623  48.320  1.00  0.00     0.016 A 
HETATM   15  C18 UNL     1      27.444  11.897  48.424  1.00  0.00     0.059 C 
HETATM   16  S1  UNL     1      30.429  12.326  48.966  1.00  0.00    -0.072 SA
ENDBRANCH  12  13
ENDBRANCH   7   8
BRANCH   1  17
HETATM   17  C5  UNL     1      31.309   5.622  47.898  1.00  0.00    -0.025 A 
HETATM   18  C4  UNL     1      32.533   5.954  48.440  1.00  0.00     0.015 A 
HETATM   19  C3  UNL     1      33.614   5.160  48.227  1.00  0.00     0.037 A 
HETATM   20  C2  UNL     1      33.573   4.006  47.483  1.00  0.00     0.068 A 
HETATM   21  C20 UNL     1      32.365   3.654  46.932  1.00  0.00     0.037 A 
HETATM   22  C19 UNL     1      31.232   4.451  47.133  1.00  0.00     0.015 A 
BRANCH  20  23
HETATM   23  O1  UNL     1      34.767   3.333  47.378  1.00  0.00    -0.356 OA
HETATM   24  C1  UNL     1      35.391   3.199  46.127  1.00  0.00     0.210 C 
ENDBRANCH  20  23
ENDBRANCH   1  17
TORSDOF 4
ENDMDL
