MODEL 1
REMARK VINA RESULT:      -7.3      0.000      0.000
REMARK  6 active torsions:
REMARK  status: ('A' for Active; 'I' for Inactive)
REMARK    1  A    between atoms: O1_2  and  C2_3 
REMARK    2  A    between atoms: C3_4  and  O2_5 
REMARK    3  A    between atoms: O2_5  and  N1_6 
REMARK    4  A    between atoms: C4_7  and  C5_8 
REMARK    5  A    between atoms: C6_9  and  C8_11 
REMARK    6  A    between atoms: C8_11  and  C9_13 
ROOT
HETATM    1  C9  UNL     1      28.276   1.023  53.191  1.00  0.00     0.250 C 
HETATM    2  C10 UNL     1      29.044   1.753  54.194  1.00  0.00     0.085 C 
HETATM    3  N3  UNL     1      29.643   2.317  54.997  1.00  0.00    -0.195 NA
HETATM    4  C11 UNL     1      27.579   1.930  52.302  1.00  0.00     0.085 C 
HETATM    5  N4  UNL     1      27.026   2.660  51.589  1.00  0.00    -0.195 NA
ENDROOT
BRANCH   1   6
HETATM    6  C8  UNL     1      27.361   0.095  53.877  1.00  0.00     0.063 C 
HETATM    7  N2  UNL     1      27.658  -0.312  55.063  1.00  0.00    -0.302 NA
HETATM    8  H10 UNL     1      28.522  -0.008  55.585  1.00  0.00     0.186 HD
BRANCH   6   9
HETATM    9  C6  UNL     1      26.093  -0.485  53.379  1.00  0.00    -0.035 C 
HETATM   10  C5  UNL     1      25.017   0.077  53.846  1.00  0.00     0.023 C 
HETATM   11  C7  UNL     1      26.273  -1.605  52.431  1.00  0.00     0.050 C 
BRANCH  10  12
HETATM   12  C4  UNL     1      23.600  -0.096  53.687  1.00  0.00     0.005 C 
HETATM   13  C3  UNL     1      22.832   0.940  52.957  1.00  0.00     0.160 C 
HETATM   14  C2  UNL     1      21.559   1.294  52.866  1.00  0.00     0.222 C 
HETATM   15  O3  UNL     1      20.557   0.637  53.565  1.00  0.00    -0.298 OA
HETATM   16  C14 UNL     1      20.485  -0.736  53.875  1.00  0.00     0.145 C 
HETATM   17  C13 UNL     1      21.517  -1.554  54.142  1.00  0.00     0.026 C 
HETATM   18  C12 UNL     1      22.909  -1.129  54.151  1.00  0.00     0.016 C 
BRANCH  13  19
HETATM   19  O2  UNL     1      23.657   1.757  52.155  1.00  0.00    -0.261 OA
BRANCH  19  20
HETATM   20  N1  UNL     1      24.044   3.001  52.597  1.00  0.00    -0.209 NA
HETATM   21  H4  UNL     1      23.243   3.688  52.562  1.00  0.00     0.150 HD
HETATM   22  H5  UNL     1      24.769   3.421  51.971  1.00  0.00     0.150 HD
ENDBRANCH  19  20
ENDBRANCH  13  19
BRANCH  14  23
HETATM   23  O1  UNL     1      21.374   2.377  52.005  1.00  0.00    -0.333 OA
HETATM   24  C1  UNL     1      20.329   3.297  52.076  1.00  0.00     0.212 C 
ENDBRANCH  14  23
ENDBRANCH  10  12
ENDBRANCH   6   9
ENDBRANCH   1   6
TORSDOF 6
ENDMDL
MODEL 2
REMARK VINA RESULT:      -7.1      2.059      3.224
REMARK  6 active torsions:
REMARK  status: ('A' for Active; 'I' for Inactive)
REMARK    1  A    between atoms: O1_2  and  C2_3 
REMARK    2  A    between atoms: C3_4  and  O2_5 
REMARK    3  A    between atoms: O2_5  and  N1_6 
REMARK    4  A    between atoms: C4_7  and  C5_8 
REMARK    5  A    between atoms: C6_9  and  C8_11 
REMARK    6  A    between atoms: C8_11  and  C9_13 
ROOT
HETATM    1  C9  UNL     1      28.343  -0.266  53.138  1.00  0.00     0.250 C 
HETATM    2  C10 UNL     1      28.958  -1.571  53.357  1.00  0.00     0.085 C 
HETATM    3  N3  UNL     1      29.427  -2.606  53.527  1.00  0.00    -0.195 NA
HETATM    4  C11 UNL     1      28.727   0.675  54.171  1.00  0.00     0.085 C 
HETATM    5  N4  UNL     1      29.040   1.427  54.998  1.00  0.00    -0.195 NA
ENDROOT
BRANCH   1   6
HETATM    6  C8  UNL     1      26.883  -0.439  53.050  1.00  0.00     0.063 C 
HETATM    7  N2  UNL     1      26.361  -1.550  53.443  1.00  0.00    -0.302 NA
HETATM    8  H10 UNL     1      26.921  -2.349  53.839  1.00  0.00     0.186 HD
BRANCH   6   9
HETATM    9  C6  UNL     1      25.871   0.514  52.539  1.00  0.00    -0.035 C 
HETATM   10  C5  UNL     1      24.679   0.359  53.032  1.00  0.00     0.023 C 
HETATM   11  C7  UNL     1      26.399   1.482  51.554  1.00  0.00     0.050 C 
BRANCH  10  12
HETATM   12  C4  UNL     1      23.399   0.992  52.878  1.00  0.00     0.005 C 
HETATM   13  C3  UNL     1      22.173   0.188  53.100  1.00  0.00     0.160 C 
HETATM   14  C2  UNL     1      20.893   0.296  52.781  1.00  0.00     0.222 C 
HETATM   15  O3  UNL     1      20.399   1.371  52.056  1.00  0.00    -0.298 OA
HETATM   16  C14 UNL     1      20.830   2.711  52.108  1.00  0.00     0.145 C 
HETATM   17  C13 UNL     1      22.083   3.145  52.326  1.00  0.00     0.026 C 
HETATM   18  C12 UNL     1      23.221   2.264  52.546  1.00  0.00     0.016 C 
BRANCH  13  19
HETATM   19  O2  UNL     1      22.428  -0.988  53.837  1.00  0.00    -0.261 OA
BRANCH  19  20
HETATM   20  N1  UNL     1      22.156  -1.038  55.186  1.00  0.00    -0.209 NA
HETATM   21  H4  UNL     1      23.010  -1.320  55.739  1.00  0.00     0.150 HD
HETATM   22  H5  UNL     1      21.451  -1.775  55.407  1.00  0.00     0.150 HD
ENDBRANCH  19  20
ENDBRANCH  13  19
BRANCH  14  23
HETATM   23  O1  UNL     1      20.139  -0.778  53.257  1.00  0.00    -0.333 OA
HETATM   24  C1  UNL     1      18.749  -0.877  53.205  1.00  0.00     0.212 C 
ENDBRANCH  14  23
ENDBRANCH  10  12
ENDBRANCH   6   9
ENDBRANCH   1   6
TORSDOF 6
ENDMDL
MODEL 3
REMARK VINA RESULT:      -6.9      1.973      3.020
REMARK  6 active torsions:
REMARK  status: ('A' for Active; 'I' for Inactive)
REMARK    1  A    between atoms: O1_2  and  C2_3 
REMARK    2  A    between atoms: C3_4  and  O2_5 
REMARK    3  A    between atoms: O2_5  and  N1_6 
REMARK    4  A    between atoms: C4_7  and  C5_8 
REMARK    5  A    between atoms: C6_9  and  C8_11 
REMARK    6  A    between atoms: C8_11  and  C9_13 
ROOT
HETATM    1  C9  UNL     1      28.227   0.524  54.436  1.00  0.00     0.250 C 
HETATM    2  C10 UNL     1      28.308   1.647  53.509  1.00  0.00     0.085 C 
HETATM    3  N3  UNL     1      28.354   2.531  52.777  1.00  0.00    -0.195 NA
HETATM    4  C11 UNL     1      29.213  -0.490  54.120  1.00  0.00     0.085 C 
HETATM    5  N4  UNL     1      30.006  -1.298  53.865  1.00  0.00    -0.195 NA
ENDROOT
BRANCH   1   6
HETATM    6  C8  UNL     1      26.853  -0.005  54.422  1.00  0.00     0.063 C 
HETATM    7  N2  UNL     1      26.337  -0.433  55.523  1.00  0.00    -0.302 NA
HETATM    8  H10 UNL     1      26.842  -0.418  56.448  1.00  0.00     0.186 HD
BRANCH   6   9
HETATM    9  C6  UNL     1      25.929  -0.142  53.272  1.00  0.00    -0.035 C 
HETATM   10  C5  UNL     1      24.846   0.573  53.356  1.00  0.00     0.023 C 
HETATM   11  C7  UNL     1      26.404  -1.070  52.225  1.00  0.00     0.050 C 
BRANCH  10  12
HETATM   12  C4  UNL     1      23.681   0.795  52.546  1.00  0.00     0.005 C 
HETATM   13  C3  UNL     1      22.377   0.266  53.010  1.00  0.00     0.160 C 
HETATM   14  C2  UNL     1      21.205  -0.000  52.455  1.00  0.00     0.222 C 
HETATM   15  O3  UNL     1      20.962   0.209  51.106  1.00  0.00    -0.298 OA
HETATM   16  C14 UNL     1      21.476   1.237  50.290  1.00  0.00     0.145 C 
HETATM   17  C13 UNL     1      22.685   1.814  50.392  1.00  0.00     0.026 C 
HETATM   18  C12 UNL     1      23.678   1.449  51.392  1.00  0.00     0.016 C 
BRANCH  13  19
HETATM   19  O2  UNL     1      22.377  -0.030  54.390  1.00  0.00    -0.261 OA
BRANCH  19  20
HETATM   20  N1  UNL     1      22.526  -1.328  54.824  1.00  0.00    -0.209 NA
HETATM   21  H4  UNL     1      23.252  -1.843  54.256  1.00  0.00     0.150 HD
HETATM   22  H5  UNL     1      21.651  -1.882  54.684  1.00  0.00     0.150 HD
ENDBRANCH  19  20
ENDBRANCH  13  19
BRANCH  14  23
HETATM   23  O1  UNL     1      20.286  -0.501  53.379  1.00  0.00    -0.333 OA
HETATM   24  C1  UNL     1      18.934  -0.734  53.129  1.00  0.00     0.212 C 
ENDBRANCH  14  23
ENDBRANCH  10  12
ENDBRANCH   6   9
ENDBRANCH   1   6
TORSDOF 6
ENDMDL
MODEL 4
REMARK VINA RESULT:      -6.9      1.856      2.529
REMARK  6 active torsions:
REMARK  status: ('A' for Active; 'I' for Inactive)
REMARK    1  A    between atoms: O1_2  and  C2_3 
REMARK    2  A    between atoms: C3_4  and  O2_5 
REMARK    3  A    between atoms: O2_5  and  N1_6 
REMARK    4  A    between atoms: C4_7  and  C5_8 
REMARK    5  A    between atoms: C6_9  and  C8_11 
REMARK    6  A    between atoms: C8_11  and  C9_13 
ROOT
HETATM    1  C9  UNL     1      28.293   0.528  54.418  1.00  0.00     0.250 C 
HETATM    2  C10 UNL     1      28.342   1.636  53.470  1.00  0.00     0.085 C 
HETATM    3  N3  UNL     1      28.362   2.507  52.722  1.00  0.00    -0.195 NA
HETATM    4  C11 UNL     1      29.282  -0.482  54.097  1.00  0.00     0.085 C 
HETATM    5  N4  UNL     1      30.078  -1.286  53.839  1.00  0.00    -0.195 NA
ENDROOT
BRANCH   1   6
HETATM    6  C8  UNL     1      26.925  -0.015  54.443  1.00  0.00     0.063 C 
HETATM    7  N2  UNL     1      26.431  -0.412  55.566  1.00  0.00    -0.302 NA
HETATM    8  H10 UNL     1      26.950  -0.361  56.481  1.00  0.00     0.186 HD
BRANCH   6   9
HETATM    9  C6  UNL     1      25.984  -0.199  53.314  1.00  0.00    -0.035 C 
HETATM   10  C5  UNL     1      24.916   0.539  53.370  1.00  0.00     0.023 C 
HETATM   11  C7  UNL     1      26.429  -1.193  52.315  1.00  0.00     0.050 C 
BRANCH  10  12
HETATM   12  C4  UNL     1      23.745   0.737  52.562  1.00  0.00     0.005 C 
HETATM   13  C3  UNL     1      23.770   1.782  51.511  1.00  0.00     0.160 C 
HETATM   14  C2  UNL     1      22.867   2.449  50.810  1.00  0.00     0.222 C 
HETATM   15  O3  UNL     1      21.504   2.244  50.973  1.00  0.00    -0.298 OA
HETATM   16  C14 UNL     1      20.848   1.033  51.269  1.00  0.00     0.145 C 
HETATM   17  C13 UNL     1      21.318   0.030  52.030  1.00  0.00     0.026 C 
HETATM   18  C12 UNL     1      22.618   0.047  52.684  1.00  0.00     0.016 C 
BRANCH  13  19
HETATM   19  O2  UNL     1      25.083   2.166  51.166  1.00  0.00    -0.261 OA
BRANCH  19  20
HETATM   20  N1  UNL     1      25.629   3.320  51.679  1.00  0.00    -0.209 NA
HETATM   21  H4  UNL     1      25.915   3.985  50.910  1.00  0.00     0.150 HD
HETATM   22  H5  UNL     1      26.516   3.127  52.196  1.00  0.00     0.150 HD
ENDBRANCH  19  20
ENDBRANCH  13  19
BRANCH  14  23
HETATM   23  O1  UNL     1      23.453   3.351  49.920  1.00  0.00    -0.333 OA
HETATM   24  C1  UNL     1      23.074   3.535  48.590  1.00  0.00     0.212 C 
ENDBRANCH  14  23
ENDBRANCH  10  12
ENDBRANCH   6   9
ENDBRANCH   1   6
TORSDOF 6
ENDMDL
MODEL 5
REMARK VINA RESULT:      -6.8      1.885      3.390
REMARK  6 active torsions:
REMARK  status: ('A' for Active; 'I' for Inactive)
REMARK    1  A    between atoms: O1_2  and  C2_3 
REMARK    2  A    between atoms: C3_4  and  O2_5 
REMARK    3  A    between atoms: O2_5  and  N1_6 
REMARK    4  A    between atoms: C4_7  and  C5_8 
REMARK    5  A    between atoms: C6_9  and  C8_11 
REMARK    6  A    between atoms: C8_11  and  C9_13 
ROOT
HETATM    1  C9  UNL     1      28.285   0.882  54.434  1.00  0.00     0.250 C 
HETATM    2  C10 UNL     1      29.313   0.012  53.873  1.00  0.00     0.085 C 
HETATM    3  N3  UNL     1      30.123  -0.663  53.417  1.00  0.00    -0.195 NA
HETATM    4  C11 UNL     1      27.167   0.114  54.943  1.00  0.00     0.085 C 
HETATM    5  N4  UNL     1      26.276  -0.505  55.353  1.00  0.00    -0.195 NA
ENDROOT
BRANCH   1   6
HETATM    6  C8  UNL     1      27.876   1.856  53.408  1.00  0.00     0.063 C 
HETATM    7  N2  UNL     1      28.680   2.817  53.103  1.00  0.00    -0.302 NA
HETATM    8  H10 UNL     1      29.629   2.944  53.541  1.00  0.00     0.186 HD
BRANCH   6   9
HETATM    9  C6  UNL     1      26.609   1.913  52.643  1.00  0.00    -0.035 C 
HETATM   10  C5  UNL     1      25.620   2.479  53.269  1.00  0.00     0.023 C 
HETATM   11  C7  UNL     1      26.692   1.315  51.294  1.00  0.00     0.050 C 
BRANCH  10  12
HETATM   12  C4  UNL     1      24.244   2.777  52.986  1.00  0.00     0.005 C 
HETATM   13  C3  UNL     1      23.253   1.676  53.021  1.00  0.00     0.160 C 
HETATM   14  C2  UNL     1      22.030   1.480  52.552  1.00  0.00     0.222 C 
HETATM   15  O3  UNL     1      21.356   2.444  51.818  1.00  0.00    -0.298 OA
HETATM   16  C14 UNL     1      21.416   3.843  51.979  1.00  0.00     0.145 C 
HETATM   17  C13 UNL     1      22.482   4.562  52.367  1.00  0.00     0.026 C 
HETATM   18  C12 UNL     1      23.779   3.984  52.688  1.00  0.00     0.016 C 
BRANCH  13  19
HETATM   19  O2  UNL     1      23.722   0.553  53.734  1.00  0.00    -0.261 OA
BRANCH  19  20
HETATM   20  N1  UNL     1      24.157  -0.567  53.061  1.00  0.00    -0.209 NA
HETATM   21  H4  UNL     1      23.857  -1.452  53.553  1.00  0.00     0.150 HD
HETATM   22  H5  UNL     1      25.200  -0.623  53.044  1.00  0.00     0.150 HD
ENDBRANCH  19  20
ENDBRANCH  13  19
BRANCH  14  23
HETATM   23  O1  UNL     1      21.535   0.218  52.886  1.00  0.00    -0.333 OA
HETATM   24  C1  UNL     1      20.279  -0.038  53.436  1.00  0.00     0.212 C 
ENDBRANCH  14  23
ENDBRANCH  10  12
ENDBRANCH   6   9
ENDBRANCH   1   6
TORSDOF 6
ENDMDL
MODEL 6
REMARK VINA RESULT:      -6.8      1.785      2.688
REMARK  6 active torsions:
REMARK  status: ('A' for Active; 'I' for Inactive)
REMARK    1  A    between atoms: O1_2  and  C2_3 
REMARK    2  A    between atoms: C3_4  and  O2_5 
REMARK    3  A    between atoms: O2_5  and  N1_6 
REMARK    4  A    between atoms: C4_7  and  C5_8 
REMARK    5  A    between atoms: C6_9  and  C8_11 
REMARK    6  A    between atoms: C8_11  and  C9_13 
ROOT
HETATM    1  C9  UNL     1      27.315   0.301  53.307  1.00  0.00     0.250 C 
HETATM    2  C10 UNL     1      28.261  -0.806  53.392  1.00  0.00     0.085 C 
HETATM    3  N3  UNL     1      28.994  -1.688  53.468  1.00  0.00    -0.195 NA
HETATM    4  C11 UNL     1      27.933   1.551  53.703  1.00  0.00     0.085 C 
HETATM    5  N4  UNL     1      28.433   2.550  54.016  1.00  0.00    -0.195 NA
ENDROOT
BRANCH   1   6
HETATM    6  C8  UNL     1      26.132  -0.022  54.122  1.00  0.00     0.063 C 
HETATM    7  N2  UNL     1      26.301  -0.462  55.322  1.00  0.00    -0.302 NA
HETATM    8  H10 UNL     1      27.247  -0.597  55.765  1.00  0.00     0.186 HD
BRANCH   6   9
HETATM    9  C6  UNL     1      24.702   0.072  53.748  1.00  0.00    -0.035 C 
HETATM   10  C5  UNL     1      24.433   0.967  52.845  1.00  0.00     0.023 C 
HETATM   11  C7  UNL     1      23.827  -0.876  54.470  1.00  0.00     0.050 C 
BRANCH  10  12
HETATM   12  C4  UNL     1      23.260   1.436  52.162  1.00  0.00     0.005 C 
HETATM   13  C3  UNL     1      22.973   2.890  52.153  1.00  0.00     0.160 C 
HETATM   14  C2  UNL     1      21.913   3.650  51.924  1.00  0.00     0.222 C 
HETATM   15  O3  UNL     1      20.675   3.115  51.598  1.00  0.00    -0.298 OA
HETATM   16  C14 UNL     1      20.414   1.963  50.830  1.00  0.00     0.145 C 
HETATM   17  C13 UNL     1      21.162   0.848  50.775  1.00  0.00     0.026 C 
HETATM   18  C12 UNL     1      22.394   0.658  51.527  1.00  0.00     0.016 C 
BRANCH  13  19
HETATM   19  O2  UNL     1      24.110   3.665  52.464  1.00  0.00    -0.261 OA
BRANCH  19  20
HETATM   20  N1  UNL     1      24.886   4.198  51.460  1.00  0.00    -0.209 NA
HETATM   21  H4  UNL     1      25.915   4.101  51.678  1.00  0.00     0.150 HD
HETATM   22  H5  UNL     1      24.739   5.228  51.369  1.00  0.00     0.150 HD
ENDBRANCH  19  20
ENDBRANCH  13  19
BRANCH  14  23
HETATM   23  O1  UNL     1      22.203   5.010  52.052  1.00  0.00    -0.333 OA
HETATM   24  C1  UNL     1      21.660   6.029  51.270  1.00  0.00     0.212 C 
ENDBRANCH  14  23
ENDBRANCH  10  12
ENDBRANCH   6   9
ENDBRANCH   1   6
TORSDOF 6
ENDMDL
MODEL 7
REMARK VINA RESULT:      -6.8      3.675      5.870
REMARK  6 active torsions:
REMARK  status: ('A' for Active; 'I' for Inactive)
REMARK    1  A    between atoms: O1_2  and  C2_3 
REMARK    2  A    between atoms: C3_4  and  O2_5 
REMARK    3  A    between atoms: O2_5  and  N1_6 
REMARK    4  A    between atoms: C4_7  and  C5_8 
REMARK    5  A    between atoms: C6_9  and  C8_11 
REMARK    6  A    between atoms: C8_11  and  C9_13 
ROOT
HETATM    1  C9  UNL     1      25.400   5.257  49.051  1.00  0.00     0.250 C 
HETATM    2  C10 UNL     1      26.806   4.911  48.877  1.00  0.00     0.085 C 
HETATM    3  N3  UNL     1      27.913   4.627  48.756  1.00  0.00    -0.195 NA
HETATM    4  C11 UNL     1      25.192   6.686  48.926  1.00  0.00     0.085 C 
HETATM    5  N4  UNL     1      25.030   7.830  48.821  1.00  0.00    -0.195 NA
ENDROOT
BRANCH   1   6
HETATM    6  C8  UNL     1      24.938   4.735  50.348  1.00  0.00     0.063 C 
HETATM    7  N2  UNL     1      24.712   5.562  51.310  1.00  0.00    -0.302 NA
HETATM    8  H10 UNL     1      24.829   6.605  51.221  1.00  0.00     0.186 HD
BRANCH   6   9
HETATM    9  C6  UNL     1      24.695   3.328  50.741  1.00  0.00    -0.035 C 
HETATM   10  C5  UNL     1      25.381   2.924  51.769  1.00  0.00     0.023 C 
HETATM   11  C7  UNL     1      23.708   2.627  49.894  1.00  0.00     0.050 C 
BRANCH  10  12
HETATM   12  C4  UNL     1      25.509   1.707  52.522  1.00  0.00     0.005 C 
HETATM   13  C3  UNL     1      26.865   1.181  52.805  1.00  0.00     0.160 C 
HETATM   14  C2  UNL     1      27.378   0.016  53.167  1.00  0.00     0.222 C 
HETATM   15  O3  UNL     1      26.589  -1.106  53.380  1.00  0.00    -0.298 OA
HETATM   16  C14 UNL     1      25.286  -1.149  53.914  1.00  0.00     0.145 C 
HETATM   17  C13 UNL     1      24.323  -0.224  53.762  1.00  0.00     0.026 C 
HETATM   18  C12 UNL     1      24.489   1.001  52.994  1.00  0.00     0.016 C 
BRANCH  13  19
HETATM   19  O2  UNL     1      27.866   2.164  52.651  1.00  0.00    -0.261 OA
BRANCH  19  20
HETATM   20  N1  UNL     1      28.382   2.809  53.752  1.00  0.00    -0.209 NA
HETATM   21  H4  UNL     1      27.615   3.149  54.393  1.00  0.00     0.150 HD
HETATM   22  H5  UNL     1      28.894   3.679  53.480  1.00  0.00     0.150 HD
ENDBRANCH  19  20
ENDBRANCH  13  19
BRANCH  14  23
HETATM   23  O1  UNL     1      28.766   0.070  53.301  1.00  0.00    -0.333 OA
HETATM   24  C1  UNL     1      29.579  -0.981  53.722  1.00  0.00     0.212 C 
ENDBRANCH  14  23
ENDBRANCH  10  12
ENDBRANCH   6   9
ENDBRANCH   1   6
TORSDOF 6
ENDMDL
MODEL 8
REMARK VINA RESULT:      -6.8      2.705      4.297
REMARK  6 active torsions:
REMARK  status: ('A' for Active; 'I' for Inactive)
REMARK    1  A    between atoms: O1_2  and  C2_3 
REMARK    2  A    between atoms: C3_4  and  O2_5 
REMARK    3  A    between atoms: O2_5  and  N1_6 
REMARK    4  A    between atoms: C4_7  and  C5_8 
REMARK    5  A    between atoms: C6_9  and  C8_11 
REMARK    6  A    between atoms: C8_11  and  C9_13 
ROOT
HETATM    1  C9  UNL     1      27.078  -0.298  53.274  1.00  0.00     0.250 C 
HETATM    2  C10 UNL     1      27.504  -1.658  52.968  1.00  0.00     0.085 C 
HETATM    3  N3  UNL     1      27.823  -2.736  52.730  1.00  0.00    -0.195 NA
HETATM    4  C11 UNL     1      27.990   0.343  54.201  1.00  0.00     0.085 C 
HETATM    5  N4  UNL     1      28.725   0.853  54.939  1.00  0.00    -0.195 NA
ENDROOT
BRANCH   1   6
HETATM    6  C8  UNL     1      25.696  -0.336  53.783  1.00  0.00     0.063 C 
HETATM    7  N2  UNL     1      25.408  -1.142  54.747  1.00  0.00    -0.302 NA
HETATM    8  H10 UNL     1      26.113  -1.776  55.207  1.00  0.00     0.186 HD
BRANCH   6   9
HETATM    9  C6  UNL     1      24.522   0.441  53.323  1.00  0.00    -0.035 C 
HETATM   10  C5  UNL     1      24.806   1.587  52.780  1.00  0.00     0.023 C 
HETATM   11  C7  UNL     1      23.226  -0.229  53.560  1.00  0.00     0.050 C 
BRANCH  10  12
HETATM   12  C4  UNL     1      24.070   2.672  52.195  1.00  0.00     0.005 C 
HETATM   13  C3  UNL     1      24.741   3.533  51.193  1.00  0.00     0.160 C 
HETATM   14  C2  UNL     1      24.538   4.738  50.683  1.00  0.00     0.222 C 
HETATM   15  O3  UNL     1      23.471   5.535  51.072  1.00  0.00    -0.298 OA
HETATM   16  C14 UNL     1      22.175   5.118  51.434  1.00  0.00     0.145 C 
HETATM   17  C13 UNL     1      21.845   3.979  52.066  1.00  0.00     0.026 C 
HETATM   18  C12 UNL     1      22.810   2.973  52.486  1.00  0.00     0.016 C 
BRANCH  13  19
HETATM   19  O2  UNL     1      25.886   2.922  50.640  1.00  0.00    -0.261 OA
BRANCH  19  20
HETATM   20  N1  UNL     1      27.142   3.252  51.096  1.00  0.00    -0.209 NA
HETATM   21  H4  UNL     1      27.120   4.131  51.682  1.00  0.00     0.150 HD
HETATM   22  H5  UNL     1      27.787   3.486  50.308  1.00  0.00     0.150 HD
ENDBRANCH  19  20
ENDBRANCH  13  19
BRANCH  14  23
HETATM   23  O1  UNL     1      25.506   5.080  49.737  1.00  0.00    -0.333 OA
HETATM   24  C1  UNL     1      25.929   6.376  49.447  1.00  0.00     0.212 C 
ENDBRANCH  14  23
ENDBRANCH  10  12
ENDBRANCH   6   9
ENDBRANCH   1   6
TORSDOF 6
ENDMDL
MODEL 9
REMARK VINA RESULT:      -6.6      3.453      5.716
REMARK  6 active torsions:
REMARK  status: ('A' for Active; 'I' for Inactive)
REMARK    1  A    between atoms: O1_2  and  C2_3 
REMARK    2  A    between atoms: C3_4  and  O2_5 
REMARK    3  A    between atoms: O2_5  and  N1_6 
REMARK    4  A    between atoms: C4_7  and  C5_8 
REMARK    5  A    between atoms: C6_9  and  C8_11 
REMARK    6  A    between atoms: C8_11  and  C9_13 
ROOT
HETATM    1  C9  UNL     1      25.212   5.173  49.702  1.00  0.00     0.250 C 
HETATM    2  C10 UNL     1      24.531   5.968  48.686  1.00  0.00     0.085 C 
HETATM    3  N3  UNL     1      23.980   6.585  47.889  1.00  0.00    -0.195 NA
HETATM    4  C11 UNL     1      26.500   4.707  49.228  1.00  0.00     0.085 C 
HETATM    5  N4  UNL     1      27.532   4.340  48.846  1.00  0.00    -0.195 NA
ENDROOT
BRANCH   1   6
HETATM    6  C8  UNL     1      24.330   4.066  50.109  1.00  0.00     0.063 C 
HETATM    7  N2  UNL     1      23.603   3.487  49.216  1.00  0.00    -0.302 NA
HETATM    8  H10 UNL     1      23.609   3.753  48.197  1.00  0.00     0.186 HD
BRANCH   6   9
HETATM    9  C6  UNL     1      24.129   3.497  51.461  1.00  0.00    -0.035 C 
HETATM   10  C5  UNL     1      24.631   2.310  51.632  1.00  0.00     0.023 C 
HETATM   11  C7  UNL     1      23.392   4.384  52.385  1.00  0.00     0.050 C 
BRANCH  10  12
HETATM   12  C4  UNL     1      24.710   1.358  52.705  1.00  0.00     0.005 C 
HETATM   13  C3  UNL     1      25.951   1.294  53.512  1.00  0.00     0.160 C 
HETATM   14  C2  UNL     1      26.513   0.415  54.327  1.00  0.00     0.222 C 
HETATM   15  O3  UNL     1      25.926  -0.810  54.611  1.00  0.00    -0.298 OA
HETATM   16  C14 UNL     1      24.552  -1.097  54.728  1.00  0.00     0.145 C 
HETATM   17  C13 UNL     1      23.550  -0.523  54.041  1.00  0.00     0.026 C 
HETATM   18  C12 UNL     1      23.742   0.514  53.038  1.00  0.00     0.016 C 
BRANCH  13  19
HETATM   19  O2  UNL     1      26.737   2.459  53.384  1.00  0.00    -0.261 OA
BRANCH  19  20
HETATM   20  N1  UNL     1      27.654   2.573  52.364  1.00  0.00    -0.209 NA
HETATM   21  H4  UNL     1      28.257   3.432  52.483  1.00  0.00     0.150 HD
HETATM   22  H5  UNL     1      27.184   2.714  51.441  1.00  0.00     0.150 HD
ENDBRANCH  19  20
ENDBRANCH  13  19
BRANCH  14  23
HETATM   23  O1  UNL     1      27.727   0.873  54.841  1.00  0.00    -0.333 OA
HETATM   24  C1  UNL     1      28.956   0.228  54.709  1.00  0.00     0.212 C 
ENDBRANCH  14  23
ENDBRANCH  10  12
ENDBRANCH   6   9
ENDBRANCH   1   6
TORSDOF 6
ENDMDL
