MODEL 1
REMARK VINA RESULT:      -7.2      0.000      0.000
REMARK  7 active torsions:
REMARK  status: ('A' for Active; 'I' for Inactive)
REMARK    1  A    between atoms: C2_2  and  C3_3 
REMARK    2  A    between atoms: C3_3  and  C4_4 
REMARK    3  A    between atoms: C5_5  and  C6_6 
REMARK    4  A    between atoms: C5_5  and  O3_23 
REMARK    5  A    between atoms: C9_9  and  N1_10 
REMARK    6  A    between atoms: N1_10  and  C10_11 
REMARK    7  A    between atoms: C10_11  and  O1_12 
ROOT
HETATM    1  C6  UNL     1      21.524   2.465  50.598  1.00  0.00     0.064 C 
HETATM    2  C7  UNL     1      22.805   2.697  50.774  1.00  0.00     0.045 A 
HETATM    3  C8  UNL     1      23.523   2.551  52.044  1.00  0.00     0.137 A 
HETATM    4  C9  UNL     1      24.960   2.871  51.815  1.00  0.00     0.109 A 
HETATM    5  N2  UNL     1      25.572   3.235  50.745  1.00  0.00    -0.229 NA
HETATM    6  C17 UNL     1      24.760   3.352  49.584  1.00  0.00     0.235 A 
HETATM    7  N3  UNL     1      23.503   3.108  49.607  1.00  0.00    -0.246 NA
ENDROOT
BRANCH   4   8
HETATM    8  N1  UNL     1      25.817   2.763  52.966  1.00  0.00    -0.341 N 
HETATM    9  H12 UNL     1      25.634   3.425  53.781  1.00  0.00     0.164 HD
BRANCH   8  10
HETATM   10  C10 UNL     1      26.867   1.808  53.014  1.00  0.00     0.174 C 
HETATM   11  C11 UNL     1      26.529   0.441  52.648  1.00  0.00     0.042 C 
HETATM   12  C12 UNL     1      27.337  -0.600  52.806  1.00  0.00    -0.059 C 
HETATM   13  C13 UNL     1      26.646  -1.843  52.318  1.00  0.00     0.048 C 
HETATM   14  C14 UNL     1      28.696  -0.709  53.344  1.00  0.00     0.030 C 
HETATM   15  C15 UNL     1      29.331   0.203  54.102  1.00  0.00     0.135 C 
HETATM   16  O2  UNL     1      28.769   1.432  54.504  1.00  0.00    -0.358 OA
HETATM   17  C16 UNL     1      27.379   1.791  54.453  1.00  0.00     0.239 C 
BRANCH  10  18
HETATM   18  O1  UNL     1      27.927   2.263  52.232  1.00  0.00    -0.365 OA
HETATM   19  H13 UNL     1      28.762   2.372  52.752  1.00  0.00     0.213 HD
ENDBRANCH  10  18
ENDBRANCH   8  10
ENDBRANCH   4   8
BRANCH   1  20
HETATM   20  C5  UNL     1      20.612   2.014  51.677  1.00  0.00     0.066 C 
HETATM   21  C4  UNL     1      20.713   0.752  52.072  1.00  0.00     0.010 C 
BRANCH  21  22
HETATM   22  C3  UNL     1      20.138  -0.202  53.016  1.00  0.00     0.029 C 
BRANCH  22  23
HETATM   23  C2  UNL     1      21.004  -0.428  54.224  1.00  0.00    -0.001 C 
HETATM   24  C1  UNL     1      22.450  -0.619  53.894  1.00  0.00     0.005 C 
ENDBRANCH  22  23
ENDBRANCH  21  22
BRANCH  20  25
HETATM   25  O3  UNL     1      19.666   2.750  52.325  1.00  0.00    -0.356 OA
HETATM   26  C18 UNL     1      18.703   3.533  51.659  1.00  0.00     0.210 C 
ENDBRANCH  20  25
ENDBRANCH   1  20
TORSDOF 7
ENDMDL
MODEL 2
REMARK VINA RESULT:      -7.0      2.478      6.406
REMARK  7 active torsions:
REMARK  status: ('A' for Active; 'I' for Inactive)
REMARK    1  A    between atoms: C2_2  and  C3_3 
REMARK    2  A    between atoms: C3_3  and  C4_4 
REMARK    3  A    between atoms: C5_5  and  C6_6 
REMARK    4  A    between atoms: C5_5  and  O3_23 
REMARK    5  A    between atoms: C9_9  and  N1_10 
REMARK    6  A    between atoms: N1_10  and  C10_11 
REMARK    7  A    between atoms: C10_11  and  O1_12 
ROOT
HETATM    1  C6  UNL     1      24.777  -0.243  53.946  1.00  0.00     0.064 C 
HETATM    2  C7  UNL     1      23.928   0.396  53.173  1.00  0.00     0.045 A 
HETATM    3  C8  UNL     1      24.269   1.059  51.911  1.00  0.00     0.137 A 
HETATM    4  C9  UNL     1      23.024   1.630  51.325  1.00  0.00     0.109 A 
HETATM    5  N2  UNL     1      21.815   1.619  51.763  1.00  0.00    -0.229 NA
HETATM    6  C17 UNL     1      21.620   0.953  53.005  1.00  0.00     0.235 A 
HETATM    7  N3  UNL     1      22.586   0.403  53.639  1.00  0.00    -0.246 NA
ENDROOT
BRANCH   4   8
HETATM    8  N1  UNL     1      23.178   2.310  50.066  1.00  0.00    -0.341 N 
HETATM    9  H12 UNL     1      22.852   1.803  49.188  1.00  0.00     0.164 HD
BRANCH   8  10
HETATM   10  C10 UNL     1      23.745   3.611  49.997  1.00  0.00     0.174 C 
HETATM   11  C11 UNL     1      25.109   3.707  49.500  1.00  0.00     0.042 C 
HETATM   12  C12 UNL     1      25.845   4.811  49.536  1.00  0.00    -0.059 C 
HETATM   13  C13 UNL     1      27.193   4.528  48.935  1.00  0.00     0.048 C 
HETATM   14  C14 UNL     1      25.561   6.159  50.038  1.00  0.00     0.030 C 
HETATM   15  C15 UNL     1      24.567   6.506  50.875  1.00  0.00     0.135 C 
HETATM   16  O2  UNL     1      23.627   5.603  51.410  1.00  0.00    -0.358 OA
HETATM   17  C16 UNL     1      23.730   4.170  51.419  1.00  0.00     0.239 C 
BRANCH  10  18
HETATM   18  O1  UNL     1      22.904   4.432  49.250  1.00  0.00    -0.365 OA
HETATM   19  H13 UNL     1      22.027   4.572  49.685  1.00  0.00     0.213 HD
ENDBRANCH  10  18
ENDBRANCH   8  10
ENDBRANCH   4   8
BRANCH   1  20
HETATM   20  C5  UNL     1      26.222  -0.384  53.642  1.00  0.00     0.066 C 
HETATM   21  C4  UNL     1      27.082   0.093  54.532  1.00  0.00     0.010 C 
BRANCH  21  22
HETATM   22  C3  UNL     1      28.514   0.239  54.777  1.00  0.00     0.029 C 
BRANCH  22  23
HETATM   23  C2  UNL     1      29.205   1.075  53.737  1.00  0.00    -0.001 C 
HETATM   24  C1  UNL     1      28.685   2.474  53.654  1.00  0.00     0.005 C 
ENDBRANCH  22  23
ENDBRANCH  21  22
BRANCH  20  25
HETATM   25  O3  UNL     1      26.786  -0.954  52.540  1.00  0.00    -0.356 OA
HETATM   26  C18 UNL     1      27.084  -2.327  52.444  1.00  0.00     0.210 C 
ENDBRANCH  20  25
ENDBRANCH   1  20
TORSDOF 7
ENDMDL
MODEL 3
REMARK VINA RESULT:      -7.0      2.884      6.533
REMARK  7 active torsions:
REMARK  status: ('A' for Active; 'I' for Inactive)
REMARK    1  A    between atoms: C2_2  and  C3_3 
REMARK    2  A    between atoms: C3_3  and  C4_4 
REMARK    3  A    between atoms: C5_5  and  C6_6 
REMARK    4  A    between atoms: C5_5  and  O3_23 
REMARK    5  A    between atoms: C9_9  and  N1_10 
REMARK    6  A    between atoms: N1_10  and  C10_11 
REMARK    7  A    between atoms: C10_11  and  O1_12 
ROOT
HETATM    1  C6  UNL     1      24.342  -0.028  53.061  1.00  0.00     0.064 C 
HETATM    2  C7  UNL     1      23.813   1.151  52.824  1.00  0.00     0.045 A 
HETATM    3  C8  UNL     1      24.570   2.394  52.646  1.00  0.00     0.137 A 
HETATM    4  C9  UNL     1      23.609   3.496  52.360  1.00  0.00     0.109 A 
HETATM    5  N2  UNL     1      22.326   3.482  52.273  1.00  0.00    -0.229 NA
HETATM    6  C17 UNL     1      21.713   2.215  52.478  1.00  0.00     0.235 A 
HETATM    7  N3  UNL     1      22.396   1.163  52.730  1.00  0.00    -0.246 NA
ENDROOT
BRANCH   4   8
HETATM    8  N1  UNL     1      24.191   4.795  52.143  1.00  0.00    -0.341 N 
HETATM    9  H12 UNL     1      24.480   5.354  53.002  1.00  0.00     0.164 HD
BRANCH   8  10
HETATM   10  C10 UNL     1      24.371   5.311  50.832  1.00  0.00     0.174 C 
HETATM   11  C11 UNL     1      25.628   4.995  50.170  1.00  0.00     0.042 C 
HETATM   12  C12 UNL     1      26.030   5.537  49.027  1.00  0.00    -0.059 C 
HETATM   13  C13 UNL     1      27.372   4.970  48.655  1.00  0.00     0.048 C 
HETATM   14  C14 UNL     1      25.410   6.529  48.144  1.00  0.00     0.030 C 
HETATM   15  C15 UNL     1      24.403   7.362  48.462  1.00  0.00     0.135 C 
HETATM   16  O2  UNL     1      23.777   7.408  49.724  1.00  0.00    -0.358 OA
HETATM   17  C16 UNL     1      24.273   6.831  50.943  1.00  0.00     0.239 C 
BRANCH  10  18
HETATM   18  O1  UNL     1      23.299   4.911  50.038  1.00  0.00    -0.365 OA
HETATM   19  H13 UNL     1      22.945   5.648  49.481  1.00  0.00     0.213 HD
ENDBRANCH  10  18
ENDBRANCH   8  10
ENDBRANCH   4   8
BRANCH   1  20
HETATM   20  C5  UNL     1      25.800  -0.269  53.182  1.00  0.00     0.066 C 
HETATM   21  C4  UNL     1      26.392   0.127  54.302  1.00  0.00     0.010 C 
BRANCH  21  22
HETATM   22  C3  UNL     1      27.697   0.162  54.956  1.00  0.00     0.029 C 
BRANCH  22  23
HETATM   23  C2  UNL     1      28.762   0.797  54.106  1.00  0.00    -0.001 C 
HETATM   24  C1  UNL     1      29.803  -0.167  53.634  1.00  0.00     0.005 C 
ENDBRANCH  22  23
ENDBRANCH  21  22
BRANCH  20  25
HETATM   25  O3  UNL     1      26.623  -0.856  52.268  1.00  0.00    -0.356 OA
HETATM   26  C18 UNL     1      26.937  -2.228  52.277  1.00  0.00     0.210 C 
ENDBRANCH  20  25
ENDBRANCH   1  20
TORSDOF 7
ENDMDL
MODEL 4
REMARK VINA RESULT:      -6.8      2.520      7.691
REMARK  7 active torsions:
REMARK  status: ('A' for Active; 'I' for Inactive)
REMARK    1  A    between atoms: C2_2  and  C3_3 
REMARK    2  A    between atoms: C3_3  and  C4_4 
REMARK    3  A    between atoms: C5_5  and  C6_6 
REMARK    4  A    between atoms: C5_5  and  O3_23 
REMARK    5  A    between atoms: C9_9  and  N1_10 
REMARK    6  A    between atoms: N1_10  and  C10_11 
REMARK    7  A    between atoms: C10_11  and  O1_12 
ROOT
HETATM    1  C6  UNL     1      25.321  -0.558  55.295  1.00  0.00     0.064 C 
HETATM    2  C7  UNL     1      24.142  -0.711  54.733  1.00  0.00     0.045 A 
HETATM    3  C8  UNL     1      23.726  -0.102  53.466  1.00  0.00     0.137 A 
HETATM    4  C9  UNL     1      22.339  -0.551  53.159  1.00  0.00     0.109 A 
HETATM    5  N2  UNL     1      21.547  -1.320  53.817  1.00  0.00    -0.229 NA
HETATM    6  C17 UNL     1      22.067  -1.836  55.036  1.00  0.00     0.235 A 
HETATM    7  N3  UNL     1      23.247  -1.552  55.445  1.00  0.00    -0.246 NA
ENDROOT
BRANCH   4   8
HETATM    8  N1  UNL     1      21.777  -0.052  51.931  1.00  0.00    -0.341 N 
HETATM    9  H12 UNL     1      22.256  -0.329  51.021  1.00  0.00     0.164 HD
BRANCH   8  10
HETATM   10  C10 UNL     1      20.625   0.779  51.934  1.00  0.00     0.174 C 
HETATM   11  C11 UNL     1      19.430   0.248  51.295  1.00  0.00     0.042 C 
HETATM   12  C12 UNL     1      18.332   0.952  51.054  1.00  0.00    -0.059 C 
HETATM   13  C13 UNL     1      17.314   0.071  50.385  1.00  0.00     0.048 C 
HETATM   14  C14 UNL     1      17.990   2.352  51.323  1.00  0.00     0.030 C 
HETATM   15  C15 UNL     1      18.853   3.345  51.607  1.00  0.00     0.135 C 
HETATM   16  O2  UNL     1      20.251   3.183  51.690  1.00  0.00    -0.358 OA
HETATM   17  C16 UNL     1      21.010   2.064  51.204  1.00  0.00     0.239 C 
BRANCH  10  18
HETATM   18  O1  UNL     1      20.339   1.150  53.246  1.00  0.00    -0.365 OA
HETATM   19  H13 UNL     1      19.377   1.330  53.388  1.00  0.00     0.213 HD
ENDBRANCH  10  18
ENDBRANCH   8  10
ENDBRANCH   4   8
BRANCH   1  20
HETATM   20  C5  UNL     1      26.409   0.264  54.714  1.00  0.00     0.066 C 
HETATM   21  C4  UNL     1      27.448  -0.378  54.196  1.00  0.00     0.010 C 
BRANCH  21  22
HETATM   22  C3  UNL     1      28.726  -0.139  53.532  1.00  0.00     0.029 C 
BRANCH  22  23
HETATM   23  C2  UNL     1      29.536  -1.393  53.350  1.00  0.00    -0.001 C 
HETATM   24  C1  UNL     1      28.704  -2.616  53.136  1.00  0.00     0.005 C 
ENDBRANCH  22  23
ENDBRANCH  21  22
BRANCH  20  25
HETATM   25  O3  UNL     1      26.477   1.624  54.648  1.00  0.00    -0.356 OA
HETATM   26  C18 UNL     1      26.043   2.368  53.534  1.00  0.00     0.210 C 
ENDBRANCH  20  25
ENDBRANCH   1  20
TORSDOF 7
ENDMDL
MODEL 5
REMARK VINA RESULT:      -6.7      2.842      6.840
REMARK  7 active torsions:
REMARK  status: ('A' for Active; 'I' for Inactive)
REMARK    1  A    between atoms: C2_2  and  C3_3 
REMARK    2  A    between atoms: C3_3  and  C4_4 
REMARK    3  A    between atoms: C5_5  and  C6_6 
REMARK    4  A    between atoms: C5_5  and  O3_23 
REMARK    5  A    between atoms: C9_9  and  N1_10 
REMARK    6  A    between atoms: N1_10  and  C10_11 
REMARK    7  A    between atoms: C10_11  and  O1_12 
ROOT
HETATM    1  C6  UNL     1      24.701  -0.182  53.755  1.00  0.00     0.064 C 
HETATM    2  C7  UNL     1      23.971   0.654  53.052  1.00  0.00     0.045 A 
HETATM    3  C8  UNL     1      24.483   1.552  52.012  1.00  0.00     0.137 A 
HETATM    4  C9  UNL     1      23.337   2.305  51.431  1.00  0.00     0.109 A 
HETATM    5  N2  UNL     1      22.084   2.269  51.718  1.00  0.00    -0.229 NA
HETATM    6  C17 UNL     1      21.719   1.364  52.754  1.00  0.00     0.235 A 
HETATM    7  N3  UNL     1      22.584   0.637  53.355  1.00  0.00    -0.246 NA
ENDROOT
BRANCH   4   8
HETATM    8  N1  UNL     1      23.664   3.230  50.377  1.00  0.00    -0.341 N 
HETATM    9  H12 UNL     1      23.753   2.840  49.390  1.00  0.00     0.164 HD
BRANCH   8  10
HETATM   10  C10 UNL     1      23.860   4.611  50.645  1.00  0.00     0.174 C 
HETATM   11  C11 UNL     1      22.697   5.476  50.520  1.00  0.00     0.042 C 
HETATM   12  C12 UNL     1      22.741   6.802  50.561  1.00  0.00    -0.059 C 
HETATM   13  C13 UNL     1      21.350   7.349  50.398  1.00  0.00     0.048 C 
HETATM   14  C14 UNL     1      23.856   7.739  50.727  1.00  0.00     0.030 C 
HETATM   15  C15 UNL     1      25.162   7.462  50.565  1.00  0.00     0.135 C 
HETATM   16  O2  UNL     1      25.667   6.197  50.202  1.00  0.00    -0.358 OA
HETATM   17  C16 UNL     1      24.914   5.103  49.655  1.00  0.00     0.239 C 
BRANCH  10  18
HETATM   18  O1  UNL     1      24.425   4.749  51.911  1.00  0.00    -0.365 OA
HETATM   19  H13 UNL     1      23.813   5.187  52.553  1.00  0.00     0.213 HD
ENDBRANCH  10  18
ENDBRANCH   8  10
ENDBRANCH   4   8
BRANCH   1  20
HETATM   20  C5  UNL     1      26.166  -0.337  53.590  1.00  0.00     0.066 C 
HETATM   21  C4  UNL     1      26.943   0.153  54.548  1.00  0.00     0.010 C 
BRANCH  21  22
HETATM   22  C3  UNL     1      28.346   0.296  54.923  1.00  0.00     0.029 C 
BRANCH  22  23
HETATM   23  C2  UNL     1      29.241   0.588  53.750  1.00  0.00    -0.001 C 
HETATM   24  C1  UNL     1      30.148  -0.545  53.395  1.00  0.00     0.005 C 
ENDBRANCH  22  23
ENDBRANCH  21  22
BRANCH  20  25
HETATM   25  O3  UNL     1      26.827  -0.931  52.557  1.00  0.00    -0.356 OA
HETATM   26  C18 UNL     1      26.913  -2.327  52.392  1.00  0.00     0.210 C 
ENDBRANCH  20  25
ENDBRANCH   1  20
TORSDOF 7
ENDMDL
MODEL 6
REMARK VINA RESULT:      -6.7      2.419      7.093
REMARK  7 active torsions:
REMARK  status: ('A' for Active; 'I' for Inactive)
REMARK    1  A    between atoms: C2_2  and  C3_3 
REMARK    2  A    between atoms: C3_3  and  C4_4 
REMARK    3  A    between atoms: C5_5  and  C6_6 
REMARK    4  A    between atoms: C5_5  and  O3_23 
REMARK    5  A    between atoms: C9_9  and  N1_10 
REMARK    6  A    between atoms: N1_10  and  C10_11 
REMARK    7  A    between atoms: C10_11  and  O1_12 
ROOT
HETATM    1  C6  UNL     1      25.280  -0.858  54.279  1.00  0.00     0.064 C 
HETATM    2  C7  UNL     1      24.036  -0.467  54.111  1.00  0.00     0.045 A 
HETATM    3  C8  UNL     1      23.612   0.660  53.276  1.00  0.00     0.137 A 
HETATM    4  C9  UNL     1      22.125   0.749  53.322  1.00  0.00     0.109 A 
HETATM    5  N2  UNL     1      21.266   0.032  53.955  1.00  0.00    -0.229 NA
HETATM    6  C17 UNL     1      21.809  -1.023  54.740  1.00  0.00     0.235 A 
HETATM    7  N3  UNL     1      23.069  -1.240  54.806  1.00  0.00    -0.246 NA
ENDROOT
BRANCH   4   8
HETATM    8  N1  UNL     1      21.536   1.803  52.538  1.00  0.00    -0.341 N 
HETATM    9  H12 UNL     1      21.002   2.564  53.057  1.00  0.00     0.164 HD
BRANCH   8  10
HETATM   10  C10 UNL     1      21.662   1.826  51.123  1.00  0.00     0.174 C 
HETATM   11  C11 UNL     1      22.846   2.475  50.580  1.00  0.00     0.042 C 
HETATM   12  C12 UNL     1      23.032   2.739  49.293  1.00  0.00    -0.059 C 
HETATM   13  C13 UNL     1      24.364   3.413  49.113  1.00  0.00     0.048 C 
HETATM   14  C14 UNL     1      22.198   2.492  48.113  1.00  0.00     0.030 C 
HETATM   15  C15 UNL     1      20.883   2.209  48.111  1.00  0.00     0.135 C 
HETATM   16  O2  UNL     1      20.090   2.105  49.271  1.00  0.00    -0.358 OA
HETATM   17  C16 UNL     1      20.439   2.566  50.586  1.00  0.00     0.239 C 
BRANCH  10  18
HETATM   18  O1  UNL     1      21.568   0.522  50.640  1.00  0.00    -0.365 OA
HETATM   19  H13 UNL     1      21.496  -0.146  51.366  1.00  0.00     0.213 HD
ENDBRANCH  10  18
ENDBRANCH   8  10
ENDBRANCH   4   8
BRANCH   1  20
HETATM   20  C5  UNL     1      26.443  -0.203  53.635  1.00  0.00     0.066 C 
HETATM   21  C4  UNL     1      27.420   0.221  54.426  1.00  0.00     0.010 C 
BRANCH  21  22
HETATM   22  C3  UNL     1      28.718   0.887  54.387  1.00  0.00     0.029 C 
BRANCH  22  23
HETATM   23  C2  UNL     1      29.714   0.181  53.508  1.00  0.00    -0.001 C 
HETATM   24  C1  UNL     1      29.851  -1.276  53.812  1.00  0.00     0.005 C 
ENDBRANCH  22  23
ENDBRANCH  21  22
BRANCH  20  25
HETATM   25  O3  UNL     1      26.637   0.023  52.305  1.00  0.00    -0.356 OA
HETATM   26  C18 UNL     1      26.578   1.302  51.719  1.00  0.00     0.210 C 
ENDBRANCH  20  25
ENDBRANCH   1  20
TORSDOF 7
ENDMDL
MODEL 7
REMARK VINA RESULT:      -6.6      1.339      6.524
REMARK  7 active torsions:
REMARK  status: ('A' for Active; 'I' for Inactive)
REMARK    1  A    between atoms: C2_2  and  C3_3 
REMARK    2  A    between atoms: C3_3  and  C4_4 
REMARK    3  A    between atoms: C5_5  and  C6_6 
REMARK    4  A    between atoms: C5_5  and  O3_23 
REMARK    5  A    between atoms: C9_9  and  N1_10 
REMARK    6  A    between atoms: N1_10  and  C10_11 
REMARK    7  A    between atoms: C10_11  and  O1_12 
ROOT
HETATM    1  C6  UNL     1      26.606   2.116  51.104  1.00  0.00     0.064 C 
HETATM    2  C7  UNL     1      25.467   2.745  50.921  1.00  0.00     0.045 A 
HETATM    3  C8  UNL     1      24.338   2.735  51.857  1.00  0.00     0.137 A 
HETATM    4  C9  UNL     1      23.257   3.597  51.303  1.00  0.00     0.109 A 
HETATM    5  N2  UNL     1      23.204   4.266  50.207  1.00  0.00    -0.229 NA
HETATM    6  C17 UNL     1      24.359   4.182  49.381  1.00  0.00     0.235 A 
HETATM    7  N3  UNL     1      25.381   3.487  49.713  1.00  0.00    -0.246 NA
ENDROOT
BRANCH   4   8
HETATM    8  N1  UNL     1      22.070   3.711  52.110  1.00  0.00    -0.341 N 
HETATM    9  H12 UNL     1      21.956   4.593  52.697  1.00  0.00     0.164 HD
BRANCH   8  10
HETATM   10  C10 UNL     1      21.089   2.685  52.123  1.00  0.00     0.174 C 
HETATM   11  C11 UNL     1      21.409   1.478  52.870  1.00  0.00     0.042 C 
HETATM   12  C12 UNL     1      20.689   0.364  52.840  1.00  0.00    -0.059 C 
HETATM   13  C13 UNL     1      21.327  -0.663  53.735  1.00  0.00     0.048 C 
HETATM   14  C14 UNL     1      19.461   0.012  52.121  1.00  0.00     0.030 C 
HETATM   15  C15 UNL     1      18.944   0.659  51.061  1.00  0.00     0.135 C 
HETATM   16  O2  UNL     1      19.519   1.801  50.468  1.00  0.00    -0.358 OA
HETATM   17  C16 UNL     1      20.858   2.282  50.667  1.00  0.00     0.239 C 
BRANCH  10  18
HETATM   18  O1  UNL     1      19.882   3.219  52.571  1.00  0.00    -0.365 OA
HETATM   19  H13 UNL     1      19.934   4.195  52.724  1.00  0.00     0.213 HD
ENDBRANCH  10  18
ENDBRANCH   8  10
ENDBRANCH   4   8
BRANCH   1  20
HETATM   20  C5  UNL     1      26.912   1.297  52.301  1.00  0.00     0.066 C 
HETATM   21  C4  UNL     1      26.672  -0.006  52.227  1.00  0.00     0.010 C 
BRANCH  21  22
HETATM   22  C3  UNL     1      26.760  -1.233  53.012  1.00  0.00     0.029 C 
BRANCH  22  23
HETATM   23  C2  UNL     1      28.043  -1.984  52.786  1.00  0.00    -0.001 C 
HETATM   24  C1  UNL     1      29.237  -1.323  53.396  1.00  0.00     0.005 C 
ENDBRANCH  22  23
ENDBRANCH  21  22
BRANCH  20  25
HETATM   25  O3  UNL     1      27.419   1.725  53.491  1.00  0.00    -0.356 OA
HETATM   26  C18 UNL     1      28.612   2.464  53.605  1.00  0.00     0.210 C 
ENDBRANCH  20  25
ENDBRANCH   1  20
TORSDOF 7
ENDMDL
MODEL 8
REMARK VINA RESULT:      -6.5      3.375      6.169
REMARK  7 active torsions:
REMARK  status: ('A' for Active; 'I' for Inactive)
REMARK    1  A    between atoms: C2_2  and  C3_3 
REMARK    2  A    between atoms: C3_3  and  C4_4 
REMARK    3  A    between atoms: C5_5  and  C6_6 
REMARK    4  A    between atoms: C5_5  and  O3_23 
REMARK    5  A    between atoms: C9_9  and  N1_10 
REMARK    6  A    between atoms: N1_10  and  C10_11 
REMARK    7  A    between atoms: C10_11  and  O1_12 
ROOT
HETATM    1  C6  UNL     1      25.086   6.199  48.419  1.00  0.00     0.064 C 
HETATM    2  C7  UNL     1      24.526   5.334  49.235  1.00  0.00     0.045 A 
HETATM    3  C8  UNL     1      25.065   4.933  50.538  1.00  0.00     0.137 A 
HETATM    4  C9  UNL     1      24.118   3.968  51.165  1.00  0.00     0.109 A 
HETATM    5  N2  UNL     1      23.008   3.489  50.730  1.00  0.00    -0.229 NA
HETATM    6  C17 UNL     1      22.602   3.949  49.447  1.00  0.00     0.235 A 
HETATM    7  N3  UNL     1      23.300   4.785  48.774  1.00  0.00    -0.246 NA
ENDROOT
BRANCH   4   8
HETATM    8  N1  UNL     1      24.491   3.480  52.467  1.00  0.00    -0.341 N 
HETATM    9  H12 UNL     1      24.450   4.166  53.281  1.00  0.00     0.164 HD
BRANCH   8  10
HETATM   10  C10 UNL     1      24.899   2.133  52.658  1.00  0.00     0.174 C 
HETATM   11  C11 UNL     1      23.874   1.189  53.076  1.00  0.00     0.042 C 
HETATM   12  C12 UNL     1      24.115  -0.056  53.467  1.00  0.00    -0.059 C 
HETATM   13  C13 UNL     1      22.816  -0.725  53.821  1.00  0.00     0.048 C 
HETATM   14  C14 UNL     1      25.361  -0.816  53.596  1.00  0.00     0.030 C 
HETATM   15  C15 UNL     1      26.606  -0.307  53.638  1.00  0.00     0.135 C 
HETATM   16  O2  UNL     1      26.905   1.068  53.563  1.00  0.00    -0.358 OA
HETATM   17  C16 UNL     1      25.980   2.153  53.738  1.00  0.00     0.239 C 
BRANCH  10  18
HETATM   18  O1  UNL     1      25.522   1.680  51.497  1.00  0.00    -0.365 OA
HETATM   19  H13 UNL     1      25.495   0.695  51.413  1.00  0.00     0.213 HD
ENDBRANCH  10  18
ENDBRANCH   8  10
ENDBRANCH   4   8
BRANCH   1  20
HETATM   20  C5  UNL     1      26.359   6.901  48.709  1.00  0.00     0.066 C 
HETATM   21  C4  UNL     1      27.465   6.408  48.166  1.00  0.00     0.010 C 
BRANCH  21  22
HETATM   22  C3  UNL     1      28.904   6.640  48.088  1.00  0.00     0.029 C 
BRANCH  22  23
HETATM   23  C2  UNL     1      29.704   5.367  48.079  1.00  0.00    -0.001 C 
HETATM   24  C1  UNL     1      31.126   5.559  47.661  1.00  0.00     0.005 C 
ENDBRANCH  22  23
ENDBRANCH  21  22
BRANCH  20  25
HETATM   25  O3  UNL     1      26.538   8.010  49.480  1.00  0.00    -0.356 OA
HETATM   26  C18 UNL     1      25.475   8.793  49.971  1.00  0.00     0.210 C 
ENDBRANCH  20  25
ENDBRANCH   1  20
TORSDOF 7
ENDMDL
MODEL 9
REMARK VINA RESULT:      -6.4      2.710      7.730
REMARK  7 active torsions:
REMARK  status: ('A' for Active; 'I' for Inactive)
REMARK    1  A    between atoms: C2_2  and  C3_3 
REMARK    2  A    between atoms: C3_3  and  C4_4 
REMARK    3  A    between atoms: C5_5  and  C6_6 
REMARK    4  A    between atoms: C5_5  and  O3_23 
REMARK    5  A    between atoms: C9_9  and  N1_10 
REMARK    6  A    between atoms: N1_10  and  C10_11 
REMARK    7  A    between atoms: C10_11  and  O1_12 
ROOT
HETATM    1  C6  UNL     1      24.210   1.552  53.069  1.00  0.00     0.064 C 
HETATM    2  C7  UNL     1      23.118   1.858  52.406  1.00  0.00     0.045 A 
HETATM    3  C8  UNL     1      22.183   0.888  51.827  1.00  0.00     0.137 A 
HETATM    4  C9  UNL     1      21.059   1.634  51.194  1.00  0.00     0.109 A 
HETATM    5  N2  UNL     1      20.848   2.899  51.098  1.00  0.00    -0.229 NA
HETATM    6  C17 UNL     1      21.836   3.732  51.691  1.00  0.00     0.235 A 
HETATM    7  N3  UNL     1      22.865   3.250  52.281  1.00  0.00    -0.246 NA
ENDROOT
BRANCH   4   8
HETATM    8  N1  UNL     1      20.036   0.827  50.584  1.00  0.00    -0.341 N 
HETATM    9  H12 UNL     1      20.245   0.404  49.629  1.00  0.00     0.164 HD
BRANCH   8  10
HETATM   10  C10 UNL     1      18.793   0.601  51.234  1.00  0.00     0.174 C 
HETATM   11  C11 UNL     1      18.725  -0.528  52.149  1.00  0.00     0.042 C 
HETATM   12  C12 UNL     1      17.606  -0.982  52.698  1.00  0.00    -0.059 C 
HETATM   13  C13 UNL     1      17.928  -2.154  53.583  1.00  0.00     0.048 C 
HETATM   14  C14 UNL     1      16.211  -0.547  52.578  1.00  0.00     0.030 C 
HETATM   15  C15 UNL     1      15.701   0.245  51.617  1.00  0.00     0.135 C 
HETATM   16  O2  UNL     1      16.451   0.787  50.554  1.00  0.00    -0.358 OA
HETATM   17  C16 UNL     1      17.759   0.369  50.133  1.00  0.00     0.239 C 
BRANCH  10  18
HETATM   18  O1  UNL     1      18.406   1.770  51.886  1.00  0.00    -0.365 OA
HETATM   19  H13 UNL     1      19.142   2.173  52.410  1.00  0.00     0.213 HD
ENDBRANCH  10  18
ENDBRANCH   8  10
ENDBRANCH   4   8
BRANCH   1  20
HETATM   20  C5  UNL     1      24.655   0.162  53.329  1.00  0.00     0.066 C 
HETATM   21  C4  UNL     1      25.855  -0.188  52.884  1.00  0.00     0.010 C 
BRANCH  21  22
HETATM   22  C3  UNL     1      26.772  -1.322  52.836  1.00  0.00     0.029 C 
BRANCH  22  23
HETATM   23  C2  UNL     1      28.193  -0.942  53.146  1.00  0.00    -0.001 C 
HETATM   24  C1  UNL     1      28.329  -0.086  54.364  1.00  0.00     0.005 C 
ENDBRANCH  22  23
ENDBRANCH  21  22
BRANCH  20  25
HETATM   25  O3  UNL     1      23.970  -0.820  53.979  1.00  0.00    -0.356 OA
HETATM   26  C18 UNL     1      24.193  -1.157  55.328  1.00  0.00     0.210 C 
ENDBRANCH  20  25
ENDBRANCH   1  20
TORSDOF 7
ENDMDL
