MODEL 1
REMARK VINA RESULT:      -8.7      0.000      0.000
REMARK  8 active torsions:
REMARK  status: ('A' for Active; 'I' for Inactive)
REMARK    1  A    between atoms: C3_3  and  C4_4 
REMARK    2  A    between atoms: C4_4  and  C5_5 
REMARK    3  A    between atoms: C5_5  and  N1_6 
REMARK    4  A    between atoms: C12_14  and  C13_15 
REMARK    5  A    between atoms: C14_16  and  C15_17 
REMARK    6  A    between atoms: N3_18  and  C16_19 
REMARK    7  A    between atoms: C16_19  and  O1_20 
REMARK    8  A    between atoms: O1_20  and  C17_21 
ROOT
HETATM    1  N1  UNL     1      23.789   0.312  52.941  1.00  0.00    -0.382 N 
HETATM    2  C6  UNL     1      23.608  -0.907  53.634  1.00  0.00     0.123 C 
HETATM    3  C7  UNL     1      22.633  -1.069  54.710  1.00  0.00     0.022 C 
HETATM    4  C8  UNL     1      21.193  -0.944  54.551  1.00  0.00     0.031 C 
HETATM    5  C9  UNL     1      20.578   0.385  54.221  1.00  0.00     0.269 C 
HETATM    6  N2  UNL     1      21.259   1.046  53.156  1.00  0.00     0.083 N 
HETATM    7  C10 UNL     1      21.229   0.328  51.913  1.00  0.00     0.272 C 
HETATM    8  C11 UNL     1      22.292   1.048  51.060  1.00  0.00     0.059 C 
HETATM    9  C12 UNL     1      23.420   1.359  52.024  1.00  0.00     0.108 C 
HETATM   10  H11 UNL     1      20.810   1.989  53.036  1.00  0.00     0.315 HD
ENDROOT
BRANCH   9  11
HETATM   11  C13 UNL     1      24.565   1.930  51.278  1.00  0.00    -0.000 C 
HETATM   12  C14 UNL     1      24.689   3.231  51.117  1.00  0.00     0.017 C 
BRANCH  12  13
HETATM   13  C15 UNL     1      23.976   4.439  51.479  1.00  0.00     0.277 C 
HETATM   14  N3  UNL     1      23.666   5.665  51.522  1.00  0.00    -0.400 NA
BRANCH  14  15
HETATM   15  C16 UNL     1      24.341   6.749  50.819  1.00  0.00     0.287 C 
BRANCH  15  16
HETATM   16  O1  UNL     1      24.717   6.359  49.525  1.00  0.00    -0.333 OA
BRANCH  16  17
HETATM   17  C17 UNL     1      26.003   6.416  49.057  1.00  0.00     0.070 A 
HETATM   18  C18 UNL     1      26.780   7.483  48.665  1.00  0.00     0.037 A 
HETATM   19  C19 UNL     1      28.062   7.230  48.231  1.00  0.00     0.003 A 
HETATM   20  C20 UNL     1      28.626   5.994  48.160  1.00  0.00     0.000 A 
HETATM   21  C21 UNL     1      27.856   4.909  48.552  1.00  0.00     0.003 A 
HETATM   22  C22 UNL     1      26.570   5.150  48.987  1.00  0.00     0.037 A 
ENDBRANCH  16  17
ENDBRANCH  15  16
ENDBRANCH  14  15
ENDBRANCH  12  13
ENDBRANCH   9  11
BRANCH   1  23
HETATM   23  C5  UNL     1      25.020   0.916  53.469  1.00  0.00     0.083 C 
BRANCH  23  24
HETATM   24  C4  UNL     1      26.186   0.769  54.070  1.00  0.00     0.007 C 
BRANCH  24  25
HETATM   25  C3  UNL     1      27.312   0.289  54.815  1.00  0.00     0.030 A 
HETATM   26  C2  UNL     1      28.157  -0.112  54.381  1.00  0.00    -0.053 A 
HETATM   27  C1  UNL     1      28.797  -0.417  54.031  1.00  0.00    -0.066 A 
HETATM   28  C23 UNL     1      27.806  -0.000  53.031  1.00  0.00     0.055 A 
HETATM   29  C24 UNL     1      29.672  -0.835  53.520  1.00  0.00     0.049 A 
ENDBRANCH  24  25
ENDBRANCH  23  24
ENDBRANCH   1  23
TORSDOF 8
ENDMDL
MODEL 2
REMARK VINA RESULT:      -8.4      2.516      7.017
REMARK  8 active torsions:
REMARK  status: ('A' for Active; 'I' for Inactive)
REMARK    1  A    between atoms: C3_3  and  C4_4 
REMARK    2  A    between atoms: C4_4  and  C5_5 
REMARK    3  A    between atoms: C5_5  and  N1_6 
REMARK    4  A    between atoms: C12_14  and  C13_15 
REMARK    5  A    between atoms: C14_16  and  C15_17 
REMARK    6  A    between atoms: N3_18  and  C16_19 
REMARK    7  A    between atoms: C16_19  and  O1_20 
REMARK    8  A    between atoms: O1_20  and  C17_21 
ROOT
HETATM    1  N1  UNL     1      24.439   3.625  50.212  1.00  0.00    -0.382 N 
HETATM    2  C6  UNL     1      23.276   4.151  49.605  1.00  0.00     0.123 C 
HETATM    3  C7  UNL     1      22.737   5.468  49.936  1.00  0.00     0.022 C 
HETATM    4  C8  UNL     1      23.427   6.728  49.710  1.00  0.00     0.031 C 
HETATM    5  C9  UNL     1      24.669   7.063  50.483  1.00  0.00     0.269 C 
HETATM    6  N2  UNL     1      25.598   5.981  50.510  1.00  0.00     0.083 N 
HETATM    7  C10 UNL     1      26.085   5.601  49.215  1.00  0.00     0.272 C 
HETATM    8  C11 UNL     1      26.762   4.241  49.473  1.00  0.00     0.059 C 
HETATM    9  C12 UNL     1      25.855   3.535  50.462  1.00  0.00     0.108 C 
HETATM   10  H11 UNL     1      26.400   6.274  51.123  1.00  0.00     0.315 HD
ENDROOT
BRANCH   9  11
HETATM   11  C13 UNL     1      26.337   2.152  50.676  1.00  0.00    -0.000 C 
HETATM   12  C14 UNL     1      27.111   1.853  51.700  1.00  0.00     0.017 C 
BRANCH  12  13
HETATM   13  C15 UNL     1      27.720   2.527  52.827  1.00  0.00     0.277 C 
HETATM   14  N3  UNL     1      28.429   2.707  53.860  1.00  0.00    -0.400 NA
BRANCH  14  15
HETATM   15  C16 UNL     1      29.262   1.707  54.516  1.00  0.00     0.287 C 
BRANCH  15  16
HETATM   16  O1  UNL     1      28.483   0.671  55.055  1.00  0.00    -0.333 OA
BRANCH  16  17
HETATM   17  C17 UNL     1      27.737  -0.193  54.298  1.00  0.00     0.070 A 
HETATM   18  C18 UNL     1      26.374  -0.344  54.171  1.00  0.00     0.037 A 
HETATM   19  C19 UNL     1      25.903  -1.316  53.316  1.00  0.00     0.003 A 
HETATM   20  C20 UNL     1      26.690  -2.146  52.579  1.00  0.00     0.000 A 
HETATM   21  C21 UNL     1      28.065  -2.005  52.696  1.00  0.00     0.003 A 
HETATM   22  C22 UNL     1      28.548  -1.036  53.549  1.00  0.00     0.037 A 
ENDBRANCH  16  17
ENDBRANCH  15  16
ENDBRANCH  14  15
ENDBRANCH  12  13
ENDBRANCH   9  11
BRANCH   1  23
HETATM   23  C5  UNL     1      23.987   2.637  51.200  1.00  0.00     0.083 C 
BRANCH  23  24
HETATM   24  C4  UNL     1      23.121   1.707  51.557  1.00  0.00     0.007 C 
BRANCH  24  25
HETATM   25  C3  UNL     1      22.196   0.612  51.594  1.00  0.00     0.030 A 
HETATM   26  C2  UNL     1      22.023   0.037  52.432  1.00  0.00    -0.053 A 
HETATM   27  C1  UNL     1      21.904  -0.395  53.084  1.00  0.00    -0.066 A 
HETATM   28  C23 UNL     1      22.894   0.662  53.333  1.00  0.00     0.055 A 
HETATM   29  C24 UNL     1      21.757  -0.975  54.003  1.00  0.00     0.049 A 
ENDBRANCH  24  25
ENDBRANCH  23  24
ENDBRANCH   1  23
TORSDOF 8
ENDMDL
MODEL 3
REMARK VINA RESULT:      -8.2      2.319      4.359
REMARK  8 active torsions:
REMARK  status: ('A' for Active; 'I' for Inactive)
REMARK    1  A    between atoms: C3_3  and  C4_4 
REMARK    2  A    between atoms: C4_4  and  C5_5 
REMARK    3  A    between atoms: C5_5  and  N1_6 
REMARK    4  A    between atoms: C12_14  and  C13_15 
REMARK    5  A    between atoms: C14_16  and  C15_17 
REMARK    6  A    between atoms: N3_18  and  C16_19 
REMARK    7  A    between atoms: C16_19  and  O1_20 
REMARK    8  A    between atoms: O1_20  and  C17_21 
ROOT
HETATM    1  N1  UNL     1      23.949   0.284  52.931  1.00  0.00    -0.382 N 
HETATM    2  C6  UNL     1      23.663  -0.939  53.581  1.00  0.00     0.123 C 
HETATM    3  C7  UNL     1      22.655  -1.060  54.632  1.00  0.00     0.022 C 
HETATM    4  C8  UNL     1      21.232  -0.823  54.448  1.00  0.00     0.031 C 
HETATM    5  C9  UNL     1      20.724   0.557  54.147  1.00  0.00     0.269 C 
HETATM    6  N2  UNL     1      21.476   1.197  53.117  1.00  0.00     0.083 N 
HETATM    7  C10 UNL     1      21.421   0.520  51.852  1.00  0.00     0.272 C 
HETATM    8  C11 UNL     1      22.552   1.184  51.043  1.00  0.00     0.059 C 
HETATM    9  C12 UNL     1      23.679   1.382  52.039  1.00  0.00     0.108 C 
HETATM   10  H11 UNL     1      21.100   2.173  53.018  1.00  0.00     0.315 HD
ENDROOT
BRANCH   9  11
HETATM   11  C13 UNL     1      24.879   1.888  51.335  1.00  0.00    -0.000 C 
HETATM   12  C14 UNL     1      24.958   3.144  50.944  1.00  0.00     0.017 C 
BRANCH  12  13
HETATM   13  C15 UNL     1      24.146   4.342  50.986  1.00  0.00     0.277 C 
HETATM   14  N3  UNL     1      23.182   5.112  51.266  1.00  0.00    -0.400 NA
BRANCH  14  15
HETATM   15  C16 UNL     1      22.008   4.768  52.059  1.00  0.00     0.287 C 
BRANCH  15  16
HETATM   16  O1  UNL     1      20.826   4.972  51.330  1.00  0.00    -0.333 OA
BRANCH  16  17
HETATM   17  C17 UNL     1      19.985   3.961  50.946  1.00  0.00     0.070 A 
HETATM   18  C18 UNL     1      18.960   3.328  51.616  1.00  0.00     0.037 A 
HETATM   19  C19 UNL     1      18.276   2.327  50.963  1.00  0.00     0.003 A 
HETATM   20  C20 UNL     1      18.537   1.911  49.694  1.00  0.00     0.000 A 
HETATM   21  C21 UNL     1      19.565   2.539  49.007  1.00  0.00     0.003 A 
HETATM   22  C22 UNL     1      20.258   3.543  49.651  1.00  0.00     0.037 A 
ENDBRANCH  16  17
ENDBRANCH  15  16
ENDBRANCH  14  15
ENDBRANCH  12  13
ENDBRANCH   9  11
BRANCH   1  23
HETATM   23  C5  UNL     1      25.208   0.779  53.501  1.00  0.00     0.083 C 
BRANCH  23  24
HETATM   24  C4  UNL     1      26.427   0.529  53.943  1.00  0.00     0.007 C 
BRANCH  24  25
HETATM   25  C3  UNL     1      27.605   0.354  54.741  1.00  0.00     0.030 A 
HETATM   26  C2  UNL     1      28.463  -0.105  54.401  1.00  0.00    -0.053 A 
HETATM   27  C1  UNL     1      29.113  -0.460  54.124  1.00  0.00    -0.066 A 
HETATM   28  C23 UNL     1      28.067  -0.412  53.094  1.00  0.00     0.055 A 
HETATM   29  C24 UNL     1      30.001  -0.956  53.713  1.00  0.00     0.049 A 
ENDBRANCH  24  25
ENDBRANCH  23  24
ENDBRANCH   1  23
TORSDOF 8
ENDMDL
MODEL 4
REMARK VINA RESULT:      -8.2      2.539      6.787
REMARK  8 active torsions:
REMARK  status: ('A' for Active; 'I' for Inactive)
REMARK    1  A    between atoms: C3_3  and  C4_4 
REMARK    2  A    between atoms: C4_4  and  C5_5 
REMARK    3  A    between atoms: C5_5  and  N1_6 
REMARK    4  A    between atoms: C12_14  and  C13_15 
REMARK    5  A    between atoms: C14_16  and  C15_17 
REMARK    6  A    between atoms: N3_18  and  C16_19 
REMARK    7  A    between atoms: C16_19  and  O1_20 
REMARK    8  A    between atoms: O1_20  and  C17_21 
ROOT
HETATM    1  N1  UNL     1      23.249   4.761  50.368  1.00  0.00    -0.382 N 
HETATM    2  C6  UNL     1      23.045   5.728  49.356  1.00  0.00     0.123 C 
HETATM    3  C7  UNL     1      22.394   5.418  48.085  1.00  0.00     0.022 C 
HETATM    4  C8  UNL     1      21.015   4.978  47.946  1.00  0.00     0.031 C 
HETATM    5  C9  UNL     1      20.589   3.637  48.468  1.00  0.00     0.269 C 
HETATM    6  N2  UNL     1      21.059   3.399  49.793  1.00  0.00     0.083 N 
HETATM    7  C10 UNL     1      20.553   4.328  50.764  1.00  0.00     0.272 C 
HETATM    8  C11 UNL     1      21.453   4.085  51.992  1.00  0.00     0.059 C 
HETATM    9  C12 UNL     1      22.841   3.869  51.422  1.00  0.00     0.108 C 
HETATM   10  H11 UNL     1      20.776   2.420  50.053  1.00  0.00     0.315 HD
ENDROOT
BRANCH   9  11
HETATM   11  C13 UNL     1      23.820   3.765  52.528  1.00  0.00    -0.000 C 
HETATM   12  C14 UNL     1      24.116   2.599  53.065  1.00  0.00     0.017 C 
BRANCH  12  13
HETATM   13  C15 UNL     1      23.748   1.208  52.901  1.00  0.00     0.277 C 
HETATM   14  N3  UNL     1      23.836  -0.054  52.934  1.00  0.00    -0.400 NA
BRANCH  14  15
HETATM   15  C16 UNL     1      24.975  -0.825  53.416  1.00  0.00     0.287 C 
BRANCH  15  16
HETATM   16  O1  UNL     1      25.801  -0.049  54.243  1.00  0.00    -0.333 OA
BRANCH  16  17
HETATM   17  C17 UNL     1      27.128   0.179  53.994  1.00  0.00     0.070 A 
HETATM   18  C18 UNL     1      27.864   1.345  53.986  1.00  0.00     0.037 A 
HETATM   19  C19 UNL     1      29.207   1.265  53.696  1.00  0.00     0.003 A 
HETATM   20  C20 UNL     1      29.871   0.110  53.415  1.00  0.00     0.000 A 
HETATM   21  C21 UNL     1      29.145  -1.071  53.420  1.00  0.00     0.003 A 
HETATM   22  C22 UNL     1      27.798  -1.003  53.708  1.00  0.00     0.037 A 
ENDBRANCH  16  17
ENDBRANCH  15  16
ENDBRANCH  14  15
ENDBRANCH  12  13
ENDBRANCH   9  11
BRANCH   1  23
HETATM   23  C5  UNL     1      24.667   4.384  50.308  1.00  0.00     0.083 C 
BRANCH  23  24
HETATM   24  C4  UNL     1      25.837   4.470  49.703  1.00  0.00     0.007 C 
BRANCH  24  25
HETATM   25  C3  UNL     1      27.111   4.207  49.099  1.00  0.00     0.030 A 
HETATM   26  C2  UNL     1      27.696   4.931  48.660  1.00  0.00    -0.053 A 
HETATM   27  C1  UNL     1      28.133   5.500  48.326  1.00  0.00    -0.066 A 
HETATM   28  C23 UNL     1      26.885   6.052  48.870  1.00  0.00     0.055 A 
HETATM   29  C24 UNL     1      28.717   6.309  47.871  1.00  0.00     0.049 A 
ENDBRANCH  24  25
ENDBRANCH  23  24
ENDBRANCH   1  23
TORSDOF 8
ENDMDL
MODEL 5
REMARK VINA RESULT:      -8.0      2.475      7.881
REMARK  8 active torsions:
REMARK  status: ('A' for Active; 'I' for Inactive)
REMARK    1  A    between atoms: C3_3  and  C4_4 
REMARK    2  A    between atoms: C4_4  and  C5_5 
REMARK    3  A    between atoms: C5_5  and  N1_6 
REMARK    4  A    between atoms: C12_14  and  C13_15 
REMARK    5  A    between atoms: C14_16  and  C15_17 
REMARK    6  A    between atoms: N3_18  and  C16_19 
REMARK    7  A    between atoms: C16_19  and  O1_20 
REMARK    8  A    between atoms: O1_20  and  C17_21 
ROOT
HETATM    1  N1  UNL     1      24.383   4.535  49.223  1.00  0.00    -0.382 N 
HETATM    2  C6  UNL     1      23.419   5.343  48.579  1.00  0.00     0.123 C 
HETATM    3  C7  UNL     1      22.887   6.567  49.174  1.00  0.00     0.022 C 
HETATM    4  C8  UNL     1      23.674   7.749  49.485  1.00  0.00     0.031 C 
HETATM    5  C9  UNL     1      24.720   7.705  50.560  1.00  0.00     0.269 C 
HETATM    6  N2  UNL     1      25.561   6.558  50.449  1.00  0.00     0.083 N 
HETATM    7  C10 UNL     1      26.313   6.506  49.227  1.00  0.00     0.272 C 
HETATM    8  C11 UNL     1      26.842   5.058  49.196  1.00  0.00     0.059 C 
HETATM    9  C12 UNL     1      25.697   4.213  49.719  1.00  0.00     0.108 C 
HETATM   10  H11 UNL     1      26.215   6.570  51.272  1.00  0.00     0.315 HD
ENDROOT
BRANCH   9  11
HETATM   11  C13 UNL     1      26.045   2.779  49.600  1.00  0.00    -0.000 C 
HETATM   12  C14 UNL     1      26.525   2.109  50.628  1.00  0.00     0.017 C 
BRANCH  12  13
HETATM   13  C15 UNL     1      26.864   2.354  52.014  1.00  0.00     0.277 C 
HETATM   14  N3  UNL     1      26.990   2.154  53.258  1.00  0.00    -0.400 NA
BRANCH  14  15
HETATM   15  C16 UNL     1      26.598   0.950  53.980  1.00  0.00     0.287 C 
BRANCH  15  16
HETATM   16  O1  UNL     1      25.686   0.186  53.237  1.00  0.00    -0.333 OA
BRANCH  16  17
HETATM   17  C17 UNL     1      24.384  -0.019  53.609  1.00  0.00     0.070 A 
HETATM   18  C18 UNL     1      23.822  -0.912  54.495  1.00  0.00     0.037 A 
HETATM   19  C19 UNL     1      22.457  -0.885  54.668  1.00  0.00     0.003 A 
HETATM   20  C20 UNL     1      21.611  -0.035  54.025  1.00  0.00     0.000 A 
HETATM   21  C21 UNL     1      22.162   0.870  53.131  1.00  0.00     0.003 A 
HETATM   22  C22 UNL     1      23.528   0.852  52.948  1.00  0.00     0.037 A 
ENDBRANCH  16  17
ENDBRANCH  15  16
ENDBRANCH  14  15
ENDBRANCH  12  13
ENDBRANCH   9  11
BRANCH   1  23
HETATM   23  C5  UNL     1      23.666   3.368  49.753  1.00  0.00     0.083 C 
BRANCH  23  24
HETATM   24  C4  UNL     1      22.711   2.467  49.615  1.00  0.00     0.007 C 
BRANCH  24  25
HETATM   25  C3  UNL     1      21.953   1.270  49.392  1.00  0.00     0.030 A 
HETATM   26  C2  UNL     1      20.963   1.162  49.657  1.00  0.00    -0.053 A 
HETATM   27  C1  UNL     1      20.204   1.096  49.868  1.00  0.00    -0.066 A 
HETATM   28  C23 UNL     1      20.725   2.427  50.207  1.00  0.00     0.055 A 
HETATM   29  C24 UNL     1      19.151   1.034  50.169  1.00  0.00     0.049 A 
ENDBRANCH  24  25
ENDBRANCH  23  24
ENDBRANCH   1  23
TORSDOF 8
ENDMDL
MODEL 6
REMARK VINA RESULT:      -7.9      3.573      6.008
REMARK  8 active torsions:
REMARK  status: ('A' for Active; 'I' for Inactive)
REMARK    1  A    between atoms: C3_3  and  C4_4 
REMARK    2  A    between atoms: C4_4  and  C5_5 
REMARK    3  A    between atoms: C5_5  and  N1_6 
REMARK    4  A    between atoms: C12_14  and  C13_15 
REMARK    5  A    between atoms: C14_16  and  C15_17 
REMARK    6  A    between atoms: N3_18  and  C16_19 
REMARK    7  A    between atoms: C16_19  and  O1_20 
REMARK    8  A    between atoms: O1_20  and  C17_21 
ROOT
HETATM    1  N1  UNL     1      20.112   1.271  50.613  1.00  0.00    -0.382 N 
HETATM    2  C6  UNL     1      18.799   0.749  50.561  1.00  0.00     0.123 C 
HETATM    3  C7  UNL     1      17.694   1.306  51.337  1.00  0.00     0.022 C 
HETATM    4  C8  UNL     1      17.167   2.653  51.182  1.00  0.00     0.031 C 
HETATM    5  C9  UNL     1      18.003   3.843  51.553  1.00  0.00     0.269 C 
HETATM    6  N2  UNL     1      19.326   3.759  51.028  1.00  0.00     0.083 N 
HETATM    7  C10 UNL     1      19.381   3.728  49.594  1.00  0.00     0.272 C 
HETATM    8  C11 UNL     1      20.831   3.292  49.302  1.00  0.00     0.059 C 
HETATM    9  C12 UNL     1      21.141   2.243  50.352  1.00  0.00     0.108 C 
HETATM   10  H11 UNL     1      19.858   4.591  51.389  1.00  0.00     0.315 HD
ENDROOT
BRANCH   9  11
HETATM   11  C13 UNL     1      22.470   1.648  50.080  1.00  0.00    -0.000 C 
HETATM   12  C14 UNL     1      23.479   1.833  50.907  1.00  0.00     0.017 C 
BRANCH  12  13
HETATM   13  C15 UNL     1      23.742   2.516  52.156  1.00  0.00     0.277 C 
HETATM   14  N3  UNL     1      24.352   2.877  53.205  1.00  0.00    -0.400 NA
BRANCH  14  15
HETATM   15  C16 UNL     1      25.673   2.432  53.629  1.00  0.00     0.287 C 
BRANCH  15  16
HETATM   16  O1  UNL     1      25.669   1.068  53.955  1.00  0.00    -0.333 OA
BRANCH  16  17
HETATM   17  C17 UNL     1      26.739   0.235  53.760  1.00  0.00     0.070 A 
HETATM   18  C18 UNL     1      28.051   0.330  54.172  1.00  0.00     0.037 A 
HETATM   19  C19 UNL     1      28.918  -0.680  53.818  1.00  0.00     0.003 A 
HETATM   20  C20 UNL     1      28.576  -1.774  53.086  1.00  0.00     0.000 A 
HETATM   21  C21 UNL     1      27.259  -1.884  52.664  1.00  0.00     0.003 A 
HETATM   22  C22 UNL     1      26.381  -0.879  53.012  1.00  0.00     0.037 A 
ENDBRANCH  16  17
ENDBRANCH  15  16
ENDBRANCH  14  15
ENDBRANCH  12  13
ENDBRANCH   9  11
BRANCH   1  23
HETATM   23  C5  UNL     1      20.896   0.351  51.448  1.00  0.00     0.083 C 
BRANCH  23  24
HETATM   24  C4  UNL     1      21.030  -0.316  52.580  1.00  0.00     0.007 C 
BRANCH  24  25
HETATM   25  C3  UNL     1      20.908  -0.822  53.915  1.00  0.00     0.030 A 
HETATM   26  C2  UNL     1      21.713  -1.039  54.521  1.00  0.00    -0.053 A 
HETATM   27  C1  UNL     1      22.342  -1.201  54.972  1.00  0.00    -0.066 A 
HETATM   28  C23 UNL     1      22.759  -0.690  53.659  1.00  0.00     0.055 A 
HETATM   29  C24 UNL     1      23.233  -1.415  55.575  1.00  0.00     0.049 A 
ENDBRANCH  24  25
ENDBRANCH  23  24
ENDBRANCH   1  23
TORSDOF 8
ENDMDL
MODEL 7
REMARK VINA RESULT:      -7.9      2.650      6.821
REMARK  8 active torsions:
REMARK  status: ('A' for Active; 'I' for Inactive)
REMARK    1  A    between atoms: C3_3  and  C4_4 
REMARK    2  A    between atoms: C4_4  and  C5_5 
REMARK    3  A    between atoms: C5_5  and  N1_6 
REMARK    4  A    between atoms: C12_14  and  C13_15 
REMARK    5  A    between atoms: C14_16  and  C15_17 
REMARK    6  A    between atoms: N3_18  and  C16_19 
REMARK    7  A    between atoms: C16_19  and  O1_20 
REMARK    8  A    between atoms: O1_20  and  C17_21 
ROOT
HETATM    1  N1  UNL     1      23.196   4.133  50.313  1.00  0.00    -0.382 N 
HETATM    2  C6  UNL     1      22.987   5.054  51.365  1.00  0.00     0.123 C 
HETATM    3  C7  UNL     1      23.810   6.247  51.548  1.00  0.00     0.022 C 
HETATM    4  C8  UNL     1      23.901   7.346  50.601  1.00  0.00     0.031 C 
HETATM    5  C9  UNL     1      24.534   7.140  49.256  1.00  0.00     0.269 C 
HETATM    6  N2  UNL     1      24.060   5.960  48.610  1.00  0.00     0.083 N 
HETATM    7  C10 UNL     1      22.651   5.976  48.334  1.00  0.00     0.272 C 
HETATM    8  C11 UNL     1      22.341   4.508  47.979  1.00  0.00     0.059 C 
HETATM    9  C12 UNL     1      23.176   3.689  48.943  1.00  0.00     0.108 C 
HETATM   10  H11 UNL     1      24.599   5.857  47.714  1.00  0.00     0.315 HD
ENDROOT
BRANCH   9  11
HETATM   11  C13 UNL     1      22.849   2.254  48.785  1.00  0.00    -0.000 C 
HETATM   12  C14 UNL     1      21.647   1.796  49.070  1.00  0.00     0.017 C 
BRANCH  12  13
HETATM   13  C15 UNL     1      20.380   2.308  49.549  1.00  0.00     0.277 C 
HETATM   14  N3  UNL     1      19.396   2.508  50.320  1.00  0.00    -0.400 NA
BRANCH  14  15
HETATM   15  C16 UNL     1      19.221   1.947  51.654  1.00  0.00     0.287 C 
BRANCH  15  16
HETATM   16  O1  UNL     1      20.426   1.960  52.373  1.00  0.00    -0.333 OA
BRANCH  16  17
HETATM   17  C17 UNL     1      21.045   0.831  52.841  1.00  0.00     0.070 A 
HETATM   18  C18 UNL     1      21.746  -0.158  52.186  1.00  0.00     0.037 A 
HETATM   19  C19 UNL     1      22.266  -1.191  52.933  1.00  0.00     0.003 A 
HETATM   20  C20 UNL     1      22.140  -1.310  54.283  1.00  0.00     0.000 A 
HETATM   21  C21 UNL     1      21.438  -0.322  54.956  1.00  0.00     0.003 A 
HETATM   22  C22 UNL     1      20.912   0.717  54.218  1.00  0.00     0.037 A 
ENDBRANCH  16  17
ENDBRANCH  15  16
ENDBRANCH  14  15
ENDBRANCH  12  13
ENDBRANCH   9  11
BRANCH   1  23
HETATM   23  C5  UNL     1      23.867   2.967  50.903  1.00  0.00     0.083 C 
BRANCH  23  24
HETATM   24  C4  UNL     1      24.391   2.378  51.962  1.00  0.00     0.007 C 
BRANCH  24  25
HETATM   25  C3  UNL     1      24.661   1.862  53.272  1.00  0.00     0.030 A 
HETATM   26  C2  UNL     1      25.175   0.986  53.447  1.00  0.00    -0.053 A 
HETATM   27  C1  UNL     1      25.571   0.311  53.563  1.00  0.00    -0.066 A 
HETATM   28  C23 UNL     1      25.447   0.602  52.129  1.00  0.00     0.055 A 
HETATM   29  C24 UNL     1      26.124  -0.627  53.694  1.00  0.00     0.049 A 
ENDBRANCH  24  25
ENDBRANCH  23  24
ENDBRANCH   1  23
TORSDOF 8
ENDMDL
MODEL 8
REMARK VINA RESULT:      -7.9      2.790      5.490
REMARK  8 active torsions:
REMARK  status: ('A' for Active; 'I' for Inactive)
REMARK    1  A    between atoms: C3_3  and  C4_4 
REMARK    2  A    between atoms: C4_4  and  C5_5 
REMARK    3  A    between atoms: C5_5  and  N1_6 
REMARK    4  A    between atoms: C12_14  and  C13_15 
REMARK    5  A    between atoms: C14_16  and  C15_17 
REMARK    6  A    between atoms: N3_18  and  C16_19 
REMARK    7  A    between atoms: C16_19  and  O1_20 
REMARK    8  A    between atoms: O1_20  and  C17_21 
ROOT
HETATM    1  N1  UNL     1      19.624   1.079  50.163  1.00  0.00    -0.382 N 
HETATM    2  C6  UNL     1      18.467   0.489  50.721  1.00  0.00     0.123 C 
HETATM    3  C7  UNL     1      17.540   1.223  51.580  1.00  0.00     0.022 C 
HETATM    4  C8  UNL     1      16.754   2.372  51.161  1.00  0.00     0.031 C 
HETATM    5  C9  UNL     1      17.428   3.668  50.816  1.00  0.00     0.269 C 
HETATM    6  N2  UNL     1      18.545   3.482  49.948  1.00  0.00     0.083 N 
HETATM    7  C10 UNL     1      18.202   2.916  48.674  1.00  0.00     0.272 C 
HETATM    8  C11 UNL     1      19.567   2.501  48.090  1.00  0.00     0.059 C 
HETATM    9  C12 UNL     1      20.344   1.949  49.269  1.00  0.00     0.108 C 
HETATM   10  H11 UNL     1      18.995   4.422  49.813  1.00  0.00     0.315 HD
ENDROOT
BRANCH   9  11
HETATM   11  C13 UNL     1      21.629   1.386  48.795  1.00  0.00    -0.000 C 
HETATM   12  C14 UNL     1      22.731   2.109  48.802  1.00  0.00     0.017 C 
BRANCH  12  13
HETATM   13  C15 UNL     1      23.144   3.447  49.170  1.00  0.00     0.277 C 
HETATM   14  N3  UNL     1      23.760   4.375  49.772  1.00  0.00    -0.400 NA
BRANCH  14  15
HETATM   15  C16 UNL     1      24.752   4.206  50.826  1.00  0.00     0.287 C 
BRANCH  15  16
HETATM   16  O1  UNL     1      24.227   3.485  51.909  1.00  0.00    -0.333 OA
BRANCH  16  17
HETATM   17  C17 UNL     1      24.899   2.480  52.552  1.00  0.00     0.070 A 
HETATM   18  C18 UNL     1      25.401   2.398  53.833  1.00  0.00     0.037 A 
HETATM   19  C19 UNL     1      26.042   1.238  54.207  1.00  0.00     0.003 A 
HETATM   20  C20 UNL     1      26.220   0.156  53.401  1.00  0.00     0.000 A 
HETATM   21  C21 UNL     1      25.719   0.224  52.109  1.00  0.00     0.003 A 
HETATM   22  C22 UNL     1      25.076   1.381  51.723  1.00  0.00     0.037 A 
ENDBRANCH  16  17
ENDBRANCH  15  16
ENDBRANCH  14  15
ENDBRANCH  12  13
ENDBRANCH   9  11
BRANCH   1  23
HETATM   23  C5  UNL     1      20.764   0.598  50.954  1.00  0.00     0.083 C 
BRANCH  23  24
HETATM   24  C4  UNL     1      21.401   0.550  52.109  1.00  0.00     0.007 C 
BRANCH  24  25
HETATM   25  C3  UNL     1      21.839   0.736  53.462  1.00  0.00     0.030 A 
HETATM   26  C2  UNL     1      22.295   0.001  54.021  1.00  0.00    -0.053 A 
HETATM   27  C1  UNL     1      22.644  -0.575  54.436  1.00  0.00    -0.066 A 
HETATM   28  C23 UNL     1      22.309  -1.038  53.083  1.00  0.00     0.055 A 
HETATM   29  C24 UNL     1      23.125  -1.392  54.988  1.00  0.00     0.049 A 
ENDBRANCH  24  25
ENDBRANCH  23  24
ENDBRANCH   1  23
TORSDOF 8
ENDMDL
MODEL 9
REMARK VINA RESULT:      -7.8      2.731      6.160
REMARK  8 active torsions:
REMARK  status: ('A' for Active; 'I' for Inactive)
REMARK    1  A    between atoms: C3_3  and  C4_4 
REMARK    2  A    between atoms: C4_4  and  C5_5 
REMARK    3  A    between atoms: C5_5  and  N1_6 
REMARK    4  A    between atoms: C12_14  and  C13_15 
REMARK    5  A    between atoms: C14_16  and  C15_17 
REMARK    6  A    between atoms: N3_18  and  C16_19 
REMARK    7  A    between atoms: C16_19  and  O1_20 
REMARK    8  A    between atoms: O1_20  and  C17_21 
ROOT
HETATM    1  N1  UNL     1      22.843   4.197  49.293  1.00  0.00    -0.382 N 
HETATM    2  C6  UNL     1      22.923   2.957  48.619  1.00  0.00     0.123 C 
HETATM    3  C7  UNL     1      21.783   2.353  47.933  1.00  0.00     0.022 C 
HETATM    4  C8  UNL     1      21.101   2.934  46.788  1.00  0.00     0.031 C 
HETATM    5  C9  UNL     1      20.315   4.204  46.936  1.00  0.00     0.269 C 
HETATM    6  N2  UNL     1      21.036   5.206  47.650  1.00  0.00     0.083 N 
HETATM    7  C10 UNL     1      22.250   5.620  47.005  1.00  0.00     0.272 C 
HETATM    8  C11 UNL     1      22.988   6.408  48.105  1.00  0.00     0.059 C 
HETATM    9  C12 UNL     1      22.732   5.630  49.381  1.00  0.00     0.108 C 
HETATM   10  H11 UNL     1      20.394   6.030  47.766  1.00  0.00     0.315 HD
ENDROOT
BRANCH   9  11
HETATM   11  C13 UNL     1      23.515   6.223  50.488  1.00  0.00    -0.000 C 
HETATM   12  C14 UNL     1      24.815   6.030  50.580  1.00  0.00     0.017 C 
BRANCH  12  13
HETATM   13  C15 UNL     1      25.859   5.337  49.854  1.00  0.00     0.277 C 
HETATM   14  N3  UNL     1      26.601   4.391  49.457  1.00  0.00    -0.400 NA
BRANCH  14  15
HETATM   15  C16 UNL     1      26.525   3.000  49.887  1.00  0.00     0.287 C 
BRANCH  15  16
HETATM   16  O1  UNL     1      27.053   2.838  51.177  1.00  0.00    -0.333 OA
BRANCH  16  17
HETATM   17  C17 UNL     1      26.843   1.728  51.951  1.00  0.00     0.070 A 
HETATM   18  C18 UNL     1      26.679   0.402  51.612  1.00  0.00     0.037 A 
HETATM   19  C19 UNL     1      26.482  -0.509  52.625  1.00  0.00     0.003 A 
HETATM   20  C20 UNL     1      26.436  -0.198  53.949  1.00  0.00     0.000 A 
HETATM   21  C21 UNL     1      26.600   1.132  54.306  1.00  0.00     0.003 A 
HETATM   22  C22 UNL     1      26.798   2.054  53.300  1.00  0.00     0.037 A 
ENDBRANCH  16  17
ENDBRANCH  15  16
ENDBRANCH  14  15
ENDBRANCH  12  13
ENDBRANCH   9  11
BRANCH   1  23
HETATM   23  C5  UNL     1      22.783   3.891  50.728  1.00  0.00     0.083 C 
BRANCH  23  24
HETATM   24  C4  UNL     1      22.874   3.005  51.702  1.00  0.00     0.007 C 
BRANCH  24  25
HETATM   25  C3  UNL     1      23.240   2.259  52.871  1.00  0.00     0.030 A 
HETATM   26  C2  UNL     1      23.084   1.246  52.975  1.00  0.00    -0.053 A 
HETATM   27  C1  UNL     1      22.956   0.468  53.038  1.00  0.00    -0.066 A 
HETATM   28  C23 UNL     1      22.492   0.968  51.738  1.00  0.00     0.055 A 
HETATM   29  C24 UNL     1      22.768  -0.611  53.098  1.00  0.00     0.049 A 
ENDBRANCH  24  25
ENDBRANCH  23  24
ENDBRANCH   1  23
TORSDOF 8
ENDMDL
