MODEL 1
REMARK VINA RESULT:      -8.3      0.000      0.000
REMARK  9 active torsions:
REMARK  status: ('A' for Active; 'I' for Inactive)
REMARK    1  A    between atoms: C2_2  and  C3_3 
REMARK    2  A    between atoms: C2_2  and  O2_20 
REMARK    3  A    between atoms: C3_3  and  O1_4 
REMARK    4  A    between atoms: O1_4  and  C4_5 
REMARK    5  A    between atoms: C4_5  and  C5_6 
REMARK    6  A    between atoms: C7_8  and  C8_9 
REMARK    7  A    between atoms: O2_20  and  C15_21 
REMARK    8  A    between atoms: C15_21  and  C16_22 
REMARK    9  A    between atoms: C20_28  and  N5_29 
ROOT
HETATM    1  C3  UNL     1      27.898   5.906  48.168  1.00  0.00     0.209 C 
ENDROOT
BRANCH   1   2
HETATM    2  C2  UNL     1      29.354   6.016  48.239  1.00  0.00     0.115 C 
HETATM    3  C1  UNL     1      30.134   7.044  48.437  1.00  0.00     0.047 C 
BRANCH   2   4
HETATM    4  O2  UNL     1      30.153   4.886  48.086  1.00  0.00    -0.372 OA
BRANCH   4   5
HETATM    5  C15 UNL     1      31.427   5.080  47.446  1.00  0.00     0.208 C 
BRANCH   5   6
HETATM    6  C16 UNL     1      32.420   4.098  48.043  1.00  0.00     0.307 C 
HETATM    7  N3  UNL     1      33.490   4.736  48.694  1.00  0.00     0.096 N 
HETATM    8  C17 UNL     1      34.779   4.655  48.100  1.00  0.00     0.300 C 
HETATM    9  H15 UNL     1      33.517   4.569  49.729  1.00  0.00     0.316 HD
HETATM   10  C18 UNL     1      35.010   3.517  47.187  1.00  0.00     0.304 C 
HETATM   11  N4  UNL     1      33.933   3.322  46.246  1.00  0.00     0.121 N 
HETATM   12  C19 UNL     1      33.838   4.407  45.331  1.00  0.00     0.312 C 
HETATM   13  C20 UNL     1      32.762   3.065  47.041  1.00  0.00     0.485 C 
BRANCH  13  14
HETATM   14  N5  UNL     1      31.621   2.679  46.245  1.00  0.00     0.114 N 
HETATM   15  H24 UNL     1      30.924   3.441  46.111  1.00  0.00     0.315 HD
HETATM   16  H25 UNL     1      31.100   1.858  46.633  1.00  0.00     0.315 HD
ENDBRANCH  13  14
ENDBRANCH   5   6
ENDBRANCH   4   5
ENDBRANCH   2   4
ENDBRANCH   1   2
BRANCH   1  17
HETATM   17  O1  UNL     1      27.305   5.149  49.130  1.00  0.00    -0.382 OA
BRANCH  17  18
HETATM   18  C4  UNL     1      25.936   5.077  49.025  1.00  0.00     0.226 C 
BRANCH  18  19
HETATM   19  C5  UNL     1      25.467   4.234  50.190  1.00  0.00     0.061 A 
HETATM   20  C6  UNL     1      26.384   3.306  50.683  1.00  0.00     0.061 A 
HETATM   21  C7  UNL     1      26.044   2.524  51.754  1.00  0.00     0.070 A 
HETATM   22  N1  UNL     1      24.829   2.671  52.305  1.00  0.00    -0.241 NA
HETATM   23  C14 UNL     1      23.932   3.574  51.827  1.00  0.00     0.234 A 
HETATM   24  N2  UNL     1      24.266   4.353  50.765  1.00  0.00    -0.244 NA
BRANCH  21  25
HETATM   25  C8  UNL     1      26.946   1.546  52.331  1.00  0.00    -0.005 A 
HETATM   26  C9  UNL     1      28.096   1.909  53.050  1.00  0.00     0.017 A 
HETATM   27  C10 UNL     1      28.905   0.925  53.567  1.00  0.00     0.045 A 
HETATM   28  C11 UNL     1      28.703  -0.433  53.452  1.00  0.00     0.138 A 
HETATM   29  F1  UNL     1      29.523  -1.370  53.975  1.00  0.00    -0.204 F 
HETATM   30  C12 UNL     1      27.545  -0.770  52.731  1.00  0.00     0.073 A 
HETATM   31 CL1  UNL     1      27.249  -2.493  52.565  1.00  0.00    -0.081 Cl
HETATM   32  C13 UNL     1      26.726   0.191  52.207  1.00  0.00     0.040 A 
ENDBRANCH  21  25
ENDBRANCH  18  19
ENDBRANCH  17  18
ENDBRANCH   1  17
TORSDOF 9
ENDMDL
MODEL 2
REMARK VINA RESULT:      -8.2      3.081      3.650
REMARK  9 active torsions:
REMARK  status: ('A' for Active; 'I' for Inactive)
REMARK    1  A    between atoms: C2_2  and  C3_3 
REMARK    2  A    between atoms: C2_2  and  O2_20 
REMARK    3  A    between atoms: C3_3  and  O1_4 
REMARK    4  A    between atoms: O1_4  and  C4_5 
REMARK    5  A    between atoms: C4_5  and  C5_6 
REMARK    6  A    between atoms: C7_8  and  C8_9 
REMARK    7  A    between atoms: O2_20  and  C15_21 
REMARK    8  A    between atoms: C15_21  and  C16_22 
REMARK    9  A    between atoms: C20_28  and  N5_29 
ROOT
HETATM    1  C3  UNL     1      27.284   5.121  48.910  1.00  0.00     0.209 C 
ENDROOT
BRANCH   1   2
HETATM    2  C2  UNL     1      28.480   5.614  48.230  1.00  0.00     0.115 C 
HETATM    3  C1  UNL     1      28.734   6.753  47.644  1.00  0.00     0.047 C 
BRANCH   2   4
HETATM    4  O2  UNL     1      29.614   4.813  48.132  1.00  0.00    -0.372 OA
BRANCH   4   5
HETATM    5  C15 UNL     1      30.843   5.475  47.784  1.00  0.00     0.208 C 
BRANCH   5   6
HETATM    6  C16 UNL     1      32.002   4.655  48.326  1.00  0.00     0.307 C 
HETATM    7  N3  UNL     1      32.890   5.419  49.102  1.00  0.00     0.096 N 
HETATM    8  C17 UNL     1      34.186   5.677  48.576  1.00  0.00     0.300 C 
HETATM    9  H15 UNL     1      32.918   5.140  50.112  1.00  0.00     0.316 HD
HETATM   10  C18 UNL     1      34.682   4.728  47.559  1.00  0.00     0.304 C 
HETATM   11  N4  UNL     1      33.703   4.428  46.543  1.00  0.00     0.121 N 
HETATM   12  C19 UNL     1      33.409   5.569  45.748  1.00  0.00     0.312 C 
HETATM   13  C20 UNL     1      32.587   3.841  47.238  1.00  0.00     0.485 C 
BRANCH  13  14
HETATM   14  N5  UNL     1      31.580   3.325  46.341  1.00  0.00     0.114 N 
HETATM   15  H24 UNL     1      31.731   2.332  46.066  1.00  0.00     0.315 HD
HETATM   16  H25 UNL     1      31.489   3.875  45.456  1.00  0.00     0.315 HD
ENDBRANCH  13  14
ENDBRANCH   5   6
ENDBRANCH   4   5
ENDBRANCH   2   4
ENDBRANCH   1   2
BRANCH   1  17
HETATM   17  O1  UNL     1      27.419   3.953  49.593  1.00  0.00    -0.382 OA
BRANCH  17  18
HETATM   18  C4  UNL     1      26.258   3.221  49.691  1.00  0.00     0.226 C 
BRANCH  18  19
HETATM   19  C5  UNL     1      26.298   2.547  51.044  1.00  0.00     0.061 A 
HETATM   20  C6  UNL     1      25.146   1.857  51.419  1.00  0.00     0.061 A 
HETATM   21  C7  UNL     1      25.113   1.198  52.618  1.00  0.00     0.070 A 
HETATM   22  N1  UNL     1      26.199   1.233  53.408  1.00  0.00    -0.241 NA
HETATM   23  C14 UNL     1      27.323   1.904  53.045  1.00  0.00     0.234 A 
HETATM   24  N2  UNL     1      27.360   2.559  51.855  1.00  0.00    -0.244 NA
BRANCH  21  25
HETATM   25  C8  UNL     1      23.957   0.450  53.073  1.00  0.00    -0.005 A 
HETATM   26  C9  UNL     1      24.024  -0.486  54.119  1.00  0.00     0.017 A 
HETATM   27  C10 UNL     1      22.886  -1.157  54.494  1.00  0.00     0.045 A 
HETATM   28  C11 UNL     1      21.635  -1.009  53.935  1.00  0.00     0.138 A 
HETATM   29  F1  UNL     1      20.539  -1.690  54.333  1.00  0.00    -0.204 F 
HETATM   30  C12 UNL     1      21.594  -0.067  52.894  1.00  0.00     0.073 A 
HETATM   31 CL1  UNL     1      20.016   0.155  52.156  1.00  0.00    -0.081 Cl
HETATM   32  C13 UNL     1      22.714   0.613  52.502  1.00  0.00     0.040 A 
ENDBRANCH  21  25
ENDBRANCH  18  19
ENDBRANCH  17  18
ENDBRANCH   1  17
TORSDOF 9
ENDMDL
MODEL 3
REMARK VINA RESULT:      -8.0      3.618      8.013
REMARK  9 active torsions:
REMARK  status: ('A' for Active; 'I' for Inactive)
REMARK    1  A    between atoms: C2_2  and  C3_3 
REMARK    2  A    between atoms: C2_2  and  O2_20 
REMARK    3  A    between atoms: C3_3  and  O1_4 
REMARK    4  A    between atoms: O1_4  and  C4_5 
REMARK    5  A    between atoms: C4_5  and  C5_6 
REMARK    6  A    between atoms: C7_8  and  C8_9 
REMARK    7  A    between atoms: O2_20  and  C15_21 
REMARK    8  A    between atoms: C15_21  and  C16_22 
REMARK    9  A    between atoms: C20_28  and  N5_29 
ROOT
HETATM    1  C3  UNL     1      26.410   3.236  49.488  1.00  0.00     0.209 C 
ENDROOT
BRANCH   1   2
HETATM    2  C2  UNL     1      25.316   3.322  50.455  1.00  0.00     0.115 C 
HETATM    3  C1  UNL     1      24.100   3.783  50.345  1.00  0.00     0.047 C 
BRANCH   2   4
HETATM    4  O2  UNL     1      25.488   2.853  51.755  1.00  0.00    -0.372 OA
BRANCH   4   5
HETATM    5  C15 UNL     1      26.667   2.069  52.006  1.00  0.00     0.208 C 
BRANCH   5   6
HETATM    6  C16 UNL     1      26.955   2.097  53.498  1.00  0.00     0.307 C 
HETATM    7  N3  UNL     1      28.262   2.519  53.790  1.00  0.00     0.096 N 
HETATM    8  C17 UNL     1      29.176   1.559  54.306  1.00  0.00     0.300 C 
HETATM    9  H15 UNL     1      28.309   3.431  54.306  1.00  0.00     0.316 HD
HETATM   10  C18 UNL     1      28.583   0.386  54.980  1.00  0.00     0.304 C 
HETATM   11  N4  UNL     1      27.496  -0.202  54.236  1.00  0.00     0.121 N 
HETATM   12  C19 UNL     1      27.949  -0.774  53.015  1.00  0.00     0.312 C 
HETATM   13  C20 UNL     1      26.502   0.831  54.116  1.00  0.00     0.485 C 
BRANCH  13  14
HETATM   14  N5  UNL     1      25.268   0.354  53.539  1.00  0.00     0.114 N 
HETATM   15  H24 UNL     1      24.417   0.812  53.927  1.00  0.00     0.315 HD
HETATM   16  H25 UNL     1      25.130  -0.678  53.644  1.00  0.00     0.315 HD
ENDBRANCH  13  14
ENDBRANCH   5   6
ENDBRANCH   4   5
ENDBRANCH   2   4
ENDBRANCH   1   2
BRANCH   1  17
HETATM   17  O1  UNL     1      27.281   4.281  49.472  1.00  0.00    -0.382 OA
BRANCH  17  18
HETATM   18  C4  UNL     1      26.839   5.371  48.760  1.00  0.00     0.226 C 
BRANCH  18  19
HETATM   19  C5  UNL     1      28.078   6.092  48.280  1.00  0.00     0.061 A 
HETATM   20  C6  UNL     1      29.249   5.336  48.233  1.00  0.00     0.061 A 
HETATM   21  C7  UNL     1      30.407   5.910  47.785  1.00  0.00     0.070 A 
HETATM   22  N1  UNL     1      30.387   7.196  47.400  1.00  0.00    -0.241 NA
HETATM   23  C14 UNL     1      29.249   7.937  47.445  1.00  0.00     0.234 A 
HETATM   24  N2  UNL     1      28.096   7.370  47.888  1.00  0.00    -0.244 NA
BRANCH  21  25
HETATM   25  C8  UNL     1      31.661   5.186  47.696  1.00  0.00    -0.005 A 
HETATM   26  C9  UNL     1      31.781   3.962  47.017  1.00  0.00     0.017 A 
HETATM   27  C10 UNL     1      33.002   3.333  46.976  1.00  0.00     0.045 A 
HETATM   28  C11 UNL     1      34.168   3.789  47.551  1.00  0.00     0.138 A 
HETATM   29  F1  UNL     1      35.351   3.140  47.488  1.00  0.00    -0.204 F 
HETATM   30  C12 UNL     1      34.023   5.015  48.221  1.00  0.00     0.073 A 
HETATM   31 CL1  UNL     1      35.489   5.634  48.964  1.00  0.00    -0.081 Cl
HETATM   32  C13 UNL     1      32.817   5.659  48.276  1.00  0.00     0.040 A 
ENDBRANCH  21  25
ENDBRANCH  18  19
ENDBRANCH  17  18
ENDBRANCH   1  17
TORSDOF 9
ENDMDL
MODEL 4
REMARK VINA RESULT:      -7.9      4.869      8.282
REMARK  9 active torsions:
REMARK  status: ('A' for Active; 'I' for Inactive)
REMARK    1  A    between atoms: C2_2  and  C3_3 
REMARK    2  A    between atoms: C2_2  and  O2_20 
REMARK    3  A    between atoms: C3_3  and  O1_4 
REMARK    4  A    between atoms: O1_4  and  C4_5 
REMARK    5  A    between atoms: C4_5  and  C5_6 
REMARK    6  A    between atoms: C7_8  and  C8_9 
REMARK    7  A    between atoms: O2_20  and  C15_21 
REMARK    8  A    between atoms: C15_21  and  C16_22 
REMARK    9  A    between atoms: C20_28  and  N5_29 
ROOT
HETATM    1  C3  UNL     1      23.631   3.480  51.977  1.00  0.00     0.209 C 
ENDROOT
BRANCH   1   2
HETATM    2  C2  UNL     1      23.338   2.097  52.348  1.00  0.00     0.115 C 
HETATM    3  C1  UNL     1      22.434   1.259  51.917  1.00  0.00     0.047 C 
BRANCH   2   4
HETATM    4  O2  UNL     1      24.100   1.453  53.320  1.00  0.00    -0.372 OA
BRANCH   4   5
HETATM    5  C15 UNL     1      25.465   1.158  52.978  1.00  0.00     0.208 C 
BRANCH   5   6
HETATM    6  C16 UNL     1      26.353   1.575  54.138  1.00  0.00     0.307 C 
HETATM    7  N3  UNL     1      27.313   2.532  53.769  1.00  0.00     0.096 N 
HETATM    8  C17 UNL     1      28.677   2.133  53.735  1.00  0.00     0.300 C 
HETATM    9  H15 UNL     1      27.182   3.465  54.231  1.00  0.00     0.316 HD
HETATM   10  C18 UNL     1      29.041   0.968  54.567  1.00  0.00     0.304 C 
HETATM   11  N4  UNL     1      28.120  -0.133  54.428  1.00  0.00     0.121 N 
HETATM   12  C19 UNL     1      28.168  -0.691  53.120  1.00  0.00     0.312 C 
HETATM   13  C20 UNL     1      26.840   0.373  54.849  1.00  0.00     0.485 C 
BRANCH  13  14
HETATM   14  N5  UNL     1      25.832  -0.657  54.932  1.00  0.00     0.114 N 
HETATM   15  H24 UNL     1      24.942  -0.415  54.448  1.00  0.00     0.315 HD
HETATM   16  H25 UNL     1      25.582  -0.918  55.914  1.00  0.00     0.315 HD
ENDBRANCH  13  14
ENDBRANCH   5   6
ENDBRANCH   4   5
ENDBRANCH   2   4
ENDBRANCH   1   2
BRANCH   1  17
HETATM   17  O1  UNL     1      23.532   3.782  50.654  1.00  0.00    -0.382 OA
BRANCH  17  18
HETATM   18  C4  UNL     1      24.666   3.507  49.928  1.00  0.00     0.226 C 
BRANCH  18  19
HETATM   19  C5  UNL     1      25.089   4.814  49.296  1.00  0.00     0.061 A 
HETATM   20  C6  UNL     1      26.455   4.965  49.053  1.00  0.00     0.061 A 
HETATM   21  C7  UNL     1      26.913   6.109  48.460  1.00  0.00     0.070 A 
HETATM   22  N1  UNL     1      26.032   7.065  48.124  1.00  0.00    -0.241 NA
HETATM   23  C14 UNL     1      24.701   6.922  48.360  1.00  0.00     0.234 A 
HETATM   24  N2  UNL     1      24.241   5.787  48.948  1.00  0.00    -0.244 NA
BRANCH  21  25
HETATM   25  C8  UNL     1      28.315   6.334  48.164  1.00  0.00    -0.005 A 
HETATM   26  C9  UNL     1      29.269   5.303  48.192  1.00  0.00     0.017 A 
HETATM   27  C10 UNL     1      30.581   5.593  47.902  1.00  0.00     0.045 A 
HETATM   28  C11 UNL     1      31.083   6.834  47.573  1.00  0.00     0.138 A 
HETATM   29  F1  UNL     1      32.382   7.078  47.294  1.00  0.00    -0.204 F 
HETATM   30  C12 UNL     1      30.110   7.846  47.549  1.00  0.00     0.073 A 
HETATM   31 CL1  UNL     1      30.709   9.443  47.131  1.00  0.00    -0.081 Cl
HETATM   32  C13 UNL     1      28.799   7.582  47.836  1.00  0.00     0.040 A 
ENDBRANCH  21  25
ENDBRANCH  18  19
ENDBRANCH  17  18
ENDBRANCH   1  17
TORSDOF 9
ENDMDL
MODEL 5
REMARK VINA RESULT:      -7.8      5.502      8.080
REMARK  9 active torsions:
REMARK  status: ('A' for Active; 'I' for Inactive)
REMARK    1  A    between atoms: C2_2  and  C3_3 
REMARK    2  A    between atoms: C2_2  and  O2_20 
REMARK    3  A    between atoms: C3_3  and  O1_4 
REMARK    4  A    between atoms: O1_4  and  C4_5 
REMARK    5  A    between atoms: C4_5  and  C5_6 
REMARK    6  A    between atoms: C7_8  and  C8_9 
REMARK    7  A    between atoms: O2_20  and  C15_21 
REMARK    8  A    between atoms: C15_21  and  C16_22 
REMARK    9  A    between atoms: C20_28  and  N5_29 
ROOT
HETATM    1  C3  UNL     1      21.912   0.064  53.517  1.00  0.00     0.209 C 
ENDROOT
BRANCH   1   2
HETATM    2  C2  UNL     1      23.188  -0.473  53.986  1.00  0.00     0.115 C 
HETATM    3  C1  UNL     1      23.482  -1.238  55.002  1.00  0.00     0.047 C 
BRANCH   2   4
HETATM    4  O2  UNL     1      24.366  -0.188  53.301  1.00  0.00    -0.372 OA
BRANCH   4   5
HETATM    5  C15 UNL     1      25.592  -0.599  53.930  1.00  0.00     0.208 C 
BRANCH   5   6
HETATM    6  C16 UNL     1      26.646  -0.790  52.852  1.00  0.00     0.307 C 
HETATM    7  N3  UNL     1      27.247  -2.059  52.899  1.00  0.00     0.096 N 
HETATM    8  C17 UNL     1      28.606  -2.141  53.310  1.00  0.00     0.300 C 
HETATM    9  H15 UNL     1      27.047  -2.654  52.060  1.00  0.00     0.316 HD
HETATM   10  C18 UNL     1      29.417  -0.917  53.142  1.00  0.00     0.304 C 
HETATM   11  N4  UNL     1      28.748   0.271  53.614  1.00  0.00     0.121 N 
HETATM   12  C19 UNL     1      28.565   0.241  55.023  1.00  0.00     0.312 C 
HETATM   13  C20 UNL     1      27.548   0.382  52.826  1.00  0.00     0.485 C 
BRANCH  13  14
HETATM   14  N5  UNL     1      26.841   1.620  53.057  1.00  0.00     0.114 N 
HETATM   15  H24 UNL     1      26.685   2.182  52.195  1.00  0.00     0.315 HD
HETATM   16  H25 UNL     1      27.316   2.248  53.747  1.00  0.00     0.315 HD
ENDBRANCH  13  14
ENDBRANCH   5   6
ENDBRANCH   4   5
ENDBRANCH   2   4
ENDBRANCH   1   2
BRANCH   1  17
HETATM   17  O1  UNL     1      21.982   1.073  52.607  1.00  0.00    -0.382 OA
BRANCH  17  18
HETATM   18  C4  UNL     1      20.905   1.928  52.630  1.00  0.00     0.226 C 
BRANCH  18  19
HETATM   19  C5  UNL     1      21.319   3.149  51.840  1.00  0.00     0.061 A 
HETATM   20  C6  UNL     1      22.625   3.149  51.351  1.00  0.00     0.061 A 
HETATM   21  C7  UNL     1      23.066   4.208  50.604  1.00  0.00     0.070 A 
HETATM   22  N1  UNL     1      22.225   5.225  50.360  1.00  0.00    -0.241 NA
HETATM   23  C14 UNL     1      20.952   5.229  50.835  1.00  0.00     0.234 A 
HETATM   24  N2  UNL     1      20.510   4.179  51.576  1.00  0.00    -0.244 NA
BRANCH  21  25
HETATM   25  C8  UNL     1      24.406   4.276  50.052  1.00  0.00    -0.005 A 
HETATM   26  C9  UNL     1      25.316   3.210  50.142  1.00  0.00     0.017 A 
HETATM   27  C10 UNL     1      26.569   3.348  49.595  1.00  0.00     0.045 A 
HETATM   28  C11 UNL     1      27.050   4.462  48.942  1.00  0.00     0.138 A 
HETATM   29  F1  UNL     1      28.291   4.559  48.418  1.00  0.00    -0.204 F 
HETATM   30  C12 UNL     1      26.120   5.513  48.863  1.00  0.00     0.073 A 
HETATM   31 CL1  UNL     1      26.693   6.951  48.034  1.00  0.00    -0.081 Cl
HETATM   32  C13 UNL     1      24.868   5.398  49.400  1.00  0.00     0.040 A 
ENDBRANCH  21  25
ENDBRANCH  18  19
ENDBRANCH  17  18
ENDBRANCH   1  17
TORSDOF 9
ENDMDL
MODEL 6
REMARK VINA RESULT:      -7.7      5.511      7.048
REMARK  9 active torsions:
REMARK  status: ('A' for Active; 'I' for Inactive)
REMARK    1  A    between atoms: C2_2  and  C3_3 
REMARK    2  A    between atoms: C2_2  and  O2_20 
REMARK    3  A    between atoms: C3_3  and  O1_4 
REMARK    4  A    between atoms: O1_4  and  C4_5 
REMARK    5  A    between atoms: C4_5  and  C5_6 
REMARK    6  A    between atoms: C7_8  and  C8_9 
REMARK    7  A    between atoms: O2_20  and  C15_21 
REMARK    8  A    between atoms: C15_21  and  C16_22 
REMARK    9  A    between atoms: C20_28  and  N5_29 
ROOT
HETATM    1  C3  UNL     1      22.583   2.586  49.516  1.00  0.00     0.209 C 
ENDROOT
BRANCH   1   2
HETATM    2  C2  UNL     1      23.712   3.444  49.871  1.00  0.00     0.115 C 
HETATM    3  C1  UNL     1      24.995   3.316  49.660  1.00  0.00     0.047 C 
BRANCH   2   4
HETATM    4  O2  UNL     1      23.501   4.639  50.552  1.00  0.00    -0.372 OA
BRANCH   4   5
HETATM    5  C15 UNL     1      24.668   5.425  50.851  1.00  0.00     0.208 C 
BRANCH   5   6
HETATM    6  C16 UNL     1      24.228   6.849  51.144  1.00  0.00     0.307 C 
HETATM    7  N3  UNL     1      22.831   6.990  51.173  1.00  0.00     0.096 N 
HETATM    8  C17 UNL     1      22.210   7.721  50.123  1.00  0.00     0.300 C 
HETATM    9  H15 UNL     1      22.449   7.246  52.116  1.00  0.00     0.316 HD
HETATM   10  C18 UNL     1      23.062   8.694  49.409  1.00  0.00     0.304 C 
HETATM   11  N4  UNL     1      24.351   8.156  49.047  1.00  0.00     0.121 N 
HETATM   12  C19 UNL     1      24.230   7.120  48.081  1.00  0.00     0.312 C 
HETATM   13  C20 UNL     1      24.983   7.789  50.287  1.00  0.00     0.485 C 
BRANCH  13  14
HETATM   14  N5  UNL     1      26.358   7.387  50.115  1.00  0.00     0.114 N 
HETATM   15  H24 UNL     1      26.732   7.564  49.160  1.00  0.00     0.315 HD
HETATM   16  H25 UNL     1      26.525   6.375  50.322  1.00  0.00     0.315 HD
ENDBRANCH  13  14
ENDBRANCH   5   6
ENDBRANCH   4   5
ENDBRANCH   2   4
ENDBRANCH   1   2
BRANCH   1  17
HETATM   17  O1  UNL     1      22.476   1.417  50.203  1.00  0.00    -0.382 OA
BRANCH  17  18
HETATM   18  C4  UNL     1      21.716   1.504  51.346  1.00  0.00     0.226 C 
BRANCH  18  19
HETATM   19  C5  UNL     1      22.419   0.659  52.384  1.00  0.00     0.061 A 
HETATM   20  C6  UNL     1      23.813   0.669  52.342  1.00  0.00     0.061 A 
HETATM   21  C7  UNL     1      24.522  -0.050  53.266  1.00  0.00     0.070 A 
HETATM   22  N1  UNL     1      23.853  -0.752  54.195  1.00  0.00    -0.241 NA
HETATM   23  C14 UNL     1      22.494  -0.764  54.239  1.00  0.00     0.234 A 
HETATM   24  N2  UNL     1      21.787  -0.051  53.324  1.00  0.00    -0.244 NA
BRANCH  21  25
HETATM   25  C8  UNL     1      25.972  -0.081  53.295  1.00  0.00    -0.005 A 
HETATM   26  C9  UNL     1      26.708  -1.258  53.084  1.00  0.00     0.017 A 
HETATM   27  C10 UNL     1      28.080  -1.210  53.127  1.00  0.00     0.045 A 
HETATM   28  C11 UNL     1      28.845  -0.087  53.363  1.00  0.00     0.138 A 
HETATM   29  F1  UNL     1      30.195  -0.081  53.398  1.00  0.00    -0.204 F 
HETATM   30  C12 UNL     1      28.085   1.077  53.568  1.00  0.00     0.073 A 
HETATM   31 CL1  UNL     1      29.023   2.531  53.868  1.00  0.00    -0.081 Cl
HETATM   32  C13 UNL     1      26.719   1.052  53.531  1.00  0.00     0.040 A 
ENDBRANCH  21  25
ENDBRANCH  18  19
ENDBRANCH  17  18
ENDBRANCH   1  17
TORSDOF 9
ENDMDL
MODEL 7
REMARK VINA RESULT:      -7.7      1.909      2.797
REMARK  9 active torsions:
REMARK  status: ('A' for Active; 'I' for Inactive)
REMARK    1  A    between atoms: C2_2  and  C3_3 
REMARK    2  A    between atoms: C2_2  and  O2_20 
REMARK    3  A    between atoms: C3_3  and  O1_4 
REMARK    4  A    between atoms: O1_4  and  C4_5 
REMARK    5  A    between atoms: C4_5  and  C5_6 
REMARK    6  A    between atoms: C7_8  and  C8_9 
REMARK    7  A    between atoms: O2_20  and  C15_21 
REMARK    8  A    between atoms: C15_21  and  C16_22 
REMARK    9  A    between atoms: C20_28  and  N5_29 
ROOT
HETATM    1  C3  UNL     1      29.522   6.953  47.692  1.00  0.00     0.209 C 
ENDROOT
BRANCH   1   2
HETATM    2  C2  UNL     1      30.880   6.991  48.232  1.00  0.00     0.115 C 
HETATM    3  C1  UNL     1      31.370   7.564  49.298  1.00  0.00     0.047 C 
BRANCH   2   4
HETATM    4  O2  UNL     1      31.916   6.331  47.578  1.00  0.00    -0.372 OA
BRANCH   4   5
HETATM    5  C15 UNL     1      33.050   5.957  48.380  1.00  0.00     0.208 C 
BRANCH   5   6
HETATM    6  C16 UNL     1      34.250   5.780  47.465  1.00  0.00     0.307 C 
HETATM    7  N3  UNL     1      33.895   5.735  46.107  1.00  0.00     0.096 N 
HETATM    8  C17 UNL     1      34.027   4.496  45.421  1.00  0.00     0.300 C 
HETATM    9  H15 UNL     1      34.259   6.542  45.546  1.00  0.00     0.316 HD
HETATM   10  C18 UNL     1      34.988   3.530  45.992  1.00  0.00     0.304 C 
HETATM   11  N4  UNL     1      34.855   3.381  47.420  1.00  0.00     0.121 N 
HETATM   12  C19 UNL     1      33.612   2.786  47.769  1.00  0.00     0.312 C 
HETATM   13  C20 UNL     1      35.106   4.686  47.974  1.00  0.00     0.485 C 
BRANCH  13  14
HETATM   14  N5  UNL     1      35.178   4.676  49.416  1.00  0.00     0.114 N 
HETATM   15  H24 UNL     1      34.417   5.214  49.879  1.00  0.00     0.315 HD
HETATM   16  H25 UNL     1      36.082   5.047  49.790  1.00  0.00     0.315 HD
ENDBRANCH  13  14
ENDBRANCH   5   6
ENDBRANCH   4   5
ENDBRANCH   2   4
ENDBRANCH   1   2
BRANCH   1  17
HETATM   17  O1  UNL     1      28.557   6.475  48.524  1.00  0.00    -0.382 OA
BRANCH  17  18
HETATM   18  C4  UNL     1      28.294   5.134  48.369  1.00  0.00     0.226 C 
BRANCH  18  19
HETATM   19  C5  UNL     1      26.922   4.903  48.960  1.00  0.00     0.061 A 
HETATM   20  C6  UNL     1      26.785   3.776  49.771  1.00  0.00     0.061 A 
HETATM   21  C7  UNL     1      25.580   3.513  50.364  1.00  0.00     0.070 A 
HETATM   22  N1  UNL     1      24.554   4.351  50.150  1.00  0.00    -0.241 NA
HETATM   23  C14 UNL     1      24.683   5.450  49.360  1.00  0.00     0.234 A 
HETATM   24  N2  UNL     1      25.878   5.716  48.770  1.00  0.00    -0.244 NA
BRANCH  21  25
HETATM   25  C8  UNL     1      25.363   2.369  51.229  1.00  0.00    -0.005 A 
HETATM   26  C9  UNL     1      24.104   2.056  51.768  1.00  0.00     0.017 A 
HETATM   27  C10 UNL     1      23.976   0.956  52.581  1.00  0.00     0.045 A 
HETATM   28  C11 UNL     1      24.987   0.090  52.939  1.00  0.00     0.138 A 
HETATM   29  F1  UNL     1      24.819  -0.983  53.742  1.00  0.00    -0.204 F 
HETATM   30  C12 UNL     1      26.234   0.422  52.385  1.00  0.00     0.073 A 
HETATM   31 CL1  UNL     1      27.549  -0.659  52.814  1.00  0.00    -0.081 Cl
HETATM   32  C13 UNL     1      26.386   1.513  51.574  1.00  0.00     0.040 A 
ENDBRANCH  21  25
ENDBRANCH  18  19
ENDBRANCH  17  18
ENDBRANCH   1  17
TORSDOF 9
ENDMDL
MODEL 8
REMARK VINA RESULT:      -7.6      4.938      6.168
REMARK  9 active torsions:
REMARK  status: ('A' for Active; 'I' for Inactive)
REMARK    1  A    between atoms: C2_2  and  C3_3 
REMARK    2  A    between atoms: C2_2  and  O2_20 
REMARK    3  A    between atoms: C3_3  and  O1_4 
REMARK    4  A    between atoms: O1_4  and  C4_5 
REMARK    5  A    between atoms: C4_5  and  C5_6 
REMARK    6  A    between atoms: C7_8  and  C8_9 
REMARK    7  A    between atoms: O2_20  and  C15_21 
REMARK    8  A    between atoms: C15_21  and  C16_22 
REMARK    9  A    between atoms: C20_28  and  N5_29 
ROOT
HETATM    1  C3  UNL     1      21.994   3.854  51.300  1.00  0.00     0.209 C 
ENDROOT
BRANCH   1   2
HETATM    2  C2  UNL     1      22.819   4.758  52.099  1.00  0.00     0.115 C 
HETATM    3  C1  UNL     1      23.601   4.540  53.121  1.00  0.00     0.047 C 
BRANCH   2   4
HETATM    4  O2  UNL     1      22.859   6.119  51.804  1.00  0.00    -0.372 OA
BRANCH   4   5
HETATM    5  C15 UNL     1      23.419   6.486  50.531  1.00  0.00     0.208 C 
BRANCH   5   6
HETATM    6  C16 UNL     1      24.924   6.288  50.592  1.00  0.00     0.307 C 
HETATM    7  N3  UNL     1      25.605   7.435  51.032  1.00  0.00     0.096 N 
HETATM    8  C17 UNL     1      26.404   8.141  50.091  1.00  0.00     0.300 C 
HETATM    9  H15 UNL     1      26.089   7.314  51.954  1.00  0.00     0.316 HD
HETATM   10  C18 UNL     1      26.882   7.368  48.926  1.00  0.00     0.304 C 
HETATM   11  N4  UNL     1      25.845   6.574  48.313  1.00  0.00     0.121 N 
HETATM   12  C19 UNL     1      24.843   7.391  47.722  1.00  0.00     0.312 C 
HETATM   13  C20 UNL     1      25.394   5.666  49.335  1.00  0.00     0.485 C 
BRANCH  13  14
HETATM   14  N5  UNL     1      24.467   4.678  48.835  1.00  0.00     0.114 N 
HETATM   15  H24 UNL     1      24.408   4.646  47.796  1.00  0.00     0.315 HD
HETATM   16  H25 UNL     1      23.492   4.806  49.190  1.00  0.00     0.315 HD
ENDBRANCH  13  14
ENDBRANCH   5   6
ENDBRANCH   4   5
ENDBRANCH   2   4
ENDBRANCH   1   2
BRANCH   1  17
HETATM   17  O1  UNL     1      22.661   2.997  50.481  1.00  0.00    -0.382 OA
BRANCH  17  18
HETATM   18  C4  UNL     1      22.153   1.719  50.470  1.00  0.00     0.226 C 
BRANCH  18  19
HETATM   19  C5  UNL     1      22.730   1.026  51.683  1.00  0.00     0.061 A 
HETATM   20  C6  UNL     1      24.121   1.028  51.788  1.00  0.00     0.061 A 
HETATM   21  C7  UNL     1      24.718   0.444  52.872  1.00  0.00     0.070 A 
HETATM   22  N1  UNL     1      23.944  -0.121  53.813  1.00  0.00    -0.241 NA
HETATM   23  C14 UNL     1      22.589  -0.126  53.714  1.00  0.00     0.234 A 
HETATM   24  N2  UNL     1      21.992   0.454  52.640  1.00  0.00    -0.244 NA
BRANCH  21  25
HETATM   25  C8  UNL     1      26.156   0.416  53.058  1.00  0.00    -0.005 A 
HETATM   26  C9  UNL     1      26.917   1.582  53.247  1.00  0.00     0.017 A 
HETATM   27  C10 UNL     1      28.276   1.477  53.415  1.00  0.00     0.045 A 
HETATM   28  C11 UNL     1      29.005   0.307  53.419  1.00  0.00     0.138 A 
HETATM   29  F1  UNL     1      30.343   0.246  53.587  1.00  0.00    -0.204 F 
HETATM   30  C12 UNL     1      28.221  -0.844  53.230  1.00  0.00     0.073 A 
HETATM   31 CL1  UNL     1      29.112  -2.357  53.232  1.00  0.00    -0.081 Cl
HETATM   32  C13 UNL     1      26.867  -0.764  53.060  1.00  0.00     0.040 A 
ENDBRANCH  21  25
ENDBRANCH  18  19
ENDBRANCH  17  18
ENDBRANCH   1  17
TORSDOF 9
ENDMDL
MODEL 9
REMARK VINA RESULT:      -7.6      5.845      7.895
REMARK  9 active torsions:
REMARK  status: ('A' for Active; 'I' for Inactive)
REMARK    1  A    between atoms: C2_2  and  C3_3 
REMARK    2  A    between atoms: C2_2  and  O2_20 
REMARK    3  A    between atoms: C3_3  and  O1_4 
REMARK    4  A    between atoms: O1_4  and  C4_5 
REMARK    5  A    between atoms: C4_5  and  C5_6 
REMARK    6  A    between atoms: C7_8  and  C8_9 
REMARK    7  A    between atoms: O2_20  and  C15_21 
REMARK    8  A    between atoms: C15_21  and  C16_22 
REMARK    9  A    between atoms: C20_28  and  N5_29 
ROOT
HETATM    1  C3  UNL     1      20.470   2.755  52.500  1.00  0.00     0.209 C 
ENDROOT
BRANCH   1   2
HETATM    2  C2  UNL     1      19.812   3.679  51.577  1.00  0.00     0.115 C 
HETATM    3  C1  UNL     1      18.553   3.979  51.405  1.00  0.00     0.047 C 
BRANCH   2   4
HETATM    4  O2  UNL     1      20.565   4.430  50.678  1.00  0.00    -0.372 OA
BRANCH   4   5
HETATM    5  C15 UNL     1      21.581   5.278  51.241  1.00  0.00     0.208 C 
BRANCH   5   6
HETATM    6  C16 UNL     1      22.617   5.566  50.167  1.00  0.00     0.307 C 
HETATM    7  N3  UNL     1      22.514   4.698  49.067  1.00  0.00     0.096 N 
HETATM    8  C17 UNL     1      23.548   3.742  48.871  1.00  0.00     0.300 C 
HETATM    9  H15 UNL     1      22.236   5.173  48.175  1.00  0.00     0.316 HD
HETATM   10  C18 UNL     1      24.859   4.061  49.474  1.00  0.00     0.304 C 
HETATM   11  N4  UNL     1      24.755   4.519  50.838  1.00  0.00     0.121 N 
HETATM   12  C19 UNL     1      24.289   3.489  51.700  1.00  0.00     0.312 C 
HETATM   13  C20 UNL     1      23.951   5.712  50.789  1.00  0.00     0.485 C 
BRANCH  13  14
HETATM   14  N5  UNL     1      23.889   6.396  52.058  1.00  0.00     0.114 N 
HETATM   15  H24 UNL     1      24.812   6.740  52.396  1.00  0.00     0.315 HD
HETATM   16  H25 UNL     1      23.483   5.813  52.826  1.00  0.00     0.315 HD
ENDBRANCH  13  14
ENDBRANCH   5   6
ENDBRANCH   4   5
ENDBRANCH   2   4
ENDBRANCH   1   2
BRANCH   1  17
HETATM   17  O1  UNL     1      20.220   1.432  52.305  1.00  0.00    -0.382 OA
BRANCH  17  18
HETATM   18  C4  UNL     1      21.223   0.760  51.646  1.00  0.00     0.226 C 
BRANCH  18  19
HETATM   19  C5  UNL     1      22.064   0.103  52.717  1.00  0.00     0.061 A 
HETATM   20  C6  UNL     1      23.447   0.203  52.558  1.00  0.00     0.061 A 
HETATM   21  C7  UNL     1      24.276  -0.344  53.499  1.00  0.00     0.070 A 
HETATM   22  N1  UNL     1      23.735  -0.966  54.559  1.00  0.00    -0.241 NA
HETATM   23  C14 UNL     1      22.389  -1.066  54.717  1.00  0.00     0.234 A 
HETATM   24  N2  UNL     1      21.561  -0.524  53.785  1.00  0.00    -0.244 NA
BRANCH  21  25
HETATM   25  C8  UNL     1      25.722  -0.272  53.410  1.00  0.00    -0.005 A 
HETATM   26  C9  UNL     1      26.519  -1.390  53.113  1.00  0.00     0.017 A 
HETATM   27  C10 UNL     1      27.883  -1.245  53.047  1.00  0.00     0.045 A 
HETATM   28  C11 UNL     1      28.584  -0.075  53.247  1.00  0.00     0.138 A 
HETATM   29  F1  UNL     1      29.929   0.026  53.173  1.00  0.00    -0.204 F 
HETATM   30  C12 UNL     1      27.766   1.028  53.540  1.00  0.00     0.073 A 
HETATM   31 CL1  UNL     1      28.621   2.540  53.798  1.00  0.00    -0.081 Cl
HETATM   32  C13 UNL     1      26.405   0.907  53.612  1.00  0.00     0.040 A 
ENDBRANCH  21  25
ENDBRANCH  18  19
ENDBRANCH  17  18
ENDBRANCH   1  17
TORSDOF 9
ENDMDL
