MODEL 1
REMARK VINA RESULT:      -9.8      0.000      0.000
REMARK  6 active torsions:
REMARK  status: ('A' for Active; 'I' for Inactive)
REMARK    1  A    between atoms: C7_8  and  N1_9 
REMARK    2  A    between atoms: N1_9  and  C8_10 
REMARK    3  A    between atoms: C9_11  and  C10_12 
REMARK    4  A    between atoms: C10_12  and  N2_13 
REMARK    5  A    between atoms: C10_12  and  C11_14 
REMARK    6  A    between atoms: C11_14  and  C12_15 
ROOT
HETATM    1  C8  UNL     1      26.330   2.077  53.800  1.00  0.00     0.112 A 
HETATM    2  C9  UNL     1      26.300   0.837  54.263  1.00  0.00     0.025 A 
HETATM    3  C22 UNL     1      27.569   0.262  54.697  1.00  0.00     0.125 A 
HETATM    4  N3  UNL     1      28.745   0.778  54.702  1.00  0.00    -0.281 NA
HETATM    5  C23 UNL     1      28.895   2.153  54.207  1.00  0.00     0.271 A 
HETATM    6  N4  UNL     1      27.616   2.686  53.791  1.00  0.00    -0.358 N 
HETATM    7  H23 UNL     1      27.802   3.644  53.466  1.00  0.00     0.162 HD
ENDROOT
BRANCH   2   8
HETATM    8  C10 UNL     1      25.122  -0.060  54.401  1.00  0.00     0.117 C 
BRANCH   8   9
HETATM    9  N2  UNL     1      25.506  -1.166  55.190  1.00  0.00    -0.422 N 
HETATM   10  H9  UNL     1      24.994  -1.382  56.039  1.00  0.00     0.150 HD
HETATM   11  H10 UNL     1      26.393  -1.627  55.003  1.00  0.00     0.150 HD
ENDBRANCH   8   9
BRANCH   8  12
HETATM   12  C11 UNL     1      24.381  -0.283  53.143  1.00  0.00     0.069 C 
BRANCH  12  13
HETATM   13  C12 UNL     1      22.933  -0.384  53.196  1.00  0.00    -0.045 A 
HETATM   14  C13 UNL     1      22.353  -0.977  54.332  1.00  0.00     0.008 A 
HETATM   15  C14 UNL     1      21.002  -1.103  54.547  1.00  0.00     0.001 A 
HETATM   16  C15 UNL     1      20.127  -0.629  53.607  1.00  0.00     0.012 A 
HETATM   17  C16 UNL     1      20.618  -0.037  52.467  1.00  0.00    -0.025 A 
HETATM   18  C17 UNL     1      19.784   0.451  51.468  1.00  0.00     0.012 A 
HETATM   19  C21 UNL     1      21.982   0.060  52.311  1.00  0.00    -0.020 A 
HETATM   20  C18 UNL     1      20.255   1.041  50.297  1.00  0.00     0.001 A 
HETATM   21  C19 UNL     1      21.630   1.117  50.174  1.00  0.00     0.001 A 
HETATM   22  C20 UNL     1      22.466   0.638  51.158  1.00  0.00     0.013 A 
ENDBRANCH  12  13
ENDBRANCH   8  12
ENDBRANCH   2   8
BRANCH   1  23
HETATM   23  N1  UNL     1      25.302   2.915  53.307  1.00  0.00    -0.342 N 
HETATM   24  H7  UNL     1      24.988   3.249  54.243  1.00  0.00     0.167 HD
BRANCH  23  25
HETATM   25  C7  UNL     1      24.737   3.306  52.067  1.00  0.00     0.041 A 
HETATM   26  C2  UNL     1      25.296   2.945  50.873  1.00  0.00    -0.035 A 
HETATM   27  C1  UNL     1      26.529   2.125  50.799  1.00  0.00     0.050 C 
HETATM   28  C3  UNL     1      24.699   3.357  49.690  1.00  0.00     0.010 A 
HETATM   29  C4  UNL     1      23.554   4.120  49.740  1.00  0.00     0.020 A 
HETATM   30  C5  UNL     1      23.023   4.461  50.978  1.00  0.00     0.013 A 
HETATM   31 BR1  UNL     1      21.422   5.528  51.040  1.00  0.00    -0.051 Br
HETATM   32  C6  UNL     1      23.597   4.065  52.167  1.00  0.00     0.049 A 
ENDBRANCH  23  25
ENDBRANCH   1  23
TORSDOF 6
ENDMDL
MODEL 2
REMARK VINA RESULT:      -9.3      2.629      6.586
REMARK  6 active torsions:
REMARK  status: ('A' for Active; 'I' for Inactive)
REMARK    1  A    between atoms: C7_8  and  N1_9 
REMARK    2  A    between atoms: N1_9  and  C8_10 
REMARK    3  A    between atoms: C9_11  and  C10_12 
REMARK    4  A    between atoms: C10_12  and  N2_13 
REMARK    5  A    between atoms: C10_12  and  C11_14 
REMARK    6  A    between atoms: C11_14  and  C12_15 
ROOT
HETATM    1  C8  UNL     1      22.994   2.093  50.714  1.00  0.00     0.112 A 
HETATM    2  C9  UNL     1      24.003   2.859  51.097  1.00  0.00     0.025 A 
HETATM    3  C22 UNL     1      24.193   4.114  50.377  1.00  0.00     0.125 A 
HETATM    4  N3  UNL     1      23.519   4.610  49.402  1.00  0.00    -0.281 NA
HETATM    5  C23 UNL     1      22.375   3.842  48.895  1.00  0.00     0.271 A 
HETATM    6  N4  UNL     1      22.220   2.609  49.637  1.00  0.00    -0.358 N 
HETATM    7  H23 UNL     1      21.403   2.135  49.230  1.00  0.00     0.162 HD
ENDROOT
BRANCH   2   8
HETATM    8  C10 UNL     1      24.986   2.603  52.185  1.00  0.00     0.117 C 
BRANCH   8   9
HETATM    9  N2  UNL     1      24.656   3.435  53.275  1.00  0.00    -0.422 N 
HETATM   10  H9  UNL     1      23.824   4.014  53.235  1.00  0.00     0.150 HD
HETATM   11  H10 UNL     1      25.341   3.585  54.013  1.00  0.00     0.150 HD
ENDBRANCH   8   9
BRANCH   8  12
HETATM   12  C11 UNL     1      26.387   2.523  51.725  1.00  0.00     0.069 C 
BRANCH  12  13
HETATM   13  C12 UNL     1      27.338   1.764  52.519  1.00  0.00    -0.045 A 
HETATM   14  C13 UNL     1      28.253   2.478  53.314  1.00  0.00     0.008 A 
HETATM   15  C14 UNL     1      29.180   1.904  54.150  1.00  0.00     0.001 A 
HETATM   16  C15 UNL     1      29.246   0.539  54.241  1.00  0.00     0.012 A 
HETATM   17  C16 UNL     1      28.384  -0.228  53.493  1.00  0.00    -0.025 A 
HETATM   18  C17 UNL     1      28.409  -1.618  53.528  1.00  0.00     0.012 A 
HETATM   19  C21 UNL     1      27.478   0.407  52.674  1.00  0.00    -0.020 A 
HETATM   20  C18 UNL     1      27.558  -2.419  52.769  1.00  0.00     0.001 A 
HETATM   21  C19 UNL     1      26.665  -1.745  51.957  1.00  0.00     0.001 A 
HETATM   22  C20 UNL     1      26.630  -0.369  51.915  1.00  0.00     0.013 A 
ENDBRANCH  12  13
ENDBRANCH   8  12
ENDBRANCH   2   8
BRANCH   1  23
HETATM   23  N1  UNL     1      22.540   0.840  51.190  1.00  0.00    -0.342 N 
HETATM   24  H7  UNL     1      22.448   0.403  50.248  1.00  0.00     0.167 HD
BRANCH  23  25
HETATM   25  C7  UNL     1      22.252   0.199  52.421  1.00  0.00     0.041 A 
HETATM   26  C2  UNL     1      20.970  -0.078  52.807  1.00  0.00    -0.035 A 
HETATM   27  C1  UNL     1      19.802   0.277  51.966  1.00  0.00     0.050 C 
HETATM   28  C3  UNL     1      20.747  -0.708  54.024  1.00  0.00     0.010 A 
HETATM   29  C4  UNL     1      21.821  -1.043  54.818  1.00  0.00     0.020 A 
HETATM   30  C5  UNL     1      23.105  -0.741  54.382  1.00  0.00     0.013 A 
HETATM   31 BR1  UNL     1      24.600  -1.214  55.497  1.00  0.00    -0.051 Br
HETATM   32  C6  UNL     1      23.353  -0.116  53.178  1.00  0.00     0.049 A 
ENDBRANCH  23  25
ENDBRANCH   1  23
TORSDOF 6
ENDMDL
MODEL 3
REMARK VINA RESULT:      -9.2      1.945      5.026
REMARK  6 active torsions:
REMARK  status: ('A' for Active; 'I' for Inactive)
REMARK    1  A    between atoms: C7_8  and  N1_9 
REMARK    2  A    between atoms: N1_9  and  C8_10 
REMARK    3  A    between atoms: C9_11  and  C10_12 
REMARK    4  A    between atoms: C10_12  and  N2_13 
REMARK    5  A    between atoms: C10_12  and  C11_14 
REMARK    6  A    between atoms: C11_14  and  C12_15 
ROOT
HETATM    1  C8  UNL     1      23.575  -0.512  53.452  1.00  0.00     0.112 A 
HETATM    2  C9  UNL     1      24.857  -0.180  53.458  1.00  0.00     0.025 A 
HETATM    3  C22 UNL     1      25.616  -0.491  54.666  1.00  0.00     0.125 A 
HETATM    4  N3  UNL     1      25.230  -1.050  55.756  1.00  0.00    -0.281 NA
HETATM    5  C23 UNL     1      23.823  -1.460  55.859  1.00  0.00     0.271 A 
HETATM    6  N4  UNL     1      23.109  -1.138  54.642  1.00  0.00    -0.358 N 
HETATM    7  H23 UNL     1      22.143  -1.457  54.790  1.00  0.00     0.162 HD
ENDROOT
BRANCH   2   8
HETATM    8  C10 UNL     1      25.638   0.479  52.377  1.00  0.00     0.117 C 
BRANCH   8   9
HETATM    9  N2  UNL     1      26.684  -0.390  52.003  1.00  0.00    -0.422 N 
HETATM   10  H9  UNL     1      26.751  -0.716  51.045  1.00  0.00     0.150 HD
HETATM   11  H10 UNL     1      27.255  -0.823  52.726  1.00  0.00     0.150 HD
ENDBRANCH   8   9
BRANCH   8  12
HETATM   12  C11 UNL     1      25.927   1.907  52.625  1.00  0.00     0.069 C 
BRANCH  12  13
HETATM   13  C12 UNL     1      25.644   2.867  51.573  1.00  0.00    -0.045 A 
HETATM   14  C13 UNL     1      26.486   2.879  50.446  1.00  0.00     0.008 A 
HETATM   15  C14 UNL     1      26.321   3.696  49.354  1.00  0.00     0.001 A 
HETATM   16  C15 UNL     1      25.272   4.575  49.326  1.00  0.00     0.012 A 
HETATM   17  C16 UNL     1      24.405   4.624  50.393  1.00  0.00    -0.025 A 
HETATM   18  C17 UNL     1      23.330   5.504  50.435  1.00  0.00     0.012 A 
HETATM   19  C21 UNL     1      24.625   3.779  51.458  1.00  0.00    -0.020 A 
HETATM   20  C18 UNL     1      22.447   5.584  51.509  1.00  0.00     0.001 A 
HETATM   21  C19 UNL     1      22.701   4.723  52.561  1.00  0.00     0.001 A 
HETATM   22  C20 UNL     1      23.763   3.846  52.530  1.00  0.00     0.013 A 
ENDBRANCH  12  13
ENDBRANCH   8  12
ENDBRANCH   2   8
BRANCH   1  23
HETATM   23  N1  UNL     1      22.576  -0.356  52.463  1.00  0.00    -0.342 N 
HETATM   24  H7  UNL     1      22.463  -1.374  52.273  1.00  0.00     0.167 HD
BRANCH  23  25
HETATM   25  C7  UNL     1      21.853   0.681  51.822  1.00  0.00     0.041 A 
HETATM   26  C2  UNL     1      20.779   1.287  52.414  1.00  0.00    -0.035 A 
HETATM   27  C1  UNL     1      20.302   0.895  53.762  1.00  0.00     0.050 C 
HETATM   28  C3  UNL     1      20.110   2.297  51.738  1.00  0.00     0.010 A 
HETATM   29  C4  UNL     1      20.539   2.672  50.485  1.00  0.00     0.020 A 
HETATM   30  C5  UNL     1      21.635   2.028  49.925  1.00  0.00     0.013 A 
HETATM   31 BR1  UNL     1      22.230   2.559  48.173  1.00  0.00    -0.051 Br
HETATM   32  C6  UNL     1      22.317   1.022  50.575  1.00  0.00     0.049 A 
ENDBRANCH  23  25
ENDBRANCH   1  23
TORSDOF 6
ENDMDL
MODEL 4
REMARK VINA RESULT:      -9.2      2.567      6.556
REMARK  6 active torsions:
REMARK  status: ('A' for Active; 'I' for Inactive)
REMARK    1  A    between atoms: C7_8  and  N1_9 
REMARK    2  A    between atoms: N1_9  and  C8_10 
REMARK    3  A    between atoms: C9_11  and  C10_12 
REMARK    4  A    between atoms: C10_12  and  N2_13 
REMARK    5  A    between atoms: C10_12  and  C11_14 
REMARK    6  A    between atoms: C11_14  and  C12_15 
ROOT
HETATM    1  C8  UNL     1      22.588   2.231  51.590  1.00  0.00     0.112 A 
HETATM    2  C9  UNL     1      23.849   2.595  51.420  1.00  0.00     0.025 A 
HETATM    3  C22 UNL     1      24.221   3.099  50.102  1.00  0.00     0.125 A 
HETATM    4  N3  UNL     1      23.502   3.251  49.049  1.00  0.00    -0.281 NA
HETATM    5  C23 UNL     1      22.083   2.878  49.125  1.00  0.00     0.271 A 
HETATM    6  N4  UNL     1      21.757   2.388  50.446  1.00  0.00    -0.358 N 
HETATM    7  H23 UNL     1      20.755   2.154  50.421  1.00  0.00     0.162 HD
ENDROOT
BRANCH   2   8
HETATM    8  C10 UNL     1      24.956   2.556  52.414  1.00  0.00     0.117 C 
BRANCH   8   9
HETATM    9  N2  UNL     1      24.718   3.565  53.372  1.00  0.00    -0.422 N 
HETATM   10  H9  UNL     1      24.097   4.335  53.150  1.00  0.00     0.150 HD
HETATM   11  H10 UNL     1      25.303   3.610  54.203  1.00  0.00     0.150 HD
ENDBRANCH   8   9
BRANCH   8  12
HETATM   12  C11 UNL     1      26.300   2.419  51.816  1.00  0.00     0.069 C 
BRANCH  12  13
HETATM   13  C12 UNL     1      27.319   1.695  52.555  1.00  0.00    -0.045 A 
HETATM   14  C13 UNL     1      28.253   2.441  53.296  1.00  0.00     0.008 A 
HETATM   15  C14 UNL     1      29.245   1.901  54.078  1.00  0.00     0.001 A 
HETATM   16  C15 UNL     1      29.364   0.539  54.164  1.00  0.00     0.012 A 
HETATM   17  C16 UNL     1      28.488  -0.259  53.465  1.00  0.00    -0.025 A 
HETATM   18  C17 UNL     1      28.563  -1.646  53.498  1.00  0.00     0.012 A 
HETATM   19  C21 UNL     1      27.516   0.344  52.700  1.00  0.00    -0.020 A 
HETATM   20  C18 UNL     1      27.699  -2.478  52.788  1.00  0.00     0.001 A 
HETATM   21  C19 UNL     1      26.738  -1.836  52.029  1.00  0.00     0.001 A 
HETATM   22  C20 UNL     1      26.653  -0.462  51.990  1.00  0.00     0.013 A 
ENDBRANCH  12  13
ENDBRANCH   8  12
ENDBRANCH   2   8
BRANCH   1  23
HETATM   23  N1  UNL     1      21.911   1.711  52.718  1.00  0.00    -0.342 N 
HETATM   24  H7  UNL     1      21.874   2.614  53.238  1.00  0.00     0.167 HD
BRANCH  23  25
HETATM   25  C7  UNL     1      21.386   0.479  53.181  1.00  0.00     0.041 A 
HETATM   26  C2  UNL     1      22.173  -0.457  53.793  1.00  0.00    -0.035 A 
HETATM   27  C1  UNL     1      23.624  -0.244  54.007  1.00  0.00     0.050 C 
HETATM   28  C3  UNL     1      21.604  -1.647  54.226  1.00  0.00     0.010 A 
HETATM   29  C4  UNL     1      20.258  -1.862  54.034  1.00  0.00     0.020 A 
HETATM   30  C5  UNL     1      19.499  -0.881  53.408  1.00  0.00     0.013 A 
HETATM   31 BR1  UNL     1      17.618  -1.188  53.144  1.00  0.00    -0.051 Br
HETATM   32  C6  UNL     1      20.039   0.309  52.968  1.00  0.00     0.049 A 
ENDBRANCH  23  25
ENDBRANCH   1  23
TORSDOF 6
ENDMDL
MODEL 5
REMARK VINA RESULT:      -9.2      1.825      5.325
REMARK  6 active torsions:
REMARK  status: ('A' for Active; 'I' for Inactive)
REMARK    1  A    between atoms: C7_8  and  N1_9 
REMARK    2  A    between atoms: N1_9  and  C8_10 
REMARK    3  A    between atoms: C9_11  and  C10_12 
REMARK    4  A    between atoms: C10_12  and  N2_13 
REMARK    5  A    between atoms: C10_12  and  C11_14 
REMARK    6  A    between atoms: C11_14  and  C12_15 
ROOT
HETATM    1  C8  UNL     1      26.260   0.405  53.491  1.00  0.00     0.112 A 
HETATM    2  C9  UNL     1      26.595   1.651  53.199  1.00  0.00     0.025 A 
HETATM    3  C22 UNL     1      27.877   2.128  53.708  1.00  0.00     0.125 A 
HETATM    4  N3  UNL     1      28.757   1.517  54.416  1.00  0.00    -0.281 NA
HETATM    5  C23 UNL     1      28.487   0.125  54.799  1.00  0.00     0.271 A 
HETATM    6  N4  UNL     1      27.211  -0.309  54.271  1.00  0.00    -0.358 N 
HETATM    7  H23 UNL     1      27.097  -1.285  54.575  1.00  0.00     0.162 HD
ENDROOT
BRANCH   2   8
HETATM    8  C10 UNL     1      25.824   2.646  52.405  1.00  0.00     0.117 C 
BRANCH   8   9
HETATM    9  N2  UNL     1      24.734   3.079  53.189  1.00  0.00    -0.422 N 
HETATM   10  H9  UNL     1      24.752   2.948  54.195  1.00  0.00     0.150 HD
HETATM   11  H10 UNL     1      23.868   3.353  52.730  1.00  0.00     0.150 HD
ENDBRANCH   8   9
BRANCH   8  12
HETATM   12  C11 UNL     1      25.603   2.255  50.998  1.00  0.00     0.069 C 
BRANCH  12  13
HETATM   13  C12 UNL     1      24.698   3.051  50.189  1.00  0.00    -0.045 A 
HETATM   14  C13 UNL     1      23.369   2.609  50.053  1.00  0.00     0.008 A 
HETATM   15  C14 UNL     1      22.388   3.275  49.360  1.00  0.00     0.001 A 
HETATM   16  C15 UNL     1      22.690   4.459  48.742  1.00  0.00     0.012 A 
HETATM   17  C16 UNL     1      23.969   4.956  48.827  1.00  0.00    -0.025 A 
HETATM   18  C17 UNL     1      24.345   6.144  48.210  1.00  0.00     0.012 A 
HETATM   19  C21 UNL     1      24.907   4.242  49.537  1.00  0.00    -0.020 A 
HETATM   20  C18 UNL     1      25.637   6.662  48.268  1.00  0.00     0.001 A 
HETATM   21  C19 UNL     1      26.551   5.916  48.987  1.00  0.00     0.001 A 
HETATM   22  C20 UNL     1      26.190   4.737  49.603  1.00  0.00     0.013 A 
ENDBRANCH  12  13
ENDBRANCH   8  12
ENDBRANCH   2   8
BRANCH   1  23
HETATM   23  N1  UNL     1      25.112  -0.354  53.160  1.00  0.00    -0.342 N 
HETATM   24  H7  UNL     1      25.600  -0.991  52.495  1.00  0.00     0.167 HD
BRANCH  23  25
HETATM   25  C7  UNL     1      23.733  -0.411  53.483  1.00  0.00     0.041 A 
HETATM   26  C2  UNL     1      23.293  -0.882  54.689  1.00  0.00    -0.035 A 
HETATM   27  C1  UNL     1      24.229  -1.366  55.733  1.00  0.00     0.050 C 
HETATM   28  C3  UNL     1      21.930  -0.914  54.951  1.00  0.00     0.010 A 
HETATM   29  C4  UNL     1      21.047  -0.471  53.993  1.00  0.00     0.020 A 
HETATM   30  C5  UNL     1      21.542  -0.001  52.783  1.00  0.00     0.013 A 
HETATM   31 BR1  UNL     1      20.302   0.619  51.448  1.00  0.00    -0.051 Br
HETATM   32  C6  UNL     1      22.890   0.042  52.498  1.00  0.00     0.049 A 
ENDBRANCH  23  25
ENDBRANCH   1  23
TORSDOF 6
ENDMDL
MODEL 6
REMARK VINA RESULT:      -9.1      1.829      2.874
REMARK  6 active torsions:
REMARK  status: ('A' for Active; 'I' for Inactive)
REMARK    1  A    between atoms: C7_8  and  N1_9 
REMARK    2  A    between atoms: N1_9  and  C8_10 
REMARK    3  A    between atoms: C9_11  and  C10_12 
REMARK    4  A    between atoms: C10_12  and  N2_13 
REMARK    5  A    between atoms: C10_12  and  C11_14 
REMARK    6  A    between atoms: C11_14  and  C12_15 
ROOT
HETATM    1  C8  UNL     1      25.218   1.940  53.328  1.00  0.00     0.112 A 
HETATM    2  C9  UNL     1      24.433   0.880  53.450  1.00  0.00     0.025 A 
HETATM    3  C22 UNL     1      25.052  -0.349  53.938  1.00  0.00     0.125 A 
HETATM    4  N3  UNL     1      26.269  -0.575  54.278  1.00  0.00    -0.281 NA
HETATM    5  C23 UNL     1      27.228   0.533  54.182  1.00  0.00     0.271 A 
HETATM    6  N4  UNL     1      26.575   1.730  53.698  1.00  0.00    -0.358 N 
HETATM    7  H23 UNL     1      27.305   2.455  53.663  1.00  0.00     0.162 HD
ENDROOT
BRANCH   2   8
HETATM    8  C10 UNL     1      22.980   0.777  53.150  1.00  0.00     0.117 C 
BRANCH   8   9
HETATM    9  N2  UNL     1      22.437  -0.239  53.965  1.00  0.00    -0.422 N 
HETATM   10  H9  UNL     1      22.324  -0.081  54.960  1.00  0.00     0.150 HD
HETATM   11  H10 UNL     1      22.331  -1.178  53.587  1.00  0.00     0.150 HD
ENDBRANCH   8   9
BRANCH   8  12
HETATM   12  C11 UNL     1      22.657   0.807  51.708  1.00  0.00     0.069 C 
BRANCH  12  13
HETATM   13  C12 UNL     1      21.732   1.815  51.223  1.00  0.00    -0.045 A 
HETATM   14  C13 UNL     1      20.864   2.417  52.152  1.00  0.00     0.008 A 
HETATM   15  C14 UNL     1      19.968   3.415  51.854  1.00  0.00     0.001 A 
HETATM   16  C15 UNL     1      19.884   3.880  50.569  1.00  0.00     0.012 A 
HETATM   17  C16 UNL     1      20.700   3.339  49.603  1.00  0.00    -0.025 A 
HETATM   18  C17 UNL     1      20.655   3.756  48.278  1.00  0.00     0.012 A 
HETATM   19  C21 UNL     1      21.578   2.342  49.965  1.00  0.00    -0.020 A 
HETATM   20  C18 UNL     1      21.458   3.214  47.276  1.00  0.00     0.001 A 
HETATM   21  C19 UNL     1      22.324   2.214  47.677  1.00  0.00     0.001 A 
HETATM   22  C20 UNL     1      22.378   1.794  48.988  1.00  0.00     0.013 A 
ENDBRANCH  12  13
ENDBRANCH   8  12
ENDBRANCH   2   8
BRANCH   1  23
HETATM   23  N1  UNL     1      24.944   3.258  52.893  1.00  0.00    -0.342 N 
HETATM   24  H7  UNL     1      25.064   3.700  53.829  1.00  0.00     0.167 HD
BRANCH  23  25
HETATM   25  C7  UNL     1      24.614   3.948  51.699  1.00  0.00     0.041 A 
HETATM   26  C2  UNL     1      25.241   3.680  50.514  1.00  0.00    -0.035 A 
HETATM   27  C1  UNL     1      26.306   2.655  50.402  1.00  0.00     0.050 C 
HETATM   28  C3  UNL     1      24.875   4.387  49.376  1.00  0.00     0.010 A 
HETATM   29  C4  UNL     1      23.889   5.343  49.462  1.00  0.00     0.020 A 
HETATM   30  C5  UNL     1      23.281   5.579  50.689  1.00  0.00     0.013 A 
HETATM   31 BR1  UNL     1      21.902   6.916  50.800  1.00  0.00    -0.051 Br
HETATM   32  C6  UNL     1      23.625   4.891  51.833  1.00  0.00     0.049 A 
ENDBRANCH  23  25
ENDBRANCH   1  23
TORSDOF 6
ENDMDL
MODEL 7
REMARK VINA RESULT:      -9.0      1.771      5.078
REMARK  6 active torsions:
REMARK  status: ('A' for Active; 'I' for Inactive)
REMARK    1  A    between atoms: C7_8  and  N1_9 
REMARK    2  A    between atoms: N1_9  and  C8_10 
REMARK    3  A    between atoms: C9_11  and  C10_12 
REMARK    4  A    between atoms: C10_12  and  N2_13 
REMARK    5  A    between atoms: C10_12  and  C11_14 
REMARK    6  A    between atoms: C11_14  and  C12_15 
ROOT
HETATM    1  C8  UNL     1      26.082   0.404  53.463  1.00  0.00     0.112 A 
HETATM    2  C9  UNL     1      26.391   1.668  53.223  1.00  0.00     0.025 A 
HETATM    3  C22 UNL     1      27.686   2.137  53.709  1.00  0.00     0.125 A 
HETATM    4  N3  UNL     1      28.599   1.503  54.351  1.00  0.00    -0.281 NA
HETATM    5  C23 UNL     1      28.360   0.090  54.673  1.00  0.00     0.271 A 
HETATM    6  N4  UNL     1      27.071  -0.334  54.172  1.00  0.00    -0.358 N 
HETATM    7  H23 UNL     1      26.981  -1.326  54.430  1.00  0.00     0.162 HD
ENDROOT
BRANCH   2   8
HETATM    8  C10 UNL     1      25.579   2.690  52.509  1.00  0.00     0.117 C 
BRANCH   8   9
HETATM    9  N2  UNL     1      24.555   3.119  53.380  1.00  0.00    -0.422 N 
HETATM   10  H9  UNL     1      23.695   3.498  52.999  1.00  0.00     0.150 HD
HETATM   11  H10 UNL     1      24.752   3.212  54.374  1.00  0.00     0.150 HD
ENDBRANCH   8   9
BRANCH   8  12
HETATM   12  C11 UNL     1      25.251   2.335  51.114  1.00  0.00     0.069 C 
BRANCH  12  13
HETATM   13  C12 UNL     1      24.780   3.379  50.222  1.00  0.00    -0.045 A 
HETATM   14  C13 UNL     1      25.486   4.595  50.198  1.00  0.00     0.008 A 
HETATM   15  C14 UNL     1      25.190   5.657  49.377  1.00  0.00     0.001 A 
HETATM   16  C15 UNL     1      24.137   5.559  48.508  1.00  0.00     0.012 A 
HETATM   17  C16 UNL     1      23.396   4.401  48.474  1.00  0.00    -0.025 A 
HETATM   18  C17 UNL     1      22.306   4.243  47.627  1.00  0.00     0.012 A 
HETATM   19  C21 UNL     1      23.743   3.373  49.321  1.00  0.00    -0.020 A 
HETATM   20  C18 UNL     1      21.530   3.087  47.583  1.00  0.00     0.001 A 
HETATM   21  C19 UNL     1      21.907   2.078  48.450  1.00  0.00     0.001 A 
HETATM   22  C20 UNL     1      22.986   2.223  49.294  1.00  0.00     0.013 A 
ENDBRANCH  12  13
ENDBRANCH   8  12
ENDBRANCH   2   8
BRANCH   1  23
HETATM   23  N1  UNL     1      24.932  -0.354  53.138  1.00  0.00    -0.342 N 
HETATM   24  H7  UNL     1      25.420  -0.998  52.480  1.00  0.00     0.167 HD
BRANCH  23  25
HETATM   25  C7  UNL     1      23.552  -0.402  53.458  1.00  0.00     0.041 A 
HETATM   26  C2  UNL     1      23.106  -0.879  54.660  1.00  0.00    -0.035 A 
HETATM   27  C1  UNL     1      24.037  -1.377  55.701  1.00  0.00     0.050 C 
HETATM   28  C3  UNL     1      21.743  -0.902  54.919  1.00  0.00     0.010 A 
HETATM   29  C4  UNL     1      20.865  -0.445  53.963  1.00  0.00     0.020 A 
HETATM   30  C5  UNL     1      21.366   0.030  52.757  1.00  0.00     0.013 A 
HETATM   31 BR1  UNL     1      20.132   0.669  51.425  1.00  0.00    -0.051 Br
HETATM   32  C6  UNL     1      22.715   0.064  52.474  1.00  0.00     0.049 A 
ENDBRANCH  23  25
ENDBRANCH   1  23
TORSDOF 6
ENDMDL
MODEL 8
REMARK VINA RESULT:      -8.9      3.175      7.283
REMARK  6 active torsions:
REMARK  status: ('A' for Active; 'I' for Inactive)
REMARK    1  A    between atoms: C7_8  and  N1_9 
REMARK    2  A    between atoms: N1_9  and  C8_10 
REMARK    3  A    between atoms: C9_11  and  C10_12 
REMARK    4  A    between atoms: C10_12  and  N2_13 
REMARK    5  A    between atoms: C10_12  and  C11_14 
REMARK    6  A    between atoms: C11_14  and  C12_15 
ROOT
HETATM    1  C8  UNL     1      22.307   2.150  52.027  1.00  0.00     0.112 A 
HETATM    2  C9  UNL     1      22.198   3.460  51.869  1.00  0.00     0.025 A 
HETATM    3  C22 UNL     1      20.855   4.027  51.949  1.00  0.00     0.125 A 
HETATM    4  N3  UNL     1      19.729   3.443  52.152  1.00  0.00    -0.281 NA
HETATM    5  C23 UNL     1      19.733   1.987  52.341  1.00  0.00     0.271 A 
HETATM    6  N4  UNL     1      21.081   1.467  52.258  1.00  0.00    -0.358 N 
HETATM    7  H23 UNL     1      21.000   0.452  52.404  1.00  0.00     0.162 HD
ENDROOT
BRANCH   2   8
HETATM    8  C10 UNL     1      23.283   4.446  51.617  1.00  0.00     0.117 C 
BRANCH   8   9
HETATM    9  N2  UNL     1      23.147   5.493  52.554  1.00  0.00    -0.422 N 
HETATM   10  H9  UNL     1      23.572   6.395  52.367  1.00  0.00     0.150 HD
HETATM   11  H10 UNL     1      22.783   5.287  53.481  1.00  0.00     0.150 HD
ENDBRANCH   8   9
BRANCH   8  12
HETATM   12  C11 UNL     1      23.490   4.765  50.190  1.00  0.00     0.069 C 
BRANCH  12  13
HETATM   13  C12 UNL     1      24.849   4.866  49.689  1.00  0.00    -0.045 A 
HETATM   14  C13 UNL     1      25.686   3.743  49.819  1.00  0.00     0.008 A 
HETATM   15  C14 UNL     1      26.977   3.671  49.355  1.00  0.00     0.001 A 
HETATM   16  C15 UNL     1      27.522   4.752  48.717  1.00  0.00     0.012 A 
HETATM   17  C16 UNL     1      26.766   5.889  48.553  1.00  0.00    -0.025 A 
HETATM   18  C17 UNL     1      27.264   7.026  47.928  1.00  0.00     0.012 A 
HETATM   19  C21 UNL     1      25.479   5.899  49.040  1.00  0.00    -0.020 A 
HETATM   20  C18 UNL     1      26.526   8.196  47.763  1.00  0.00     0.001 A 
HETATM   21  C19 UNL     1      25.239   8.169  48.267  1.00  0.00     0.001 A 
HETATM   22  C20 UNL     1      24.734   7.048  48.888  1.00  0.00     0.013 A 
ENDBRANCH  12  13
ENDBRANCH   8  12
ENDBRANCH   2   8
BRANCH   1  23
HETATM   23  N1  UNL     1      23.437   1.299  52.008  1.00  0.00    -0.342 N 
HETATM   24  H7  UNL     1      23.305   0.979  51.025  1.00  0.00     0.167 HD
BRANCH  23  25
HETATM   25  C7  UNL     1      24.485   0.886  52.869  1.00  0.00     0.041 A 
HETATM   26  C2  UNL     1      24.341  -0.169  53.727  1.00  0.00    -0.035 A 
HETATM   27  C1  UNL     1      23.081  -0.946  53.812  1.00  0.00     0.050 C 
HETATM   28  C3  UNL     1      25.401  -0.529  54.547  1.00  0.00     0.010 A 
HETATM   29  C4  UNL     1      26.578   0.182  54.481  1.00  0.00     0.020 A 
HETATM   30  C5  UNL     1      26.676   1.246  53.594  1.00  0.00     0.013 A 
HETATM   31 BR1  UNL     1      28.325   2.235  53.507  1.00  0.00    -0.051 Br
HETATM   32  C6  UNL     1      25.638   1.624  52.769  1.00  0.00     0.049 A 
ENDBRANCH  23  25
ENDBRANCH   1  23
TORSDOF 6
ENDMDL
MODEL 9
REMARK VINA RESULT:      -8.8      2.851      5.622
REMARK  6 active torsions:
REMARK  status: ('A' for Active; 'I' for Inactive)
REMARK    1  A    between atoms: C7_8  and  N1_9 
REMARK    2  A    between atoms: N1_9  and  C8_10 
REMARK    3  A    between atoms: C9_11  and  C10_12 
REMARK    4  A    between atoms: C10_12  and  N2_13 
REMARK    5  A    between atoms: C10_12  and  C11_14 
REMARK    6  A    between atoms: C11_14  and  C12_15 
ROOT
HETATM    1  C8  UNL     1      22.285   5.769  50.245  1.00  0.00     0.112 A 
HETATM    2  C9  UNL     1      23.186   5.764  51.216  1.00  0.00     0.025 A 
HETATM    3  C22 UNL     1      24.060   6.930  51.313  1.00  0.00     0.125 A 
HETATM    4  N3  UNL     1      24.098   7.989  50.589  1.00  0.00    -0.281 NA
HETATM    5  C23 UNL     1      23.141   8.100  49.480  1.00  0.00     0.271 A 
HETATM    6  N4  UNL     1      22.293   6.929  49.421  1.00  0.00    -0.358 N 
HETATM    7  H23 UNL     1      21.654   7.083  48.631  1.00  0.00     0.162 HD
ENDROOT
BRANCH   2   8
HETATM    8  C10 UNL     1      23.427   4.710  52.236  1.00  0.00     0.117 C 
BRANCH   8   9
HETATM    9  N2  UNL     1      23.757   5.346  53.452  1.00  0.00    -0.422 N 
HETATM   10  H9  UNL     1      23.040   5.499  54.153  1.00  0.00     0.150 HD
HETATM   11  H10 UNL     1      24.661   5.805  53.544  1.00  0.00     0.150 HD
ENDBRANCH   8   9
BRANCH   8  12
HETATM   12  C11 UNL     1      24.251   3.581  51.756  1.00  0.00     0.069 C 
BRANCH  12  13
HETATM   13  C12 UNL     1      24.041   2.268  52.339  1.00  0.00    -0.045 A 
HETATM   14  C13 UNL     1      22.747   1.943  52.787  1.00  0.00     0.008 A 
HETATM   15  C14 UNL     1      22.384   0.730  53.318  1.00  0.00     0.001 A 
HETATM   16  C15 UNL     1      23.324  -0.259  53.437  1.00  0.00     0.012 A 
HETATM   17  C16 UNL     1      24.613  -0.016  53.022  1.00  0.00    -0.025 A 
HETATM   18  C17 UNL     1      25.617  -0.971  53.129  1.00  0.00     0.012 A 
HETATM   19  C21 UNL     1      24.914   1.221  52.498  1.00  0.00    -0.020 A 
HETATM   20  C18 UNL     1      26.934  -0.746  52.732  1.00  0.00     0.001 A 
HETATM   21  C19 UNL     1      27.198   0.508  52.214  1.00  0.00     0.001 A 
HETATM   22  C20 UNL     1      26.210   1.462  52.102  1.00  0.00     0.013 A 
ENDBRANCH  12  13
ENDBRANCH   8  12
ENDBRANCH   2   8
BRANCH   1  23
HETATM   23  N1  UNL     1      21.304   4.818  49.878  1.00  0.00    -0.342 N 
HETATM   24  H7  UNL     1      20.603   5.517  49.554  1.00  0.00     0.167 HD
BRANCH  23  25
HETATM   25  C7  UNL     1      21.124   3.412  49.864  1.00  0.00     0.041 A 
HETATM   26  C2  UNL     1      21.954   2.585  49.159  1.00  0.00    -0.035 A 
HETATM   27  C1  UNL     1      23.091   3.106  48.362  1.00  0.00     0.050 C 
HETATM   28  C3  UNL     1      21.730   1.215  49.182  1.00  0.00     0.010 A 
HETATM   29  C4  UNL     1      20.678   0.715  49.915  1.00  0.00     0.020 A 
HETATM   30  C5  UNL     1      19.863   1.595  50.616  1.00  0.00     0.013 A 
HETATM   31 BR1  UNL     1      18.395   0.887  51.639  1.00  0.00    -0.051 Br
HETATM   32  C6  UNL     1      20.063   2.959  50.609  1.00  0.00     0.049 A 
ENDBRANCH  23  25
ENDBRANCH   1  23
TORSDOF 6
ENDMDL
