MODEL 1
REMARK VINA RESULT:      -8.1      0.000      0.000
REMARK  5 active torsions:
REMARK  status: ('A' for Active; 'I' for Inactive)
REMARK    1  A    between atoms: C5_6  and  N1_7 
REMARK    2  A    between atoms: N1_7  and  C6_8 
REMARK    3  A    between atoms: N2_9  and  C7_10 
REMARK    4  A    between atoms: C7_10  and  N3_11 
REMARK    5  A    between atoms: N3_11  and  C8_12 
ROOT
HETATM    1  C7  UNL     1      23.394  -1.552  55.457  1.00  0.00     0.382 C 
ENDROOT
BRANCH   1   2
HETATM    2  N2  UNL     1      22.014  -1.634  55.156  1.00  0.00    -0.259 NA
HETATM    3  C6  UNL     1      21.512  -0.520  54.668  1.00  0.00     0.203 C 
BRANCH   3   4
HETATM    4  N1  UNL     1      20.152  -0.823  54.443  1.00  0.00    -0.351 N 
HETATM    5  H4  UNL     1      19.436  -1.277  55.088  1.00  0.00     0.166 HD
BRANCH   4   6
HETATM    6  C5  UNL     1      19.324  -0.622  53.310  1.00  0.00     0.034 A 
HETATM    7  C4  UNL     1      20.012   0.175  52.393  1.00  0.00     0.029 A 
HETATM    8  C3  UNL     1      19.429   0.554  51.181  1.00  0.00     0.004 A 
HETATM    9  C2  UNL     1      18.137   0.097  50.944  1.00  0.00     0.019 A 
HETATM   10  C1  UNL     1      17.447  -0.689  51.839  1.00  0.00     0.013 A 
HETATM   11 BR1  UNL     1      15.679  -1.318  51.525  1.00  0.00    -0.051 Br
HETATM   12  C16 UNL     1      18.054  -1.043  53.021  1.00  0.00     0.048 A 
ENDBRANCH   4   6
ENDBRANCH   3   4
ENDBRANCH   1   2
BRANCH   1  13
HETATM   13  N3  UNL     1      24.630  -1.257  55.588  1.00  0.00    -0.262 NA
BRANCH  13  14
HETATM   14  C8  UNL     1      25.288  -0.469  54.546  1.00  0.00     0.139 A 
HETATM   15  C9  UNL     1      26.576  -0.124  54.302  1.00  0.00     0.090 A 
HETATM   16  N4  UNL     1      27.964  -0.313  54.865  1.00  0.00    -0.386 N 
HETATM   17  C13 UNL     1      25.987   0.608  53.115  1.00  0.00     0.125 A 
HETATM   18  C10 UNL     1      28.848  -0.062  53.619  1.00  0.00     0.141 C 
HETATM   19  H7  UNL     1      28.057  -0.544  55.850  1.00  0.00     0.159 HD
HETATM   20  C11 UNL     1      27.691   0.652  52.892  1.00  0.00     0.052 A 
HETATM   21  C12 UNL     1      26.848   0.114  52.025  1.00  0.00     0.012 A 
HETATM   22  C15 UNL     1      27.395   1.989  53.526  1.00  0.00    -0.008 C 
HETATM   23  C14 UNL     1      26.236   2.069  52.895  1.00  0.00     0.017 C 
HETATM   24  O1  UNL     1      24.774   0.186  53.439  1.00  0.00    -0.316 OA
ENDBRANCH  13  14
ENDBRANCH   1  13
TORSDOF 5
ENDMDL
MODEL 2
REMARK VINA RESULT:      -7.7      1.167      1.842
REMARK  5 active torsions:
REMARK  status: ('A' for Active; 'I' for Inactive)
REMARK    1  A    between atoms: C5_6  and  N1_7 
REMARK    2  A    between atoms: N1_7  and  C6_8 
REMARK    3  A    between atoms: N2_9  and  C7_10 
REMARK    4  A    between atoms: C7_10  and  N3_11 
REMARK    5  A    between atoms: N3_11  and  C8_12 
ROOT
HETATM    1  C7  UNL     1      23.072  -1.535  55.345  1.00  0.00     0.382 C 
ENDROOT
BRANCH   1   2
HETATM    2  N2  UNL     1      21.704  -1.651  55.004  1.00  0.00    -0.259 NA
HETATM    3  C6  UNL     1      21.184  -0.542  54.523  1.00  0.00     0.203 C 
BRANCH   3   4
HETATM    4  N1  UNL     1      19.839  -0.880  54.255  1.00  0.00    -0.351 N 
HETATM    5  H4  UNL     1      19.128  -1.391  54.861  1.00  0.00     0.166 HD
BRANCH   4   6
HETATM    6  C5  UNL     1      19.026  -0.651  53.116  1.00  0.00     0.034 A 
HETATM    7  C4  UNL     1      19.742   0.136  52.211  1.00  0.00     0.029 A 
HETATM    8  C3  UNL     1      19.180   0.539  50.997  1.00  0.00     0.004 A 
HETATM    9  C2  UNL     1      17.879   0.115  50.745  1.00  0.00     0.019 A 
HETATM   10  C1  UNL     1      17.162  -0.660  51.628  1.00  0.00     0.013 A 
HETATM   11 BR1  UNL     1      15.382  -1.242  51.294  1.00  0.00    -0.051 Br
HETATM   12  C16 UNL     1      17.750  -1.038  52.812  1.00  0.00     0.048 A 
ENDBRANCH   4   6
ENDBRANCH   3   4
ENDBRANCH   1   2
BRANCH   1  13
HETATM   13  N3  UNL     1      24.221  -1.259  55.832  1.00  0.00    -0.262 NA
BRANCH  13  14
HETATM   14  C8  UNL     1      25.231  -0.646  54.971  1.00  0.00     0.139 A 
HETATM   15  C9  UNL     1      25.187  -0.025  53.766  1.00  0.00     0.090 A 
HETATM   16  N4  UNL     1      24.203   0.383  52.697  1.00  0.00    -0.386 N 
HETATM   17  C13 UNL     1      26.684   0.097  53.955  1.00  0.00     0.125 A 
HETATM   18  C10 UNL     1      24.961   1.536  51.994  1.00  0.00     0.141 C 
HETATM   19  H7  UNL     1      23.321  -0.118  52.637  1.00  0.00     0.159 HD
HETATM   20  C11 UNL     1      26.304   1.072  52.591  1.00  0.00     0.052 A 
HETATM   21  C12 UNL     1      26.885   1.533  53.687  1.00  0.00     0.012 A 
HETATM   22  C15 UNL     1      26.756  -0.226  51.967  1.00  0.00    -0.008 C 
HETATM   23  C14 UNL     1      27.646  -0.416  52.926  1.00  0.00     0.017 C 
HETATM   24  O1  UNL     1      26.599  -0.500  55.134  1.00  0.00    -0.316 OA
ENDBRANCH  13  14
ENDBRANCH   1  13
TORSDOF 5
ENDMDL
MODEL 3
REMARK VINA RESULT:      -7.7      2.526      3.817
REMARK  5 active torsions:
REMARK  status: ('A' for Active; 'I' for Inactive)
REMARK    1  A    between atoms: C5_6  and  N1_7 
REMARK    2  A    between atoms: N1_7  and  C6_8 
REMARK    3  A    between atoms: N2_9  and  C7_10 
REMARK    4  A    between atoms: C7_10  and  N3_11 
REMARK    5  A    between atoms: N3_11  and  C8_12 
ROOT
HETATM    1  C7  UNL     1      25.558   2.712  51.191  1.00  0.00     0.382 C 
ENDROOT
BRANCH   1   2
HETATM    2  N2  UNL     1      24.213   2.275  51.228  1.00  0.00    -0.259 NA
HETATM    3  C6  UNL     1      23.758   2.070  52.446  1.00  0.00     0.203 C 
BRANCH   3   4
HETATM    4  N1  UNL     1      22.424   1.648  52.250  1.00  0.00    -0.351 N 
HETATM    5  H4  UNL     1      21.680   2.021  51.586  1.00  0.00     0.166 HD
BRANCH   4   6
HETATM    6  C5  UNL     1      21.670   0.616  52.863  1.00  0.00     0.034 A 
HETATM    7  C4  UNL     1      22.512  -0.105  53.711  1.00  0.00     0.029 A 
HETATM    8  C3  UNL     1      22.042  -1.202  54.439  1.00  0.00     0.004 A 
HETATM    9  C2  UNL     1      20.701  -1.531  54.269  1.00  0.00     0.019 A 
HETATM   10  C1  UNL     1      19.860  -0.828  53.436  1.00  0.00     0.013 A 
HETATM   11 BR1  UNL     1      18.025  -1.270  53.196  1.00  0.00    -0.051 Br
HETATM   12  C16 UNL     1      20.359   0.247  52.737  1.00  0.00     0.048 A 
ENDBRANCH   4   6
ENDBRANCH   3   4
ENDBRANCH   1   2
BRANCH   1  13
HETATM   13  N3  UNL     1      26.821   2.880  51.279  1.00  0.00    -0.262 NA
BRANCH  13  14
HETATM   14  C8  UNL     1      27.586   2.056  52.214  1.00  0.00     0.139 A 
HETATM   15  C9  UNL     1      27.472   0.776  52.649  1.00  0.00     0.090 A 
HETATM   16  N4  UNL     1      26.608  -0.448  52.465  1.00  0.00    -0.386 N 
HETATM   17  C13 UNL     1      28.687   1.122  53.483  1.00  0.00     0.125 A 
HETATM   18  C10 UNL     1      27.569  -1.581  52.903  1.00  0.00     0.141 C 
HETATM   19  H7  UNL     1      25.659  -0.321  52.127  1.00  0.00     0.159 HD
HETATM   20  C11 UNL     1      28.481  -0.578  53.638  1.00  0.00     0.052 A 
HETATM   21  C12 UNL     1      29.577  -0.009  53.163  1.00  0.00     0.012 A 
HETATM   22  C15 UNL     1      27.807  -0.039  54.876  1.00  0.00    -0.008 C 
HETATM   23  C14 UNL     1      28.691   0.940  54.971  1.00  0.00     0.017 C 
HETATM   24  O1  UNL     1      28.713   2.340  52.967  1.00  0.00    -0.316 OA
ENDBRANCH  13  14
ENDBRANCH   1  13
TORSDOF 5
ENDMDL
MODEL 4
REMARK VINA RESULT:      -7.4      2.425      3.548
REMARK  5 active torsions:
REMARK  status: ('A' for Active; 'I' for Inactive)
REMARK    1  A    between atoms: C5_6  and  N1_7 
REMARK    2  A    between atoms: N1_7  and  C6_8 
REMARK    3  A    between atoms: N2_9  and  C7_10 
REMARK    4  A    between atoms: C7_10  and  N3_11 
REMARK    5  A    between atoms: N3_11  and  C8_12 
ROOT
HETATM    1  C7  UNL     1      25.297   2.634  51.235  1.00  0.00     0.382 C 
ENDROOT
BRANCH   1   2
HETATM    2  N2  UNL     1      23.885   2.558  51.261  1.00  0.00    -0.259 NA
HETATM    3  C6  UNL     1      23.393   2.265  52.446  1.00  0.00     0.203 C 
BRANCH   3   4
HETATM    4  N1  UNL     1      21.996   2.244  52.244  1.00  0.00    -0.351 N 
HETATM    5  H4  UNL     1      21.355   2.979  51.816  1.00  0.00     0.166 HD
BRANCH   4   6
HETATM    6  C5  UNL     1      21.023   1.256  52.542  1.00  0.00     0.034 A 
HETATM    7  C4  UNL     1      21.504   0.459  53.582  1.00  0.00     0.029 A 
HETATM    8  C3  UNL     1      20.759  -0.616  54.076  1.00  0.00     0.004 A 
HETATM    9  C2  UNL     1      19.525  -0.843  53.477  1.00  0.00     0.019 A 
HETATM   10  C1  UNL     1      19.039  -0.065  52.451  1.00  0.00     0.013 A 
HETATM   11 BR1  UNL     1      17.353  -0.368  51.623  1.00  0.00    -0.051 Br
HETATM   12  C16 UNL     1      19.800   0.985  51.992  1.00  0.00     0.048 A 
ENDBRANCH   4   6
ENDBRANCH   3   4
ENDBRANCH   1   2
BRANCH   1  13
HETATM   13  N3  UNL     1      26.560   2.441  51.235  1.00  0.00    -0.262 NA
BRANCH  13  14
HETATM   14  C8  UNL     1      27.135   1.492  52.188  1.00  0.00     0.139 A 
HETATM   15  C9  UNL     1      28.159   1.555  53.075  1.00  0.00     0.090 A 
HETATM   16  N4  UNL     1      29.208   2.514  53.582  1.00  0.00    -0.386 N 
HETATM   17  C13 UNL     1      27.779   0.120  53.371  1.00  0.00     0.125 A 
HETATM   18  C10 UNL     1      29.533   1.919  54.975  1.00  0.00     0.141 C 
HETATM   19  H7  UNL     1      29.483   3.288  52.985  1.00  0.00     0.159 HD
HETATM   20  C11 UNL     1      28.912   0.563  54.585  1.00  0.00     0.052 A 
HETATM   21  C12 UNL     1      27.680   0.153  54.842  1.00  0.00     0.012 A 
HETATM   22  C15 UNL     1      29.766  -0.152  53.567  1.00  0.00    -0.008 C 
HETATM   23  C14 UNL     1      28.783  -0.989  53.281  1.00  0.00     0.017 C 
HETATM   24  O1  UNL     1      26.789   0.186  52.494  1.00  0.00    -0.316 OA
ENDBRANCH  13  14
ENDBRANCH   1  13
TORSDOF 5
ENDMDL
MODEL 5
REMARK VINA RESULT:      -7.3      5.583      7.755
REMARK  5 active torsions:
REMARK  status: ('A' for Active; 'I' for Inactive)
REMARK    1  A    between atoms: C5_6  and  N1_7 
REMARK    2  A    between atoms: N1_7  and  C6_8 
REMARK    3  A    between atoms: N2_9  and  C7_10 
REMARK    4  A    between atoms: C7_10  and  N3_11 
REMARK    5  A    between atoms: N3_11  and  C8_12 
ROOT
HETATM    1  C7  UNL     1      23.515   3.407  52.155  1.00  0.00     0.382 C 
ENDROOT
BRANCH   1   2
HETATM    2  N2  UNL     1      23.874   4.440  51.258  1.00  0.00    -0.259 NA
HETATM    3  C6  UNL     1      24.209   4.008  50.061  1.00  0.00     0.203 C 
BRANCH   3   4
HETATM    4  N1  UNL     1      24.522   5.184  49.345  1.00  0.00    -0.351 N 
HETATM    5  H4  UNL     1      23.882   5.953  48.978  1.00  0.00     0.166 HD
BRANCH   4   6
HETATM    6  C5  UNL     1      25.763   5.704  48.896  1.00  0.00     0.034 A 
HETATM    7  C4  UNL     1      26.721   4.691  48.972  1.00  0.00     0.029 A 
HETATM    8  C3  UNL     1      28.051   4.923  48.609  1.00  0.00     0.004 A 
HETATM    9  C2  UNL     1      28.361   6.207  48.173  1.00  0.00     0.019 A 
HETATM   10  C1  UNL     1      27.426   7.214  48.094  1.00  0.00     0.013 A 
HETATM   11 BR1  UNL     1      27.840   8.974  47.502  1.00  0.00    -0.051 Br
HETATM   12  C16 UNL     1      26.126   6.948  48.459  1.00  0.00     0.048 A 
ENDBRANCH   4   6
ENDBRANCH   3   4
ENDBRANCH   1   2
BRANCH   1  13
HETATM   13  N3  UNL     1      23.238   2.316  52.760  1.00  0.00    -0.262 NA
BRANCH  13  14
HETATM   14  C8  UNL     1      24.324   1.411  53.129  1.00  0.00     0.139 A 
HETATM   15  C9  UNL     1      25.677   1.489  53.062  1.00  0.00     0.090 A 
HETATM   16  N4  UNL     1      26.772   2.433  52.631  1.00  0.00    -0.386 N 
HETATM   17  C13 UNL     1      25.626   0.095  53.650  1.00  0.00     0.125 A 
HETATM   18  C10 UNL     1      27.975   1.921  53.462  1.00  0.00     0.141 C 
HETATM   19  H7  UNL     1      26.549   3.153  51.950  1.00  0.00     0.159 HD
HETATM   20  C11 UNL     1      27.277   0.570  53.714  1.00  0.00     0.052 A 
HETATM   21  C12 UNL     1      26.566   0.233  54.778  1.00  0.00     0.012 A 
HETATM   22  C15 UNL     1      27.207  -0.249  52.449  1.00  0.00    -0.008 C 
HETATM   23  C14 UNL     1      26.310  -1.060  52.984  1.00  0.00     0.017 C 
HETATM   24  O1  UNL     1      24.304   0.145  53.691  1.00  0.00    -0.316 OA
ENDBRANCH  13  14
ENDBRANCH   1  13
TORSDOF 5
ENDMDL
MODEL 6
REMARK VINA RESULT:      -7.2      6.277      8.745
REMARK  5 active torsions:
REMARK  status: ('A' for Active; 'I' for Inactive)
REMARK    1  A    between atoms: C5_6  and  N1_7 
REMARK    2  A    between atoms: N1_7  and  C6_8 
REMARK    3  A    between atoms: N2_9  and  C7_10 
REMARK    4  A    between atoms: C7_10  and  N3_11 
REMARK    5  A    between atoms: N3_11  and  C8_12 
ROOT
HETATM    1  C7  UNL     1      25.829   2.371  51.168  1.00  0.00     0.382 C 
ENDROOT
BRANCH   1   2
HETATM    2  N2  UNL     1      25.827   3.644  50.550  1.00  0.00    -0.259 NA
HETATM    3  C6  UNL     1      26.768   3.793  49.642  1.00  0.00     0.203 C 
BRANCH   3   4
HETATM    4  N1  UNL     1      26.582   5.108  49.164  1.00  0.00    -0.351 N 
HETATM    5  H4  UNL     1      25.735   5.749  49.237  1.00  0.00     0.166 HD
BRANCH   4   6
HETATM    6  C5  UNL     1      27.448   5.975  48.451  1.00  0.00     0.034 A 
HETATM    7  C4  UNL     1      26.698   7.047  47.963  1.00  0.00     0.029 A 
HETATM    8  C3  UNL     1      27.290   8.058  47.199  1.00  0.00     0.004 A 
HETATM    9  C2  UNL     1      28.654   7.934  46.956  1.00  0.00     0.019 A 
HETATM   10  C1  UNL     1      29.404   6.882  47.431  1.00  0.00     0.013 A 
HETATM   11 BR1  UNL     1      31.270   6.702  47.103  1.00  0.00    -0.051 Br
HETATM   12  C16 UNL     1      28.787   5.907  48.180  1.00  0.00     0.048 A 
ENDBRANCH   4   6
ENDBRANCH   3   4
ENDBRANCH   1   2
BRANCH   1  13
HETATM   13  N3  UNL     1      25.576   1.268  51.760  1.00  0.00    -0.262 NA
BRANCH  13  14
HETATM   14  C8  UNL     1      26.609   0.652  52.591  1.00  0.00     0.139 A 
HETATM   15  C9  UNL     1      27.775   1.096  53.123  1.00  0.00     0.090 A 
HETATM   16  N4  UNL     1      28.629   2.338  53.194  1.00  0.00    -0.386 N 
HETATM   17  C13 UNL     1      27.878  -0.314  53.664  1.00  0.00     0.125 A 
HETATM   18  C10 UNL     1      29.452   2.082  54.481  1.00  0.00     0.141 C 
HETATM   19  H7  UNL     1      28.523   3.038  52.465  1.00  0.00     0.159 HD
HETATM   20  C11 UNL     1      29.131   0.575  54.435  1.00  0.00     0.052 A 
HETATM   21  C12 UNL     1      28.162  -0.048  55.087  1.00  0.00     0.012 A 
HETATM   22  C15 UNL     1      29.846  -0.097  53.289  1.00  0.00    -0.008 C 
HETATM   23  C14 UNL     1      29.079  -1.169  53.396  1.00  0.00     0.017 C 
HETATM   24  O1  UNL     1      26.712  -0.624  53.120  1.00  0.00    -0.316 OA
ENDBRANCH  13  14
ENDBRANCH   1  13
TORSDOF 5
ENDMDL
MODEL 7
REMARK VINA RESULT:      -7.0      5.012      8.124
REMARK  5 active torsions:
REMARK  status: ('A' for Active; 'I' for Inactive)
REMARK    1  A    between atoms: C5_6  and  N1_7 
REMARK    2  A    between atoms: N1_7  and  C6_8 
REMARK    3  A    between atoms: N2_9  and  C7_10 
REMARK    4  A    between atoms: C7_10  and  N3_11 
REMARK    5  A    between atoms: N3_11  and  C8_12 
ROOT
HETATM    1  C7  UNL     1      26.168   1.533  52.247  1.00  0.00     0.382 C 
ENDROOT
BRANCH   1   2
HETATM    2  N2  UNL     1      26.616   2.207  51.086  1.00  0.00    -0.259 NA
HETATM    3  C6  UNL     1      25.708   2.993  50.548  1.00  0.00     0.203 C 
BRANCH   3   4
HETATM    4  N1  UNL     1      26.358   3.554  49.426  1.00  0.00    -0.351 N 
HETATM    5  H4  UNL     1      26.747   3.082  48.555  1.00  0.00     0.166 HD
BRANCH   4   6
HETATM    6  C5  UNL     1      26.690   4.896  49.112  1.00  0.00     0.034 A 
HETATM    7  C4  UNL     1      27.960   4.914  48.535  1.00  0.00     0.029 A 
HETATM    8  C3  UNL     1      28.559   6.114  48.138  1.00  0.00     0.004 A 
HETATM    9  C2  UNL     1      27.823   7.275  48.350  1.00  0.00     0.019 A 
HETATM   10  C1  UNL     1      26.569   7.270  48.918  1.00  0.00     0.013 A 
HETATM   11 BR1  UNL     1      25.555   8.852  49.215  1.00  0.00    -0.051 Br
HETATM   12  C16 UNL     1      26.012   6.070  49.295  1.00  0.00     0.048 A 
ENDBRANCH   4   6
ENDBRANCH   3   4
ENDBRANCH   1   2
BRANCH   1  13
HETATM   13  N3  UNL     1      25.812   1.154  53.414  1.00  0.00    -0.262 NA
BRANCH  13  14
HETATM   14  C8  UNL     1      24.551   0.431  53.573  1.00  0.00     0.139 A 
HETATM   15  C9  UNL     1      23.301   0.600  53.074  1.00  0.00     0.090 A 
HETATM   16  N4  UNL     1      22.522   1.510  52.157  1.00  0.00    -0.386 N 
HETATM   17  C13 UNL     1      22.978  -0.622  53.908  1.00  0.00     0.125 A 
HETATM   18  C10 UNL     1      21.344   0.599  51.734  1.00  0.00     0.141 C 
HETATM   19  H7  UNL     1      22.872   2.451  52.001  1.00  0.00     0.159 HD
HETATM   20  C11 UNL     1      21.594  -0.347  52.925  1.00  0.00     0.052 A 
HETATM   21  C12 UNL     1      22.296  -1.469  52.911  1.00  0.00     0.012 A 
HETATM   22  C15 UNL     1      21.222   0.314  54.229  1.00  0.00    -0.008 C 
HETATM   23  C14 UNL     1      21.873  -0.607  54.920  1.00  0.00     0.017 C 
HETATM   24  O1  UNL     1      24.238  -0.701  54.307  1.00  0.00    -0.316 OA
ENDBRANCH  13  14
ENDBRANCH   1  13
TORSDOF 5
ENDMDL
MODEL 8
REMARK VINA RESULT:      -7.0      6.642      8.563
REMARK  5 active torsions:
REMARK  status: ('A' for Active; 'I' for Inactive)
REMARK    1  A    between atoms: C5_6  and  N1_7 
REMARK    2  A    between atoms: N1_7  and  C6_8 
REMARK    3  A    between atoms: N2_9  and  C7_10 
REMARK    4  A    between atoms: C7_10  and  N3_11 
REMARK    5  A    between atoms: N3_11  and  C8_12 
ROOT
HETATM    1  C7  UNL     1      26.924   5.100  48.910  1.00  0.00     0.382 C 
ENDROOT
BRANCH   1   2
HETATM    2  N2  UNL     1      25.966   4.305  49.582  1.00  0.00    -0.259 NA
HETATM    3  C6  UNL     1      26.495   3.386  50.361  1.00  0.00     0.203 C 
BRANCH   3   4
HETATM    4  N1  UNL     1      25.380   2.724  50.922  1.00  0.00    -0.351 N 
HETATM    5  H4  UNL     1      24.342   2.950  50.847  1.00  0.00     0.166 HD
BRANCH   4   6
HETATM    6  C5  UNL     1      25.292   1.573  51.745  1.00  0.00     0.034 A 
HETATM    7  C4  UNL     1      26.530   0.928  51.738  1.00  0.00     0.029 A 
HETATM    8  C3  UNL     1      26.734  -0.256  52.453  1.00  0.00     0.004 A 
HETATM    9  C2  UNL     1      25.644  -0.748  53.164  1.00  0.00     0.019 A 
HETATM   10  C1  UNL     1      24.419  -0.121  53.179  1.00  0.00     0.013 A 
HETATM   11 BR1  UNL     1      22.921  -0.786  54.146  1.00  0.00    -0.051 Br
HETATM   12  C16 UNL     1      24.256   1.043  52.464  1.00  0.00     0.048 A 
ENDBRANCH   4   6
ENDBRANCH   3   4
ENDBRANCH   1   2
BRANCH   1  13
HETATM   13  N3  UNL     1      27.580   5.957  48.226  1.00  0.00    -0.262 NA
BRANCH  13  14
HETATM   14  C8  UNL     1      29.041   5.903  48.231  1.00  0.00     0.139 A 
HETATM   15  C9  UNL     1      30.013   6.799  48.531  1.00  0.00     0.090 A 
HETATM   16  N4  UNL     1      30.185   8.225  48.996  1.00  0.00    -0.386 N 
HETATM   17  C13 UNL     1      30.947   5.667  48.163  1.00  0.00     0.125 A 
HETATM   18  C10 UNL     1      31.604   8.185  49.616  1.00  0.00     0.141 C 
HETATM   19  H7  UNL     1      29.426   8.879  48.836  1.00  0.00     0.159 HD
HETATM   20  C11 UNL     1      31.941   6.882  48.865  1.00  0.00     0.052 A 
HETATM   21  C12 UNL     1      31.842   5.649  49.335  1.00  0.00     0.012 A 
HETATM   22  C15 UNL     1      32.090   7.133  47.384  1.00  0.00    -0.008 C 
HETATM   23  C14 UNL     1      32.014   5.839  47.124  1.00  0.00     0.017 C 
HETATM   24  O1  UNL     1      29.915   4.873  47.924  1.00  0.00    -0.316 OA
ENDBRANCH  13  14
ENDBRANCH   1  13
TORSDOF 5
ENDMDL
MODEL 9
REMARK VINA RESULT:      -6.9      6.655      8.644
REMARK  5 active torsions:
REMARK  status: ('A' for Active; 'I' for Inactive)
REMARK    1  A    between atoms: C5_6  and  N1_7 
REMARK    2  A    between atoms: N1_7  and  C6_8 
REMARK    3  A    between atoms: N2_9  and  C7_10 
REMARK    4  A    between atoms: C7_10  and  N3_11 
REMARK    5  A    between atoms: N3_11  and  C8_12 
ROOT
HETATM    1  C7  UNL     1      27.095   4.428  49.048  1.00  0.00     0.382 C 
ENDROOT
BRANCH   1   2
HETATM    2  N2  UNL     1      26.088   3.828  49.839  1.00  0.00    -0.259 NA
HETATM    3  C6  UNL     1      26.516   2.810  50.556  1.00  0.00     0.203 C 
BRANCH   3   4
HETATM    4  N1  UNL     1      25.369   2.373  51.254  1.00  0.00    -0.351 N 
HETATM    5  H4  UNL     1      24.389   2.790  51.290  1.00  0.00     0.166 HD
BRANCH   4   6
HETATM    6  C5  UNL     1      25.162   1.262  52.110  1.00  0.00     0.034 A 
HETATM    7  C4  UNL     1      26.370   0.576  52.246  1.00  0.00     0.029 A 
HETATM    8  C3  UNL     1      26.463  -0.582  53.024  1.00  0.00     0.004 A 
HETATM    9  C2  UNL     1      25.294  -1.006  53.647  1.00  0.00     0.019 A 
HETATM   10  C1  UNL     1      24.097  -0.339  53.521  1.00  0.00     0.013 A 
HETATM   11 BR1  UNL     1      22.492  -0.913  54.367  1.00  0.00    -0.051 Br
HETATM   12  C16 UNL     1      24.044   0.798  52.748  1.00  0.00     0.048 A 
ENDBRANCH   4   6
ENDBRANCH   3   4
ENDBRANCH   1   2
BRANCH   1  13
HETATM   13  N3  UNL     1      28.169   4.835  48.487  1.00  0.00    -0.262 NA
BRANCH  13  14
HETATM   14  C8  UNL     1      28.324   6.259  48.197  1.00  0.00     0.139 A 
HETATM   15  C9  UNL     1      27.846   7.393  48.767  1.00  0.00     0.090 A 
HETATM   16  N4  UNL     1      26.974   7.846  49.913  1.00  0.00    -0.386 N 
HETATM   17  C13 UNL     1      28.619   8.083  47.665  1.00  0.00     0.125 A 
HETATM   18  C10 UNL     1      27.473   9.295  50.135  1.00  0.00     0.141 C 
HETATM   19  H7  UNL     1      26.293   7.192  50.288  1.00  0.00     0.159 HD
HETATM   20  C11 UNL     1      28.117   9.331  48.735  1.00  0.00     0.052 A 
HETATM   21  C12 UNL     1      29.382   9.080  48.439  1.00  0.00     0.012 A 
HETATM   22  C15 UNL     1      27.065   9.365  47.655  1.00  0.00    -0.008 C 
HETATM   23  C14 UNL     1      27.956   9.049  46.730  1.00  0.00     0.017 C 
HETATM   24  O1  UNL     1      29.046   6.915  47.213  1.00  0.00    -0.316 OA
ENDBRANCH  13  14
ENDBRANCH   1  13
TORSDOF 5
ENDMDL
