MODEL 1
REMARK VINA RESULT:      -7.6      0.000      0.000
REMARK  7 active torsions:
REMARK  status: ('A' for Active; 'I' for Inactive)
REMARK    1  A    between atoms: N1_1  and  C1_2 
REMARK    2  A    between atoms: C1_2  and  C2_3 
REMARK    3  A    between atoms: C2_3  and  C3_4 
REMARK    4  A    between atoms: C4_5  and  C5_6 
REMARK    5  A    between atoms: C5_6  and  C6_7 
REMARK    6  A    between atoms: C8_10  and  N2_11 
REMARK    7  A    between atoms: C14_18  and  C15_19 
ROOT
HETATM    1  N2  UNL     1      24.985  -0.252  53.415  1.00  0.00    -0.343 N 
HETATM    2  C9  UNL     1      26.055  -1.233  53.278  1.00  0.00     0.167 A 
HETATM    3  C10 UNL     1      27.260  -0.370  53.502  1.00  0.00    -0.010 A 
HETATM    4  C11 UNL     1      26.901   0.887  53.780  1.00  0.00    -0.020 A 
HETATM    5  C12 UNL     1      28.254   1.363  53.919  1.00  0.00     0.034 A 
HETATM    6  C13 UNL     1      28.634   0.130  53.648  1.00  0.00     0.043 A 
HETATM    7 CL1  UNL     1      30.185  -0.698  53.496  1.00  0.00    -0.084 Cl
HETATM    8  C14 UNL     1      25.429   1.077  53.788  1.00  0.00     0.154 A 
ENDROOT
BRANCH   1   9
HETATM    9  C8  UNL     1      23.549  -0.258  53.266  1.00  0.00     0.170 A 
HETATM   10  S1  UNL     1      22.340  -0.859  54.600  1.00  0.00    -0.062 SA
HETATM   11  C7  UNL     1      20.860  -0.475  53.514  1.00  0.00     0.080 A 
HETATM   12  C6  UNL     1      21.574   0.050  52.315  1.00  0.00     0.047 A 
HETATM   13  N3  UNL     1      22.883   0.125  52.267  1.00  0.00    -0.228 NA
BRANCH  12  14
HETATM   14  C5  UNL     1      20.759   0.515  51.130  1.00  0.00     0.086 C 
BRANCH  14  15
HETATM   15  C4  UNL     1      21.636   0.943  50.038  1.00  0.00    -0.025 C 
HETATM   16  C3  UNL     1      21.776   1.901  49.132  1.00  0.00    -0.029 C 
BRANCH  16  17
HETATM   17  C2  UNL     1      21.078   3.126  48.715  1.00  0.00     0.056 C 
BRANCH  17  18
HETATM   18  C1  UNL     1      20.086   2.864  47.590  1.00  0.00     0.270 C 
BRANCH  18  19
HETATM   19  N1  UNL     1      18.831   2.430  48.169  1.00  0.00     0.078 N 
HETATM   20  H1  UNL     1      18.252   1.884  47.516  1.00  0.00     0.312 HD
HETATM   21  H2  UNL     1      18.365   3.274  48.559  1.00  0.00     0.312 HD
ENDBRANCH  18  19
ENDBRANCH  17  18
ENDBRANCH  16  17
ENDBRANCH  14  15
ENDBRANCH  12  14
ENDBRANCH   1   9
BRANCH   8  22
HETATM   22  C15 UNL     1      25.004   2.129  52.837  1.00  0.00    -0.031 A 
HETATM   23  C16 UNL     1      25.607   2.038  51.582  1.00  0.00     0.011 A 
HETATM   24  C17 UNL     1      25.326   2.943  50.549  1.00  0.00     0.019 A 
HETATM   25  C18 UNL     1      24.413   3.957  50.804  1.00  0.00     0.011 A 
HETATM   26 BR1  UNL     1      24.014   5.195  49.426  1.00  0.00    -0.051 Br
HETATM   27  C19 UNL     1      23.814   4.049  52.043  1.00  0.00     0.019 A 
HETATM   28  C20 UNL     1      24.097   3.153  53.054  1.00  0.00     0.011 A 
ENDBRANCH   8  22
TORSDOF 7
ENDMDL
MODEL 2
REMARK VINA RESULT:      -7.5      3.146      4.903
REMARK  7 active torsions:
REMARK  status: ('A' for Active; 'I' for Inactive)
REMARK    1  A    between atoms: N1_1  and  C1_2 
REMARK    2  A    between atoms: C1_2  and  C2_3 
REMARK    3  A    between atoms: C2_3  and  C3_4 
REMARK    4  A    between atoms: C4_5  and  C5_6 
REMARK    5  A    between atoms: C5_6  and  C6_7 
REMARK    6  A    between atoms: C8_10  and  N2_11 
REMARK    7  A    between atoms: C14_18  and  C15_19 
ROOT
HETATM    1  N2  UNL     1      25.697   2.357  51.997  1.00  0.00    -0.343 N 
HETATM    2  C9  UNL     1      26.981   2.391  52.689  1.00  0.00     0.167 A 
HETATM    3  C10 UNL     1      27.271   0.925  52.817  1.00  0.00    -0.010 A 
HETATM    4  C11 UNL     1      26.317   0.198  52.229  1.00  0.00    -0.020 A 
HETATM    5  C12 UNL     1      26.926  -1.068  52.551  1.00  0.00     0.034 A 
HETATM    6  C13 UNL     1      27.880  -0.372  53.138  1.00  0.00     0.043 A 
HETATM    7 CL1  UNL     1      29.366  -0.767  54.005  1.00  0.00    -0.084 Cl
HETATM    8  C14 UNL     1      25.248   1.030  51.622  1.00  0.00     0.154 A 
ENDROOT
BRANCH   1   9
HETATM    9  C8  UNL     1      24.721   3.334  51.578  1.00  0.00     0.170 A 
HETATM   10  S1  UNL     1      23.596   4.297  52.764  1.00  0.00    -0.062 SA
HETATM   11  C7  UNL     1      22.790   5.220  51.345  1.00  0.00     0.080 A 
HETATM   12  C6  UNL     1      23.542   4.613  50.209  1.00  0.00     0.047 A 
HETATM   13  N3  UNL     1      24.466   3.702  50.399  1.00  0.00    -0.228 NA
BRANCH  12  14
HETATM   14  C5  UNL     1      23.230   5.074  48.804  1.00  0.00     0.086 C 
BRANCH  14  15
HETATM   15  C4  UNL     1      23.861   6.367  48.533  1.00  0.00    -0.025 C 
HETATM   16  C3  UNL     1      24.992   7.033  48.722  1.00  0.00    -0.029 C 
BRANCH  16  17
HETATM   17  C2  UNL     1      26.305   6.808  49.344  1.00  0.00     0.056 C 
BRANCH  17  18
HETATM   18  C1  UNL     1      27.144   5.807  48.562  1.00  0.00     0.270 C 
BRANCH  18  19
HETATM   19  N1  UNL     1      27.231   4.578  49.325  1.00  0.00     0.078 N 
HETATM   20  H1  UNL     1      27.350   4.738  50.335  1.00  0.00     0.312 HD
HETATM   21  H2  UNL     1      27.974   3.997  48.887  1.00  0.00     0.312 HD
ENDBRANCH  18  19
ENDBRANCH  17  18
ENDBRANCH  16  17
ENDBRANCH  14  15
ENDBRANCH  12  14
ENDBRANCH   1   9
BRANCH   8  22
HETATM   22  C15 UNL     1      23.912   0.687  52.158  1.00  0.00    -0.031 A 
HETATM   23  C16 UNL     1      22.883   0.773  51.218  1.00  0.00     0.011 A 
HETATM   24  C17 UNL     1      21.551   0.481  51.538  1.00  0.00     0.019 A 
HETATM   25  C18 UNL     1      21.265   0.095  52.840  1.00  0.00     0.011 A 
HETATM   26 BR1  UNL     1      19.471  -0.305  53.302  1.00  0.00    -0.051 Br
HETATM   27  C19 UNL     1      22.278   0.008  53.772  1.00  0.00     0.019 A 
HETATM   28  C20 UNL     1      23.588   0.297  53.446  1.00  0.00     0.011 A 
ENDBRANCH   8  22
TORSDOF 7
ENDMDL
MODEL 3
REMARK VINA RESULT:      -7.4      3.284      5.017
REMARK  7 active torsions:
REMARK  status: ('A' for Active; 'I' for Inactive)
REMARK    1  A    between atoms: N1_1  and  C1_2 
REMARK    2  A    between atoms: C1_2  and  C2_3 
REMARK    3  A    between atoms: C2_3  and  C3_4 
REMARK    4  A    between atoms: C4_5  and  C5_6 
REMARK    5  A    between atoms: C5_6  and  C6_7 
REMARK    6  A    between atoms: C8_10  and  N2_11 
REMARK    7  A    between atoms: C14_18  and  C15_19 
ROOT
HETATM    1  N2  UNL     1      24.267   2.649  52.082  1.00  0.00    -0.343 N 
HETATM    2  C9  UNL     1      25.395   2.847  52.985  1.00  0.00     0.167 A 
HETATM    3  C10 UNL     1      25.757   1.426  53.299  1.00  0.00    -0.010 A 
HETATM    4  C11 UNL     1      24.981   0.576  52.621  1.00  0.00    -0.020 A 
HETATM    5  C12 UNL     1      25.606  -0.604  53.164  1.00  0.00     0.034 A 
HETATM    6  C13 UNL     1      26.384   0.215  53.843  1.00  0.00     0.043 A 
HETATM    7 CL1  UNL     1      27.707   0.017  54.995  1.00  0.00    -0.084 Cl
HETATM    8  C14 UNL     1      23.988   1.263  51.758  1.00  0.00     0.154 A 
ENDROOT
BRANCH   1   9
HETATM    9  C8  UNL     1      23.320   3.503  51.405  1.00  0.00     0.170 A 
HETATM   10  S1  UNL     1      21.908   4.429  52.272  1.00  0.00    -0.062 SA
HETATM   11  C7  UNL     1      21.332   5.183  50.655  1.00  0.00     0.080 A 
HETATM   12  C6  UNL     1      22.341   4.580  49.737  1.00  0.00     0.047 A 
HETATM   13  N3  UNL     1      23.277   3.772  50.175  1.00  0.00    -0.228 NA
BRANCH  12  14
HETATM   14  C5  UNL     1      22.281   4.922  48.267  1.00  0.00     0.086 C 
BRANCH  14  15
HETATM   15  C4  UNL     1      23.392   5.799  47.895  1.00  0.00    -0.025 C 
HETATM   16  C3  UNL     1      24.128   6.800  48.360  1.00  0.00    -0.029 C 
BRANCH  16  17
HETATM   17  C2  UNL     1      24.224   7.614  49.581  1.00  0.00     0.056 C 
BRANCH  17  18
HETATM   18  C1  UNL     1      25.096   6.954  50.641  1.00  0.00     0.270 C 
BRANCH  18  19
HETATM   19  N1  UNL     1      24.442   7.085  51.927  1.00  0.00     0.078 N 
HETATM   20  H1  UNL     1      23.539   6.593  51.973  1.00  0.00     0.312 HD
HETATM   21  H2  UNL     1      24.394   8.101  52.144  1.00  0.00     0.312 HD
ENDBRANCH  18  19
ENDBRANCH  17  18
ENDBRANCH  16  17
ENDBRANCH  14  15
ENDBRANCH  12  14
ENDBRANCH   1   9
BRANCH   8  22
HETATM   22  C15 UNL     1      22.603   0.851  52.076  1.00  0.00    -0.031 A 
HETATM   23  C16 UNL     1      21.789   0.681  50.955  1.00  0.00     0.011 A 
HETATM   24  C17 UNL     1      20.448   0.288  51.057  1.00  0.00     0.019 A 
HETATM   25  C18 UNL     1      19.930   0.066  52.325  1.00  0.00     0.011 A 
HETATM   26 BR1  UNL     1      18.118  -0.465  52.493  1.00  0.00    -0.051 Br
HETATM   27  C19 UNL     1      20.731   0.233  53.436  1.00  0.00     0.019 A 
HETATM   28  C20 UNL     1      22.051   0.620  53.325  1.00  0.00     0.011 A 
ENDBRANCH   8  22
TORSDOF 7
ENDMDL
MODEL 4
REMARK VINA RESULT:      -7.2      3.389      6.513
REMARK  7 active torsions:
REMARK  status: ('A' for Active; 'I' for Inactive)
REMARK    1  A    between atoms: N1_1  and  C1_2 
REMARK    2  A    between atoms: C1_2  and  C2_3 
REMARK    3  A    between atoms: C2_3  and  C3_4 
REMARK    4  A    between atoms: C4_5  and  C5_6 
REMARK    5  A    between atoms: C5_6  and  C6_7 
REMARK    6  A    between atoms: C8_10  and  N2_11 
REMARK    7  A    between atoms: C14_18  and  C15_19 
ROOT
HETATM    1  N2  UNL     1      21.415  -0.438  53.013  1.00  0.00    -0.343 N 
HETATM    2  C9  UNL     1      20.097  -0.713  53.574  1.00  0.00     0.167 A 
HETATM    3  C10 UNL     1      19.211  -0.167  52.494  1.00  0.00    -0.010 A 
HETATM    4  C11 UNL     1      19.937   0.286  51.467  1.00  0.00    -0.020 A 
HETATM    5  C12 UNL     1      18.792   0.699  50.695  1.00  0.00     0.034 A 
HETATM    6  C13 UNL     1      18.055   0.258  51.695  1.00  0.00     0.043 A 
HETATM    7 CL1  UNL     1      16.324   0.171  52.032  1.00  0.00    -0.084 Cl
HETATM    8  C14 UNL     1      21.397   0.127  51.677  1.00  0.00     0.154 A 
ENDROOT
BRANCH   1   9
HETATM    9  C8  UNL     1      22.780  -0.583  53.458  1.00  0.00     0.170 A 
HETATM   10  S1  UNL     1      23.290  -0.883  55.262  1.00  0.00    -0.062 SA
HETATM   11  C7  UNL     1      25.107  -0.925  54.803  1.00  0.00     0.080 A 
HETATM   12  C6  UNL     1      24.987  -0.701  53.334  1.00  0.00     0.047 A 
HETATM   13  N3  UNL     1      23.823  -0.542  52.751  1.00  0.00    -0.228 NA
BRANCH  12  14
HETATM   14  C5  UNL     1      26.247  -0.664  52.500  1.00  0.00     0.086 C 
BRANCH  14  15
HETATM   15  C4  UNL     1      26.484   0.685  51.982  1.00  0.00    -0.025 C 
HETATM   16  C3  UNL     1      27.087   1.825  52.289  1.00  0.00    -0.029 C 
BRANCH  16  17
HETATM   17  C2  UNL     1      27.895   2.377  53.386  1.00  0.00     0.056 C 
BRANCH  17  18
HETATM   18  C1  UNL     1      28.994   1.419  53.825  1.00  0.00     0.270 C 
BRANCH  18  19
HETATM   19  N1  UNL     1      28.564   0.740  55.029  1.00  0.00     0.078 N 
HETATM   20  H1  UNL     1      28.855  -0.247  55.062  1.00  0.00     0.312 HD
HETATM   21  H2  UNL     1      27.540   0.894  55.120  1.00  0.00     0.312 HD
ENDBRANCH  18  19
ENDBRANCH  17  18
ENDBRANCH  16  17
ENDBRANCH  14  15
ENDBRANCH  12  14
ENDBRANCH   1   9
BRANCH   8  22
HETATM   22  C15 UNL     1      22.113   1.418  51.574  1.00  0.00    -0.031 A 
HETATM   23  C16 UNL     1      22.794   1.595  50.369  1.00  0.00     0.011 A 
HETATM   24  C17 UNL     1      23.525   2.757  50.086  1.00  0.00     0.019 A 
HETATM   25  C18 UNL     1      23.560   3.754  51.052  1.00  0.00     0.011 A 
HETATM   26 BR1  UNL     1      24.541   5.336  50.697  1.00  0.00    -0.051 Br
HETATM   27  C19 UNL     1      22.888   3.582  52.244  1.00  0.00     0.019 A 
HETATM   28  C20 UNL     1      22.170   2.434  52.513  1.00  0.00     0.011 A 
ENDBRANCH   8  22
TORSDOF 7
ENDMDL
MODEL 5
REMARK VINA RESULT:      -7.2      2.536      3.868
REMARK  7 active torsions:
REMARK  status: ('A' for Active; 'I' for Inactive)
REMARK    1  A    between atoms: N1_1  and  C1_2 
REMARK    2  A    between atoms: C1_2  and  C2_3 
REMARK    3  A    between atoms: C2_3  and  C3_4 
REMARK    4  A    between atoms: C4_5  and  C5_6 
REMARK    5  A    between atoms: C5_6  and  C6_7 
REMARK    6  A    between atoms: C8_10  and  N2_11 
REMARK    7  A    between atoms: C14_18  and  C15_19 
ROOT
HETATM    1  N2  UNL     1      25.676   2.258  52.194  1.00  0.00    -0.343 N 
HETATM    2  C9  UNL     1      26.976   2.312  52.852  1.00  0.00     0.167 A 
HETATM    3  C10 UNL     1      27.318   0.854  52.920  1.00  0.00    -0.010 A 
HETATM    4  C11 UNL     1      26.372   0.115  52.333  1.00  0.00    -0.020 A 
HETATM    5  C12 UNL     1      27.032  -1.140  52.594  1.00  0.00     0.034 A 
HETATM    6  C13 UNL     1      27.979  -0.433  53.179  1.00  0.00     0.043 A 
HETATM    7 CL1  UNL     1      29.500  -0.806  53.991  1.00  0.00    -0.084 Cl
HETATM    8  C14 UNL     1      25.260   0.931  51.785  1.00  0.00     0.154 A 
ENDROOT
BRANCH   1   9
HETATM    9  C8  UNL     1      24.656   3.215  51.836  1.00  0.00     0.170 A 
HETATM   10  S1  UNL     1      23.659   4.234  53.089  1.00  0.00    -0.062 SA
HETATM   11  C7  UNL     1      22.704   5.090  51.722  1.00  0.00     0.080 A 
HETATM   12  C6  UNL     1      23.333   4.430  50.542  1.00  0.00     0.047 A 
HETATM   13  N3  UNL     1      24.276   3.528  50.675  1.00  0.00    -0.228 NA
BRANCH  12  14
HETATM   14  C5  UNL     1      22.872   4.825  49.158  1.00  0.00     0.086 C 
BRANCH  14  15
HETATM   15  C4  UNL     1      22.989   3.695  48.234  1.00  0.00    -0.025 C 
HETATM   16  C3  UNL     1      22.406   2.547  47.915  1.00  0.00    -0.029 C 
BRANCH  16  17
HETATM   17  C2  UNL     1      21.252   1.747  48.349  1.00  0.00     0.056 C 
BRANCH  17  18
HETATM   18  C1  UNL     1      20.007   2.601  48.550  1.00  0.00     0.270 C 
BRANCH  18  19
HETATM   19  N1  UNL     1      19.867   2.891  49.962  1.00  0.00     0.078 N 
HETATM   20  H1  UNL     1      20.631   2.503  50.533  1.00  0.00     0.312 HD
HETATM   21  H2  UNL     1      18.914   2.584  50.246  1.00  0.00     0.312 HD
ENDBRANCH  18  19
ENDBRANCH  17  18
ENDBRANCH  16  17
ENDBRANCH  14  15
ENDBRANCH  12  14
ENDBRANCH   1   9
BRANCH   8  22
HETATM   22  C15 UNL     1      23.952   0.524  52.344  1.00  0.00    -0.031 A 
HETATM   23  C16 UNL     1      22.894   0.611  51.437  1.00  0.00     0.011 A 
HETATM   24  C17 UNL     1      21.582   0.264  51.782  1.00  0.00     0.019 A 
HETATM   25  C18 UNL     1      21.346  -0.179  53.076  1.00  0.00     0.011 A 
HETATM   26 BR1  UNL     1      19.579  -0.655  53.572  1.00  0.00    -0.051 Br
HETATM   27  C19 UNL     1      22.388  -0.267  53.975  1.00  0.00     0.019 A 
HETATM   28  C20 UNL     1      23.678   0.077  53.625  1.00  0.00     0.011 A 
ENDBRANCH   8  22
TORSDOF 7
ENDMDL
MODEL 6
REMARK VINA RESULT:      -6.9      4.459      7.189
REMARK  7 active torsions:
REMARK  status: ('A' for Active; 'I' for Inactive)
REMARK    1  A    between atoms: N1_1  and  C1_2 
REMARK    2  A    between atoms: C1_2  and  C2_3 
REMARK    3  A    between atoms: C2_3  and  C3_4 
REMARK    4  A    between atoms: C4_5  and  C5_6 
REMARK    5  A    between atoms: C5_6  and  C6_7 
REMARK    6  A    between atoms: C8_10  and  N2_11 
REMARK    7  A    between atoms: C14_18  and  C15_19 
ROOT
HETATM    1  N2  UNL     1      23.993   2.987  51.594  1.00  0.00    -0.343 N 
HETATM    2  C9  UNL     1      23.686   2.791  53.005  1.00  0.00     0.167 A 
HETATM    3  C10 UNL     1      22.801   1.582  52.936  1.00  0.00    -0.010 A 
HETATM    4  C11 UNL     1      22.689   1.145  51.678  1.00  0.00    -0.020 A 
HETATM    5  C12 UNL     1      21.819   0.047  52.017  1.00  0.00     0.034 A 
HETATM    6  C13 UNL     1      21.915   0.458  53.266  1.00  0.00     0.043 A 
HETATM    7 CL1  UNL     1      21.258  -0.079  54.814  1.00  0.00    -0.084 Cl
HETATM    8  C14 UNL     1      23.459   1.968  50.711  1.00  0.00     0.154 A 
ENDROOT
BRANCH   1   9
HETATM    9  C8  UNL     1      24.711   3.970  50.818  1.00  0.00     0.170 A 
HETATM   10  S1  UNL     1      24.193   5.788  50.654  1.00  0.00    -0.062 SA
HETATM   11  C7  UNL     1      25.658   6.167  49.547  1.00  0.00     0.080 A 
HETATM   12  C6  UNL     1      26.283   4.814  49.507  1.00  0.00     0.047 A 
HETATM   13  N3  UNL     1      25.765   3.794  50.149  1.00  0.00    -0.228 NA
BRANCH  12  14
HETATM   14  C5  UNL     1      27.552   4.623  48.709  1.00  0.00     0.086 C 
BRANCH  14  15
HETATM   15  C4  UNL     1      28.109   5.917  48.310  1.00  0.00    -0.025 C 
HETATM   16  C3  UNL     1      29.255   6.501  47.987  1.00  0.00    -0.029 C 
BRANCH  16  17
HETATM   17  C2  UNL     1      30.671   6.133  47.847  1.00  0.00     0.056 C 
BRANCH  17  18
HETATM   18  C1  UNL     1      31.327   5.859  49.194  1.00  0.00     0.270 C 
BRANCH  18  19
HETATM   19  N1  UNL     1      32.680   5.396  48.965  1.00  0.00     0.078 N 
HETATM   20  H1  UNL     1      33.168   5.922  48.226  1.00  0.00     0.312 HD
HETATM   21  H2  UNL     1      32.631   4.369  48.808  1.00  0.00     0.312 HD
ENDBRANCH  18  19
ENDBRANCH  17  18
ENDBRANCH  16  17
ENDBRANCH  14  15
ENDBRANCH  12  14
ENDBRANCH   1   9
BRANCH   8  22
HETATM   22  C15 UNL     1      22.596   2.509  49.639  1.00  0.00    -0.031 A 
HETATM   23  C16 UNL     1      21.427   3.116  50.101  1.00  0.00     0.011 A 
HETATM   24  C17 UNL     1      20.488   3.690  49.234  1.00  0.00     0.019 A 
HETATM   25  C18 UNL     1      20.749   3.645  47.871  1.00  0.00     0.011 A 
HETATM   26 BR1  UNL     1      19.496   4.413  46.674  1.00  0.00    -0.051 Br
HETATM   27  C19 UNL     1      21.904   3.047  47.410  1.00  0.00     0.019 A 
HETATM   28  C20 UNL     1      22.822   2.484  48.273  1.00  0.00     0.011 A 
ENDBRANCH   8  22
TORSDOF 7
ENDMDL
MODEL 7
REMARK VINA RESULT:      -6.9      3.999      6.280
REMARK  7 active torsions:
REMARK  status: ('A' for Active; 'I' for Inactive)
REMARK    1  A    between atoms: N1_1  and  C1_2 
REMARK    2  A    between atoms: C1_2  and  C2_3 
REMARK    3  A    between atoms: C2_3  and  C3_4 
REMARK    4  A    between atoms: C4_5  and  C5_6 
REMARK    5  A    between atoms: C5_6  and  C6_7 
REMARK    6  A    between atoms: C8_10  and  N2_11 
REMARK    7  A    between atoms: C14_18  and  C15_19 
ROOT
HETATM    1  N2  UNL     1      20.807   1.947  50.973  1.00  0.00    -0.343 N 
HETATM    2  C9  UNL     1      19.904   0.812  50.824  1.00  0.00     0.167 A 
HETATM    3  C10 UNL     1      19.908   0.264  52.220  1.00  0.00    -0.010 A 
HETATM    4  C11 UNL     1      20.655   1.023  53.027  1.00  0.00    -0.020 A 
HETATM    5  C12 UNL     1      20.415   0.214  54.196  1.00  0.00     0.034 A 
HETATM    6  C13 UNL     1      19.672  -0.550  53.420  1.00  0.00     0.043 A 
HETATM    7 CL1  UNL     1      18.717  -2.017  53.650  1.00  0.00    -0.084 Cl
HETATM    8  C14 UNL     1      21.267   2.180  52.328  1.00  0.00     0.154 A 
ENDROOT
BRANCH   1   9
HETATM    9  C8  UNL     1      21.386   2.932  50.090  1.00  0.00     0.170 A 
HETATM   10  S1  UNL     1      22.659   2.538  48.739  1.00  0.00    -0.062 SA
HETATM   11  C7  UNL     1      22.746   4.335  48.214  1.00  0.00     0.080 A 
HETATM   12  C6  UNL     1      21.770   4.914  49.182  1.00  0.00     0.047 A 
HETATM   13  N3  UNL     1      21.149   4.170  50.066  1.00  0.00    -0.228 NA
BRANCH  12  14
HETATM   14  C5  UNL     1      21.491   6.398  49.132  1.00  0.00     0.086 C 
BRANCH  14  15
HETATM   15  C4  UNL     1      22.033   7.065  50.317  1.00  0.00    -0.025 C 
HETATM   16  C3  UNL     1      23.176   7.294  50.950  1.00  0.00    -0.029 C 
BRANCH  16  17
HETATM   17  C2  UNL     1      24.602   6.979  50.785  1.00  0.00     0.056 C 
BRANCH  17  18
HETATM   18  C1  UNL     1      25.349   8.078  50.042  1.00  0.00     0.270 C 
BRANCH  18  19
HETATM   19  N1  UNL     1      26.694   8.165  50.571  1.00  0.00     0.078 N 
HETATM   20  H1  UNL     1      27.298   8.806  50.038  1.00  0.00     0.312 HD
HETATM   21  H2  UNL     1      27.056   7.193  50.651  1.00  0.00     0.312 HD
ENDBRANCH  18  19
ENDBRANCH  17  18
ENDBRANCH  16  17
ENDBRANCH  14  15
ENDBRANCH  12  14
ENDBRANCH   1   9
BRANCH   8  22
HETATM   22  C15 UNL     1      22.741   2.185  52.457  1.00  0.00    -0.031 A 
HETATM   23  C16 UNL     1      23.330   0.930  52.299  1.00  0.00     0.011 A 
HETATM   24  C17 UNL     1      24.716   0.737  52.382  1.00  0.00     0.019 A 
HETATM   25  C18 UNL     1      25.512   1.846  52.632  1.00  0.00     0.011 A 
HETATM   26 BR1  UNL     1      27.390   1.616  52.751  1.00  0.00    -0.051 Br
HETATM   27  C19 UNL     1      24.934   3.089  52.789  1.00  0.00     0.019 A 
HETATM   28  C20 UNL     1      23.568   3.268  52.704  1.00  0.00     0.011 A 
ENDBRANCH   8  22
TORSDOF 7
ENDMDL
MODEL 8
REMARK VINA RESULT:      -6.8      3.511      6.120
REMARK  7 active torsions:
REMARK  status: ('A' for Active; 'I' for Inactive)
REMARK    1  A    between atoms: N1_1  and  C1_2 
REMARK    2  A    between atoms: C1_2  and  C2_3 
REMARK    3  A    between atoms: C2_3  and  C3_4 
REMARK    4  A    between atoms: C4_5  and  C5_6 
REMARK    5  A    between atoms: C5_6  and  C6_7 
REMARK    6  A    between atoms: C8_10  and  N2_11 
REMARK    7  A    between atoms: C14_18  and  C15_19 
ROOT
HETATM    1  N2  UNL     1      25.324   3.776  49.922  1.00  0.00    -0.343 N 
HETATM    2  C9  UNL     1      26.583   3.614  49.204  1.00  0.00     0.167 A 
HETATM    3  C10 UNL     1      26.950   5.045  48.951  1.00  0.00    -0.010 A 
HETATM    4  C11 UNL     1      26.055   5.871  49.502  1.00  0.00    -0.020 A 
HETATM    5  C12 UNL     1      26.723   7.070  49.064  1.00  0.00     0.034 A 
HETATM    6  C13 UNL     1      27.620   6.277  48.513  1.00  0.00     0.043 A 
HETATM    7 CL1  UNL     1      29.100   6.516  47.581  1.00  0.00    -0.084 Cl
HETATM    8  C14 UNL     1      24.959   5.152  50.199  1.00  0.00     0.154 A 
ENDROOT
BRANCH   1   9
HETATM    9  C8  UNL     1      24.307   2.893  50.442  1.00  0.00     0.170 A 
HETATM   10  S1  UNL     1      22.858   2.213  49.421  1.00  0.00    -0.062 SA
HETATM   11  C7  UNL     1      22.196   1.256  50.891  1.00  0.00     0.080 A 
HETATM   12  C6  UNL     1      23.221   1.636  51.905  1.00  0.00     0.047 A 
HETATM   13  N3  UNL     1      24.218   2.437  51.614  1.00  0.00    -0.228 NA
BRANCH  12  14
HETATM   14  C5  UNL     1      23.104   1.073  53.302  1.00  0.00     0.086 C 
BRANCH  14  15
HETATM   15  C4  UNL     1      23.984  -0.086  53.466  1.00  0.00    -0.025 C 
HETATM   16  C3  UNL     1      25.180  -0.427  53.927  1.00  0.00    -0.029 C 
BRANCH  16  17
HETATM   17  C2  UNL     1      26.335   0.224  54.564  1.00  0.00     0.056 C 
BRANCH  17  18
HETATM   18  C1  UNL     1      26.997   1.241  53.644  1.00  0.00     0.270 C 
BRANCH  18  19
HETATM   19  N1  UNL     1      26.454   2.552  53.935  1.00  0.00     0.078 N 
HETATM   20  H1  UNL     1      26.348   2.731  54.944  1.00  0.00     0.312 HD
HETATM   21  H2  UNL     1      25.579   2.651  53.382  1.00  0.00     0.312 HD
ENDBRANCH  18  19
ENDBRANCH  17  18
ENDBRANCH  16  17
ENDBRANCH  14  15
ENDBRANCH  12  14
ENDBRANCH   1   9
BRANCH   8  22
HETATM   22  C15 UNL     1      23.630   5.528  49.671  1.00  0.00    -0.031 A 
HETATM   23  C16 UNL     1      22.700   5.864  50.656  1.00  0.00     0.011 A 
HETATM   24  C17 UNL     1      21.389   6.252  50.348  1.00  0.00     0.019 A 
HETATM   25  C18 UNL     1      21.022   6.296  49.010  1.00  0.00     0.011 A 
HETATM   26 BR1  UNL     1      19.255   6.815  48.563  1.00  0.00    -0.051 Br
HETATM   27  C19 UNL     1      21.938   5.964  48.033  1.00  0.00     0.019 A 
HETATM   28  C20 UNL     1      23.227   5.585  48.347  1.00  0.00     0.011 A 
ENDBRANCH   8  22
TORSDOF 7
ENDMDL
MODEL 9
REMARK VINA RESULT:      -6.8      4.044      6.199
REMARK  7 active torsions:
REMARK  status: ('A' for Active; 'I' for Inactive)
REMARK    1  A    between atoms: N1_1  and  C1_2 
REMARK    2  A    between atoms: C1_2  and  C2_3 
REMARK    3  A    between atoms: C2_3  and  C3_4 
REMARK    4  A    between atoms: C4_5  and  C5_6 
REMARK    5  A    between atoms: C5_6  and  C6_7 
REMARK    6  A    between atoms: C8_10  and  N2_11 
REMARK    7  A    between atoms: C14_18  and  C15_19 
ROOT
HETATM    1  N2  UNL     1      24.676   2.785  52.214  1.00  0.00    -0.343 N 
HETATM    2  C9  UNL     1      25.185   2.442  53.537  1.00  0.00     0.167 A 
HETATM    3  C10 UNL     1      24.770   1.004  53.635  1.00  0.00    -0.010 A 
HETATM    4  C11 UNL     1      24.174   0.602  52.508  1.00  0.00    -0.020 A 
HETATM    5  C12 UNL     1      23.943  -0.741  52.975  1.00  0.00     0.034 A 
HETATM    6  C13 UNL     1      24.527  -0.369  54.097  1.00  0.00     0.043 A 
HETATM    7 CL1  UNL     1      24.915  -1.157  55.629  1.00  0.00    -0.084 Cl
HETATM    8  C14 UNL     1      24.089   1.676  51.487  1.00  0.00     0.154 A 
ENDROOT
BRANCH   1   9
HETATM    9  C8  UNL     1      24.598   3.983  51.414  1.00  0.00     0.170 A 
HETATM   10  S1  UNL     1      23.374   5.400  51.729  1.00  0.00    -0.062 SA
HETATM   11  C7  UNL     1      24.042   6.377  50.275  1.00  0.00     0.080 A 
HETATM   12  C6  UNL     1      25.093   5.427  49.811  1.00  0.00     0.047 A 
HETATM   13  N3  UNL     1      25.304   4.282  50.414  1.00  0.00    -0.228 NA
BRANCH  12  14
HETATM   14  C5  UNL     1      25.938   5.806  48.617  1.00  0.00     0.086 C 
BRANCH  14  15
HETATM   15  C4  UNL     1      27.271   5.210  48.719  1.00  0.00    -0.025 C 
HETATM   16  C3  UNL     1      28.535   5.423  48.379  1.00  0.00    -0.029 C 
BRANCH  16  17
HETATM   17  C2  UNL     1      29.322   6.444  47.672  1.00  0.00     0.056 C 
BRANCH  17  18
HETATM   18  C1  UNL     1      30.569   6.845  48.450  1.00  0.00     0.270 C 
BRANCH  18  19
HETATM   19  N1  UNL     1      30.211   7.883  49.395  1.00  0.00     0.078 N 
HETATM   20  H1  UNL     1      29.349   8.384  49.139  1.00  0.00     0.312 HD
HETATM   21  H2  UNL     1      31.047   8.491  49.514  1.00  0.00     0.312 HD
ENDBRANCH  18  19
ENDBRANCH  17  18
ENDBRANCH  16  17
ENDBRANCH  14  15
ENDBRANCH  12  14
ENDBRANCH   1   9
BRANCH   8  22
HETATM   22  C15 UNL     1      22.693   1.923  51.062  1.00  0.00    -0.031 A 
HETATM   23  C16 UNL     1      22.503   1.881  49.680  1.00  0.00     0.011 A 
HETATM   24  C17 UNL     1      21.248   2.086  49.091  1.00  0.00     0.019 A 
HETATM   25  C18 UNL     1      20.170   2.338  49.928  1.00  0.00     0.011 A 
HETATM   26 BR1  UNL     1      18.461   2.620  49.158  1.00  0.00    -0.051 Br
HETATM   27  C19 UNL     1      20.354   2.379  51.295  1.00  0.00     0.019 A 
HETATM   28  C20 UNL     1      21.593   2.175  51.866  1.00  0.00     0.011 A 
ENDBRANCH   8  22
TORSDOF 7
ENDMDL
